CHEMBL3133894_gnina_1
     RDKit          3D

 22 24  0  0  0  0  0  0  0  0999 V2000
  -12.2681   15.3631  -28.5831 C   0  0  0  0  0  0  0  0  0  0  0  0
  -12.0833   13.9865  -28.7618 C   0  0  0  0  0  0  0  0  0  0  0  0
  -12.9470   13.0727  -28.1588 C   0  0  0  0  0  0  0  0  0  0  0  0
  -14.0108   13.5225  -27.3719 C   0  0  0  0  0  0  0  0  0  0  0  0
  -14.8454   12.6184  -26.8000 N   0  0  0  0  0  0  0  0  0  0  0  0
  -15.8920   13.0169  -26.0388 C   0  0  0  0  0  0  0  0  0  0  0  0
  -16.1156   14.3369  -25.8275 N   0  0  0  0  0  0  0  0  0  0  0  0
  -15.3163   15.3023  -26.3631 C   0  0  0  0  0  0  0  0  0  0  0  0
  -14.2238   14.9089  -27.1815 C   0  0  0  0  0  0  0  0  0  0  0  0
  -13.3548   15.8202  -27.8159 C   0  0  0  0  0  0  0  0  0  0  0  0
  -10.0959   15.9015  -29.7685 C   0  0  0  0  0  0  0  0  0  0  0  0
   -9.8721   14.6960  -30.0600 O   0  0  0  0  0  0  0  0  0  0  0  0
  -11.3738   16.2844  -29.2309 N   0  0  0  0  0  0  0  0  0  0  0  0
   -9.2818   18.2056  -30.1318 C   0  0  0  0  0  0  0  0  0  0  0  0
   -9.0443   16.8979  -30.0452 C   0  0  0  0  0  0  0  0  0  0  0  0
  -15.6120   16.6847  -26.0490 N   0  0  0  0  0  0  0  0  0  0  0  0
  -14.4537   17.6363  -26.0658 C   0  0  0  0  0  0  0  0  0  0  0  0
  -14.6217   18.9337  -26.9295 C   0  0  0  0  0  0  0  0  0  0  0  0
  -14.9782   20.1559  -26.0761 C   0  0  0  0  0  0  0  0  0  0  0  0
  -13.8820   20.4636  -25.0355 C   0  0  0  0  0  0  0  0  0  0  0  0
  -13.0987   19.2157  -24.5808 C   0  0  0  0  0  0  0  0  0  0  0  0
  -13.9726   17.9584  -24.6224 C   0  0  0  0  0  0  0  0  0  0  0  0
 14 15  2  0
 15 11  1  0
 11 12  2  0
 11 13  1  0
 13  1  1  0
  1  2  2  0
  2  3  1  0
  3  4  2  0
  4  5  1  0
  5  6  2  0
  6  7  1  0
  7  8  2  0
  8 16  1  0
 16 17  1  0
 17 18  1  0
 18 19  1  0
 19 20  1  0
 20 21  1  0
 21 22  1  0
  8  9  1  0
  9 10  2  0
 10  1  1  0
  9  4  1  0
 22 17  1  0
M  CHG  1  16   1
M  END
$$$$
CHEMBL3133894_gnina_2
     RDKit          3D

 22 24  0  0  0  0  0  0  0  0999 V2000
  -14.3253   17.0687  -25.2981 C   0  0  0  0  0  0  0  0  0  0  0  0
  -15.0253   16.2281  -24.4237 C   0  0  0  0  0  0  0  0  0  0  0  0
  -15.2099   14.8811  -24.7337 C   0  0  0  0  0  0  0  0  0  0  0  0
  -14.6934   14.3542  -25.9206 C   0  0  0  0  0  0  0  0  0  0  0  0
  -14.8763   13.0393  -26.2011 N   0  0  0  0  0  0  0  0  0  0  0  0
  -14.3825   12.4914  -27.3367 C   0  0  0  0  0  0  0  0  0  0  0  0
  -13.7013   13.2592  -28.2218 N   0  0  0  0  0  0  0  0  0  0  0  0
  -13.4842   14.5883  -28.0118 C   0  0  0  0  0  0  0  0  0  0  0  0
  -13.9757   15.1810  -26.8179 C   0  0  0  0  0  0  0  0  0  0  0  0
  -13.7787   16.5355  -26.4794 C   0  0  0  0  0  0  0  0  0  0  0  0
  -14.3831   19.5394  -25.8507 C   0  0  0  0  0  0  0  0  0  0  0  0
  -15.1514   19.3751  -26.8361 O   0  0  0  0  0  0  0  0  0  0  0  0
  -14.1334   18.4498  -24.9459 N   0  0  0  0  0  0  0  0  0  0  0  0
  -13.0451   21.1782  -24.5747 C   0  0  0  0  0  0  0  0  0  0  0  0
  -13.8041   20.8774  -25.6271 C   0  0  0  0  0  0  0  0  0  0  0  0
  -12.7795   15.3343  -29.0335 N   0  0  0  0  0  0  0  0  0  0  0  0
  -11.3269   15.6053  -28.7807 C   0  0  0  0  0  0  0  0  0  0  0  0
  -10.2990   14.7553  -29.6044 C   0  0  0  0  0  0  0  0  0  0  0  0
   -9.7296   15.5312  -30.7974 C   0  0  0  0  0  0  0  0  0  0  0  0
   -8.9818   16.8024  -30.3457 C   0  0  0  0  0  0  0  0  0  0  0  0
   -9.5200   17.3968  -29.0286 C   0  0  0  0  0  0  0  0  0  0  0  0
  -11.0187   17.1274  -28.8624 C   0  0  0  0  0  0  0  0  0  0  0  0
 14 15  2  0
 15 11  1  0
 11 12  2  0
 11 13  1  0
 13  1  1  0
  1  2  2  0
  2  3  1  0
  3  4  2  0
  4  5  1  0
  5  6  2  0
  6  7  1  0
  7  8  2  0
  8 16  1  0
 16 17  1  0
 17 18  1  0
 18 19  1  0
 19 20  1  0
 20 21  1  0
 21 22  1  0
  8  9  1  0
  9 10  2  0
 10  1  1  0
  9  4  1  0
 22 17  1  0
M  CHG  1  16   1
M  END
$$$$
CHEMBL3133894_gnina_3
     RDKit          3D

 22 24  0  0  0  0  0  0  0  0999 V2000
  -16.5023   14.2554  -24.8423 C   0  0  0  0  0  0  0  0  0  0  0  0
  -15.9077   15.5003  -25.0825 C   0  0  0  0  0  0  0  0  0  0  0  0
  -14.8869   15.6267  -26.0241 C   0  0  0  0  0  0  0  0  0  0  0  0
  -14.4491   14.5107  -26.7425 C   0  0  0  0  0  0  0  0  0  0  0  0
  -13.4603   14.6550  -27.6603 N   0  0  0  0  0  0  0  0  0  0  0  0
  -13.0164   13.5986  -28.3818 C   0  0  0  0  0  0  0  0  0  0  0  0
  -13.5522   12.3689  -28.1871 N   0  0  0  0  0  0  0  0  0  0  0  0
  -14.5431   12.1456  -27.2783 C   0  0  0  0  0  0  0  0  0  0  0  0
  -15.0387   13.2425  -26.5238 C   0  0  0  0  0  0  0  0  0  0  0  0
  -16.0846   13.1357  -25.5842 C   0  0  0  0  0  0  0  0  0  0  0  0
  -17.4074   13.5464  -22.5859 C   0  0  0  0  0  0  0  0  0  0  0  0
  -16.2589   13.4362  -22.0789 O   0  0  0  0  0  0  0  0  0  0  0  0
  -17.5655   14.1560  -23.8789 N   0  0  0  0  0  0  0  0  0  0  0  0
  -18.4668   12.2738  -20.7524 C   0  0  0  0  0  0  0  0  0  0  0  0
  -18.5689   13.0905  -21.7996 C   0  0  0  0  0  0  0  0  0  0  0  0
  -15.0250   10.7900  -27.1136 N   0  0  0  0  0  0  0  0  0  0  0  0
  -16.2423   10.4130  -27.9032 C   0  0  0  0  0  0  0  0  0  0  0  0
  -15.9985    9.6463  -29.2487 C   0  0  0  0  0  0  0  0  0  0  0  0
  -16.2283    8.1376  -29.1059 C   0  0  0  0  0  0  0  0  0  0  0  0
  -17.6760    7.8198  -28.6789 C   0  0  0  0  0  0  0  0  0  0  0  0
  -18.3291    8.9375  -27.8411 C   0  0  0  0  0  0  0  0  0  0  0  0
  -17.2904    9.6937  -27.0072 C   0  0  0  0  0  0  0  0  0  0  0  0
 14 15  2  0
 15 11  1  0
 11 12  2  0
 11 13  1  0
 13  1  1  0
  1  2  2  0
  2  3  1  0
  3  4  2  0
  4  5  1  0
  5  6  2  0
  6  7  1  0
  7  8  2  0
  8 16  1  0
 16 17  1  0
 17 18  1  0
 18 19  1  0
 19 20  1  0
 20 21  1  0
 21 22  1  0
  8  9  1  0
  9 10  2  0
 10  1  1  0
  9  4  1  0
 22 17  1  0
M  CHG  1  16   1
M  END
$$$$
CHEMBL3133894_gnina_4
     RDKit          3D

 22 24  0  0  0  0  0  0  0  0999 V2000
  -13.0730   18.3286  -24.3832 C   0  0  0  0  0  0  0  0  0  0  0  0
  -13.9254   17.4954  -23.6482 C   0  0  0  0  0  0  0  0  0  0  0  0
  -14.4031   16.3077  -24.2012 C   0  0  0  0  0  0  0  0  0  0  0  0
  -14.0316   15.9338  -25.4955 C   0  0  0  0  0  0  0  0  0  0  0  0
  -14.5001   14.7705  -26.0134 N   0  0  0  0  0  0  0  0  0  0  0  0
  -14.1545   14.3709  -27.2603 C   0  0  0  0  0  0  0  0  0  0  0  0
  -13.3364   15.1406  -28.0187 N   0  0  0  0  0  0  0  0  0  0  0  0
  -12.8325   16.3246  -27.5690 C   0  0  0  0  0  0  0  0  0  0  0  0
  -13.1652   16.7546  -26.2566 C   0  0  0  0  0  0  0  0  0  0  0  0
  -12.6734   17.9413  -25.6750 C   0  0  0  0  0  0  0  0  0  0  0  0
  -13.1406   20.8374  -24.0443 C   0  0  0  0  0  0  0  0  0  0  0  0
  -14.3186   20.9374  -24.4809 O   0  0  0  0  0  0  0  0  0  0  0  0
  -12.5802   19.5389  -23.7827 N   0  0  0  0  0  0  0  0  0  0  0  0
  -12.2369   23.0560  -24.6484 C   0  0  0  0  0  0  0  0  0  0  0  0
  -12.3892   22.0745  -23.7609 C   0  0  0  0  0  0  0  0  0  0  0  0
  -11.9982   17.0959  -28.4667 N   0  0  0  0  0  0  0  0  0  0  0  0
  -11.3439   16.3413  -29.5848 C   0  0  0  0  0  0  0  0  0  0  0  0
  -10.4678   17.1778  -30.5799 C   0  0  0  0  0  0  0  0  0  0  0  0
   -8.9701   17.0543  -30.2782 C   0  0  0  0  0  0  0  0  0  0  0  0
   -8.4848   15.5945  -30.3908 C   0  0  0  0  0  0  0  0  0  0  0  0
   -9.5800   14.5565  -30.0737 C   0  0  0  0  0  0  0  0  0  0  0  0
  -10.5838   15.0946  -29.0494 C   0  0  0  0  0  0  0  0  0  0  0  0
 14 15  2  0
 15 11  1  0
 11 12  2  0
 11 13  1  0
 13  1  1  0
  1  2  2  0
  2  3  1  0
  3  4  2  0
  4  5  1  0
  5  6  2  0
  6  7  1  0
  7  8  2  0
  8 16  1  0
 16 17  1  0
 17 18  1  0
 18 19  1  0
 19 20  1  0
 20 21  1  0
 21 22  1  0
  8  9  1  0
  9 10  2  0
 10  1  1  0
  9  4  1  0
 22 17  1  0
M  CHG  1  16   1
M  END
$$$$
CHEMBL3133894_gnina_5
     RDKit          3D

 22 24  0  0  0  0  0  0  0  0999 V2000
  -15.8429   10.4926  -27.4973 C   0  0  0  0  0  0  0  0  0  0  0  0
  -15.4861    9.8558  -28.6924 C   0  0  0  0  0  0  0  0  0  0  0  0
  -16.2611    8.8118  -29.1963 C   0  0  0  0  0  0  0  0  0  0  0  0
  -17.4069    8.3925  -28.5147 C   0  0  0  0  0  0  0  0  0  0  0  0
  -18.1528    7.3804  -29.0249 N   0  0  0  0  0  0  0  0  0  0  0  0
  -19.2742    6.9533  -28.3975 C   0  0  0  0  0  0  0  0  0  0  0  0
  -19.6643    7.5299  -27.2346 N   0  0  0  0  0  0  0  0  0  0  0  0
  -18.9625    8.5464  -26.6583 C   0  0  0  0  0  0  0  0  0  0  0  0
  -17.7936    9.0246  -27.3086 C   0  0  0  0  0  0  0  0  0  0  0  0
  -17.0115   10.0931  -26.8240 C   0  0  0  0  0  0  0  0  0  0  0  0
  -15.5791   12.8468  -26.6019 C   0  0  0  0  0  0  0  0  0  0  0  0
  -16.7922   12.9347  -26.2716 O   0  0  0  0  0  0  0  0  0  0  0  0
  -15.0364   11.5786  -27.0091 N   0  0  0  0  0  0  0  0  0  0  0  0
  -15.2312   15.2837  -26.3910 C   0  0  0  0  0  0  0  0  0  0  0  0
  -14.7354   14.0526  -26.5041 C   0  0  0  0  0  0  0  0  0  0  0  0
  -19.4365    9.0723  -25.3951 N   0  0  0  0  0  0  0  0  0  0  0  0
  -19.4229    8.1279  -24.2308 C   0  0  0  0  0  0  0  0  0  0  0  0
  -18.1218    7.2764  -24.0309 C   0  0  0  0  0  0  0  0  0  0  0  0
  -17.2128    7.8545  -22.9406 C   0  0  0  0  0  0  0  0  0  0  0  0
  -17.9214    7.8965  -21.5711 C   0  0  0  0  0  0  0  0  0  0  0  0
  -19.4521    8.0504  -21.6756 C   0  0  0  0  0  0  0  0  0  0  0  0
  -19.8523    8.8476  -22.9208 C   0  0  0  0  0  0  0  0  0  0  0  0
 14 15  2  0
 15 11  1  0
 11 12  2  0
 11 13  1  0
 13  1  1  0
  1  2  2  0
  2  3  1  0
  3  4  2  0
  4  5  1  0
  5  6  2  0
  6  7  1  0
  7  8  2  0
  8 16  1  0
 16 17  1  0
 17 18  1  0
 18 19  1  0
 19 20  1  0
 20 21  1  0
 21 22  1  0
  8  9  1  0
  9 10  2  0
 10  1  1  0
  9  4  1  0
 22 17  1  0
M  CHG  1  16   1
M  END
$$$$
CHEMBL3133894_gnina_6
     RDKit          3D

 22 24  0  0  0  0  0  0  0  0999 V2000
  -15.3612   14.5085  -26.2328 C   0  0  0  0  0  0  0  0  0  0  0  0
  -14.9722   13.2383  -26.6761 C   0  0  0  0  0  0  0  0  0  0  0  0
  -13.8635   13.0886  -27.5086 C   0  0  0  0  0  0  0  0  0  0  0  0
  -13.1251   14.2065  -27.9062 C   0  0  0  0  0  0  0  0  0  0  0  0
  -12.0446   14.0399  -28.7099 N   0  0  0  0  0  0  0  0  0  0  0  0
  -11.2996   15.0983  -29.1080 C   0  0  0  0  0  0  0  0  0  0  0  0
  -11.6331   16.3514  -28.7136 N   0  0  0  0  0  0  0  0  0  0  0  0
  -12.7081   16.5973  -27.9126 C   0  0  0  0  0  0  0  0  0  0  0  0
  -13.4929   15.5006  -27.4660 C   0  0  0  0  0  0  0  0  0  0  0  0
  -14.6032   15.6327  -26.6069 C   0  0  0  0  0  0  0  0  0  0  0  0
  -16.4121   14.5231  -23.9288 C   0  0  0  0  0  0  0  0  0  0  0  0
  -15.3102   14.7147  -23.3480 O   0  0  0  0  0  0  0  0  0  0  0  0
  -16.4976   14.6332  -25.3602 N   0  0  0  0  0  0  0  0  0  0  0  0
  -18.6532   15.0591  -23.0377 C   0  0  0  0  0  0  0  0  0  0  0  0
  -17.6019   14.2439  -23.1031 C   0  0  0  0  0  0  0  0  0  0  0  0
  -13.0076   17.9735  -27.5761 N   0  0  0  0  0  0  0  0  0  0  0  0
  -13.8530   18.1948  -26.3580 C   0  0  0  0  0  0  0  0  0  0  0  0
  -13.0979   18.5690  -25.0362 C   0  0  0  0  0  0  0  0  0  0  0  0
  -13.1526   20.0725  -24.7431 C   0  0  0  0  0  0  0  0  0  0  0  0
  -14.6036   20.5670  -24.5716 C   0  0  0  0  0  0  0  0  0  0  0  0
  -15.6323   19.7435  -25.3723 C   0  0  0  0  0  0  0  0  0  0  0  0
  -15.0204   19.1777  -26.6575 C   0  0  0  0  0  0  0  0  0  0  0  0
 14 15  2  0
 15 11  1  0
 11 12  2  0
 11 13  1  0
 13  1  1  0
  1  2  2  0
  2  3  1  0
  3  4  2  0
  4  5  1  0
  5  6  2  0
  6  7  1  0
  7  8  2  0
  8 16  1  0
 16 17  1  0
 17 18  1  0
 18 19  1  0
 19 20  1  0
 20 21  1  0
 21 22  1  0
  8  9  1  0
  9 10  2  0
 10  1  1  0
  9  4  1  0
 22 17  1  0
M  CHG  1  16   1
M  END
$$$$
CHEMBL3133894_gnina_7
     RDKit          3D

 22 24  0  0  0  0  0  0  0  0999 V2000
  -12.8843   17.1773  -27.6395 C   0  0  0  0  0  0  0  0  0  0  0  0
  -11.9380   17.5718  -28.5934 C   0  0  0  0  0  0  0  0  0  0  0  0
  -11.1953   16.6185  -29.2892 C   0  0  0  0  0  0  0  0  0  0  0  0
  -11.3913   15.2566  -29.0442 C   0  0  0  0  0  0  0  0  0  0  0  0
  -10.6648   14.3437  -29.7369 N   0  0  0  0  0  0  0  0  0  0  0  0
  -10.8338   13.0156  -29.5333 C   0  0  0  0  0  0  0  0  0  0  0  0
  -11.7322   12.5769  -28.6183 N   0  0  0  0  0  0  0  0  0  0  0  0
  -12.4924   13.4340  -27.8800 C   0  0  0  0  0  0  0  0  0  0  0  0
  -12.3469   14.8314  -28.0904 C   0  0  0  0  0  0  0  0  0  0  0  0
  -13.1053   15.8071  -27.4113 C   0  0  0  0  0  0  0  0  0  0  0  0
  -13.4724   18.4918  -25.5563 C   0  0  0  0  0  0  0  0  0  0  0  0
  -12.3897   18.2020  -24.9801 O   0  0  0  0  0  0  0  0  0  0  0  0
  -13.6498   18.1802  -26.9492 N   0  0  0  0  0  0  0  0  0  0  0  0
  -15.1464   20.2803  -25.2353 C   0  0  0  0  0  0  0  0  0  0  0  0
  -14.5110   19.1998  -24.7847 C   0  0  0  0  0  0  0  0  0  0  0  0
  -13.3970   12.8716  -26.8990 N   0  0  0  0  0  0  0  0  0  0  0  0
  -14.7291   13.5442  -26.7553 C   0  0  0  0  0  0  0  0  0  0  0  0
  -15.9899   12.6127  -26.7440 C   0  0  0  0  0  0  0  0  0  0  0  0
  -16.5145   12.3647  -25.3253 C   0  0  0  0  0  0  0  0  0  0  0  0
  -16.9366   13.6786  -24.6362 C   0  0  0  0  0  0  0  0  0  0  0  0
  -16.1515   14.9108  -25.1289 C   0  0  0  0  0  0  0  0  0  0  0  0
  -14.7294   14.5358  -25.5572 C   0  0  0  0  0  0  0  0  0  0  0  0
 14 15  2  0
 15 11  1  0
 11 12  2  0
 11 13  1  0
 13  1  1  0
  1  2  2  0
  2  3  1  0
  3  4  2  0
  4  5  1  0
  5  6  2  0
  6  7  1  0
  7  8  2  0
  8 16  1  0
 16 17  1  0
 17 18  1  0
 18 19  1  0
 19 20  1  0
 20 21  1  0
 21 22  1  0
  8  9  1  0
  9 10  2  0
 10  1  1  0
  9  4  1  0
 22 17  1  0
M  CHG  1  16   1
M  END
$$$$
CHEMBL3133894_gnina_8
     RDKit          3D

 22 24  0  0  0  0  0  0  0  0999 V2000
  -13.4397   16.8525  -26.3625 C   0  0  0  0  0  0  0  0  0  0  0  0
  -12.6147   17.5086  -27.2844 C   0  0  0  0  0  0  0  0  0  0  0  0
  -11.9429   16.7874  -28.2709 C   0  0  0  0  0  0  0  0  0  0  0  0
  -12.0900   15.4000  -28.3524 C   0  0  0  0  0  0  0  0  0  0  0  0
  -11.4346   14.7165  -29.3242 N   0  0  0  0  0  0  0  0  0  0  0  0
  -11.5600   13.3732  -29.4401 C   0  0  0  0  0  0  0  0  0  0  0  0
  -12.3412   12.6857  -28.5717 N   0  0  0  0  0  0  0  0  0  0  0  0
  -13.0241   13.3026  -27.5663 C   0  0  0  0  0  0  0  0  0  0  0  0
  -12.9238   14.7138  -27.4373 C   0  0  0  0  0  0  0  0  0  0  0  0
  -13.6133   15.4600  -26.4596 C   0  0  0  0  0  0  0  0  0  0  0  0
  -13.5004   18.1527  -24.1901 C   0  0  0  0  0  0  0  0  0  0  0  0
  -12.2513   18.3189  -24.1706 O   0  0  0  0  0  0  0  0  0  0  0  0
  -14.1354   17.6221  -25.3664 N   0  0  0  0  0  0  0  0  0  0  0  0
  -13.8444   19.4526  -22.1175 C   0  0  0  0  0  0  0  0  0  0  0  0
  -14.2824   18.5661  -23.0099 C   0  0  0  0  0  0  0  0  0  0  0  0
  -13.8021   12.4790  -26.6645 N   0  0  0  0  0  0  0  0  0  0  0  0
  -15.2627   12.3444  -26.9745 C   0  0  0  0  0  0  0  0  0  0  0  0
  -15.8179   10.8864  -27.1280 C   0  0  0  0  0  0  0  0  0  0  0  0
  -16.5453   10.4075  -25.8668 C   0  0  0  0  0  0  0  0  0  0  0  0
  -17.7564   11.3025  -25.5330 C   0  0  0  0  0  0  0  0  0  0  0  0
  -17.5927   12.7603  -26.0081 C   0  0  0  0  0  0  0  0  0  0  0  0
  -16.1234   13.1930  -25.9959 C   0  0  0  0  0  0  0  0  0  0  0  0
 14 15  2  0
 15 11  1  0
 11 12  2  0
 11 13  1  0
 13  1  1  0
  1  2  2  0
  2  3  1  0
  3  4  2  0
  4  5  1  0
  5  6  2  0
  6  7  1  0
  7  8  2  0
  8 16  1  0
 16 17  1  0
 17 18  1  0
 18 19  1  0
 19 20  1  0
 20 21  1  0
 21 22  1  0
  8  9  1  0
  9 10  2  0
 10  1  1  0
  9  4  1  0
 22 17  1  0
M  CHG  1  16   1
M  END
$$$$
CHEMBL3133894_gnina_9
     RDKit          3D

 22 24  0  0  0  0  0  0  0  0999 V2000
  -13.0541   17.2821  -26.3818 C   0  0  0  0  0  0  0  0  0  0  0  0
  -12.1346   17.5431  -27.4053 C   0  0  0  0  0  0  0  0  0  0  0  0
  -11.7750   16.5408  -28.3056 C   0  0  0  0  0  0  0  0  0  0  0  0
  -12.3333   15.2641  -28.1983 C   0  0  0  0  0  0  0  0  0  0  0  0
  -11.9771   14.3042  -29.0887 N   0  0  0  0  0  0  0  0  0  0  0  0
  -12.5039   13.0585  -29.0218 C   0  0  0  0  0  0  0  0  0  0  0  0
  -13.3947   12.7482  -28.0485 N   0  0  0  0  0  0  0  0  0  0  0  0
  -13.7946   13.6575  -27.1152 C   0  0  0  0  0  0  0  0  0  0  0  0
  -13.2706   14.9765  -27.1773 C   0  0  0  0  0  0  0  0  0  0  0  0
  -13.6402   16.0068  -26.2885 C   0  0  0  0  0  0  0  0  0  0  0  0
  -14.1849   19.4907  -25.8752 C   0  0  0  0  0  0  0  0  0  0  0  0
  -14.9041   19.4423  -26.9091 O   0  0  0  0  0  0  0  0  0  0  0  0
  -13.4214   18.3385  -25.4777 N   0  0  0  0  0  0  0  0  0  0  0  0
  -13.1041   21.4475  -24.8232 C   0  0  0  0  0  0  0  0  0  0  0  0
  -14.1962   20.7257  -25.0690 C   0  0  0  0  0  0  0  0  0  0  0  0
  -14.7206   13.2215  -26.0908 N   0  0  0  0  0  0  0  0  0  0  0  0
  -15.9960   12.5933  -26.5665 C   0  0  0  0  0  0  0  0  0  0  0  0
  -16.0273   11.0273  -26.6313 C   0  0  0  0  0  0  0  0  0  0  0  0
  -16.7500   10.4118  -25.4279 C   0  0  0  0  0  0  0  0  0  0  0  0
  -18.2192   10.8746  -25.3479 C   0  0  0  0  0  0  0  0  0  0  0  0
  -18.4569   12.2731  -25.9524 C   0  0  0  0  0  0  0  0  0  0  0  0
  -17.2223   13.1670  -25.8014 C   0  0  0  0  0  0  0  0  0  0  0  0
 14 15  2  0
 15 11  1  0
 11 12  2  0
 11 13  1  0
 13  1  1  0
  1  2  2  0
  2  3  1  0
  3  4  2  0
  4  5  1  0
  5  6  2  0
  6  7  1  0
  7  8  2  0
  8 16  1  0
 16 17  1  0
 17 18  1  0
 18 19  1  0
 19 20  1  0
 20 21  1  0
 21 22  1  0
  8  9  1  0
  9 10  2  0
 10  1  1  0
  9  4  1  0
 22 17  1  0
M  CHG  1  16   1
M  END
$$$$
CHEMBL3133894_gnina_10
     RDKit          3D

 22 24  0  0  0  0  0  0  0  0999 V2000
  -16.3186   10.6104  -27.1189 C   0  0  0  0  0  0  0  0  0  0  0  0
  -17.5077   10.7587  -26.3943 C   0  0  0  0  0  0  0  0  0  0  0  0
  -17.7348   11.9058  -25.6347 C   0  0  0  0  0  0  0  0  0  0  0  0
  -16.7778   12.9235  -25.5923 C   0  0  0  0  0  0  0  0  0  0  0  0
  -17.0203   14.0358  -24.8541 N   0  0  0  0  0  0  0  0  0  0  0  0
  -16.1208   15.0464  -24.7964 C   0  0  0  0  0  0  0  0  0  0  0  0
  -14.9503   14.9544  -25.4736 N   0  0  0  0  0  0  0  0  0  0  0  0
  -14.6341   13.8655  -26.2299 C   0  0  0  0  0  0  0  0  0  0  0  0
  -15.5708   12.8015  -26.3216 C   0  0  0  0  0  0  0  0  0  0  0  0
  -15.3660   11.6452  -27.1022 C   0  0  0  0  0  0  0  0  0  0  0  0
  -17.1954    8.6458  -28.4547 C   0  0  0  0  0  0  0  0  0  0  0  0
  -18.3313    9.1680  -28.6141 O   0  0  0  0  0  0  0  0  0  0  0  0
  -16.1173    9.4255  -27.9086 N   0  0  0  0  0  0  0  0  0  0  0  0
  -15.9501    6.8552  -29.6153 C   0  0  0  0  0  0  0  0  0  0  0  0
  -16.9960    7.2513  -28.8920 C   0  0  0  0  0  0  0  0  0  0  0  0
  -13.3430   13.8418  -26.8853 N   0  0  0  0  0  0  0  0  0  0  0  0
  -13.1543   14.7978  -28.0246 C   0  0  0  0  0  0  0  0  0  0  0  0
  -13.2559   16.3250  -27.6855 C   0  0  0  0  0  0  0  0  0  0  0  0
  -11.8775   16.9819  -27.5519 C   0  0  0  0  0  0  0  0  0  0  0  0
  -11.0678   16.8785  -28.8608 C   0  0  0  0  0  0  0  0  0  0  0  0
  -11.4229   15.6392  -29.7069 C   0  0  0  0  0  0  0  0  0  0  0  0
  -11.8637   14.4660  -28.8263 C   0  0  0  0  0  0  0  0  0  0  0  0
 14 15  2  0
 15 11  1  0
 11 12  2  0
 11 13  1  0
 13  1  1  0
  1  2  2  0
  2  3  1  0
  3  4  2  0
  4  5  1  0
  5  6  2  0
  6  7  1  0
  7  8  2  0
  8 16  1  0
 16 17  1  0
 17 18  1  0
 18 19  1  0
 19 20  1  0
 20 21  1  0
 21 22  1  0
  8  9  1  0
  9 10  2  0
 10  1  1  0
  9  4  1  0
 22 17  1  0
M  CHG  1  16   1
M  END
$$$$
CHEMBL460721_gnina_1
     RDKit          3D

 34 36  0  0  0  0  0  0  0  0999 V2000
  -14.7640   13.9637  -26.6225 C   0  0  0  0  0  0  0  0  0  0  0  0
  -14.4506   12.6771  -26.9411 N   0  0  0  0  0  0  0  0  0  0  0  0
  -13.3939   12.3629  -27.7342 C   0  0  0  0  0  0  0  0  0  0  0  0
  -12.5992   13.3751  -28.2753 C   0  0  0  0  0  0  0  0  0  0  0  0
  -11.5342   13.0624  -29.0575 N   0  0  0  0  0  0  0  0  0  0  0  0
  -10.7412   14.0343  -29.5746 C   0  0  0  0  0  0  0  0  0  0  0  0
  -11.0102   15.3404  -29.3222 N   0  0  0  0  0  0  0  0  0  0  0  0
  -12.0765   15.7174  -28.5685 C   0  0  0  0  0  0  0  0  0  0  0  0
  -12.9031   14.7230  -27.9952 C   0  0  0  0  0  0  0  0  0  0  0  0
  -13.9887   15.0130  -27.1510 C   0  0  0  0  0  0  0  0  0  0  0  0
  -12.2857   17.1183  -28.3325 N   0  0  0  0  0  0  0  0  0  0  0  0
  -12.6379   17.6809  -27.0553 C   0  0  0  0  0  0  0  0  0  0  0  0
  -11.9804   17.2936  -25.8717 C   0  0  0  0  0  0  0  0  0  0  0  0
  -12.3166   17.8892  -24.6524 C   0  0  0  0  0  0  0  0  0  0  0  0
  -13.3094   18.8705  -24.6004 C   0  0  0  0  0  0  0  0  0  0  0  0
  -13.9840   19.2441  -25.7677 C   0  0  0  0  0  0  0  0  0  0  0  0
  -15.3358   20.5920  -25.6987 Br  0  0  0  0  0  0  0  0  0  0  0  0
  -13.6523   18.6482  -26.9886 C   0  0  0  0  0  0  0  0  0  0  0  0
  -16.0092   14.2154  -25.8075 C   0  0  0  0  0  0  0  0  0  0  0  0
  -15.7440   14.8740  -24.4824 C   0  0  0  0  0  0  0  0  0  0  0  0
  -14.5526   15.0065  -24.0939 O   0  0  0  0  0  0  0  0  0  0  0  0
  -17.5305   14.4439  -22.7801 C   0  0  0  0  0  0  0  0  0  0  0  0
  -16.8711   15.2669  -23.6094 C   0  0  0  0  0  0  0  0  0  0  0  0
  -17.1016   13.0799  -22.4208 C   0  0  0  0  0  0  0  0  0  0  0  0
  -16.0938   12.9372  -21.6788 O   0  0  0  0  0  0  0  0  0  0  0  0
  -17.7548   11.9306  -22.9834 N   0  0  0  0  0  0  0  0  0  0  0  0
  -17.3944   10.5558  -22.6354 C   0  0  0  0  0  0  0  0  0  0  0  0
  -17.1952    9.7110  -23.8970 C   0  0  0  0  0  0  0  0  0  0  0  0
  -17.3167    8.2084  -23.6089 C   0  0  0  0  0  0  0  0  0  0  0  0
  -17.8250    7.9876  -22.2384 N   0  0  0  0  0  0  0  0  0  0  0  0
  -17.0048    7.0280  -21.4623 C   0  0  0  0  0  0  0  0  0  0  0  0
  -16.2404    7.6662  -20.2897 C   0  0  0  0  0  0  0  0  0  0  0  0
  -19.2730    7.6722  -22.1961 C   0  0  0  0  0  0  0  0  0  0  0  0
  -19.8171    7.9596  -20.8027 C   0  0  0  0  0  0  0  0  0  0  0  0
 22 24  1  0
 24 25  2  0
 24 26  1  0
 26 27  1  0
 27 28  1  0
 28 29  1  0
 29 30  1  0
 30 31  1  0
 31 32  1  0
 30 33  1  0
 33 34  1  0
 22 23  2  0
 23 20  1  0
 20 21  2  0
 20 19  1  0
 19  1  1  0
  1  2  2  0
  2  3  1  0
  3  4  2  0
  4  5  1  0
  5  6  2  0
  6  7  1  0
  7  8  2  0
  8 11  1  0
 11 12  1  0
 12 13  2  0
 13 14  1  0
 14 15  2  0
 15 16  1  0
 16 17  1  0
 16 18  2  0
  8  9  1  0
  9 10  2  0
 10  1  1  0
  9  4  1  0
 18 12  1  0
M  END
$$$$
CHEMBL460721_gnina_2
     RDKit          3D

 34 36  0  0  0  0  0  0  0  0999 V2000
  -15.1432   14.0826  -26.3433 C   0  0  0  0  0  0  0  0  0  0  0  0
  -14.9429   12.7595  -26.5968 N   0  0  0  0  0  0  0  0  0  0  0  0
  -13.9248   12.3168  -27.3789 C   0  0  0  0  0  0  0  0  0  0  0  0
  -13.0530   13.2289  -27.9763 C   0  0  0  0  0  0  0  0  0  0  0  0
  -12.0263   12.7875  -28.7476 N   0  0  0  0  0  0  0  0  0  0  0  0
  -11.1594   13.6610  -29.3189 C   0  0  0  0  0  0  0  0  0  0  0  0
  -11.3145   14.9964  -29.1327 N   0  0  0  0  0  0  0  0  0  0  0  0
  -12.3374   15.5005  -28.3931 C   0  0  0  0  0  0  0  0  0  0  0  0
  -13.2391   14.6103  -27.7643 C   0  0  0  0  0  0  0  0  0  0  0  0
  -14.2875   15.0340  -26.9298 C   0  0  0  0  0  0  0  0  0  0  0  0
  -12.4250   16.9243  -28.2285 N   0  0  0  0  0  0  0  0  0  0  0  0
  -12.7167   17.5790  -26.9803 C   0  0  0  0  0  0  0  0  0  0  0  0
  -11.9752   17.3084  -25.8140 C   0  0  0  0  0  0  0  0  0  0  0  0
  -12.2556   17.9918  -24.6271 C   0  0  0  0  0  0  0  0  0  0  0  0
  -13.2756   18.9454  -24.5901 C   0  0  0  0  0  0  0  0  0  0  0  0
  -14.0328   19.2032  -25.7379 C   0  0  0  0  0  0  0  0  0  0  0  0
  -15.4221   20.5133  -25.6904 Br  0  0  0  0  0  0  0  0  0  0  0  0
  -13.7569   18.5193  -26.9261 C   0  0  0  0  0  0  0  0  0  0  0  0
  -16.3543   14.4804  -25.5348 C   0  0  0  0  0  0  0  0  0  0  0  0
  -16.0200   15.1399  -24.2260 C   0  0  0  0  0  0  0  0  0  0  0  0
  -14.9783   14.7852  -23.6119 O   0  0  0  0  0  0  0  0  0  0  0  0
  -18.1350   15.8133  -23.0653 C   0  0  0  0  0  0  0  0  0  0  0  0
  -16.9546   16.1164  -23.6262 C   0  0  0  0  0  0  0  0  0  0  0  0
  -18.5938   14.4509  -22.7386 C   0  0  0  0  0  0  0  0  0  0  0  0
  -19.5638   13.9678  -23.3806 O   0  0  0  0  0  0  0  0  0  0  0  0
  -18.0155   13.7221  -21.6438 N   0  0  0  0  0  0  0  0  0  0  0  0
  -18.4070   12.3554  -21.2975 C   0  0  0  0  0  0  0  0  0  0  0  0
  -17.2212   11.3975  -21.4441 C   0  0  0  0  0  0  0  0  0  0  0  0
  -17.6594    9.9273  -21.3968 C   0  0  0  0  0  0  0  0  0  0  0  0
  -17.2329    9.2245  -22.6255 N   0  0  0  0  0  0  0  0  0  0  0  0
  -17.9792    9.6566  -23.8306 C   0  0  0  0  0  0  0  0  0  0  0  0
  -17.0830   10.1875  -24.9625 C   0  0  0  0  0  0  0  0  0  0  0  0
  -17.1933    7.7505  -22.4715 C   0  0  0  0  0  0  0  0  0  0  0  0
  -17.8809    7.3548  -21.1711 C   0  0  0  0  0  0  0  0  0  0  0  0
 22 24  1  0
 24 25  2  0
 24 26  1  0
 26 27  1  0
 27 28  1  0
 28 29  1  0
 29 30  1  0
 30 31  1  0
 31 32  1  0
 30 33  1  0
 33 34  1  0
 22 23  2  0
 23 20  1  0
 20 21  2  0
 20 19  1  0
 19  1  1  0
  1  2  2  0
  2  3  1  0
  3  4  2  0
  4  5  1  0
  5  6  2  0
  6  7  1  0
  7  8  2  0
  8 11  1  0
 11 12  1  0
 12 13  2  0
 13 14  1  0
 14 15  2  0
 15 16  1  0
 16 17  1  0
 16 18  2  0
  8  9  1  0
  9 10  2  0
 10  1  1  0
  9  4  1  0
 18 12  1  0
M  END
$$$$
CHEMBL460721_gnina_3
     RDKit          3D

 34 36  0  0  0  0  0  0  0  0999 V2000
  -14.9746   13.3013  -26.8359 C   0  0  0  0  0  0  0  0  0  0  0  0
  -14.0402   12.5861  -27.5217 N   0  0  0  0  0  0  0  0  0  0  0  0
  -12.9714   13.1737  -28.1189 C   0  0  0  0  0  0  0  0  0  0  0  0
  -12.8133   14.5597  -28.0647 C   0  0  0  0  0  0  0  0  0  0  0  0
  -11.7382   15.1476  -28.6497 N   0  0  0  0  0  0  0  0  0  0  0  0
  -11.5608   16.4914  -28.5887 C   0  0  0  0  0  0  0  0  0  0  0  0
  -12.4672   17.2706  -27.9458 N   0  0  0  0  0  0  0  0  0  0  0  0
  -13.5767   16.7440  -27.3635 C   0  0  0  0  0  0  0  0  0  0  0  0
  -13.7713   15.3432  -27.3892 C   0  0  0  0  0  0  0  0  0  0  0  0
  -14.8524   14.7016  -26.7610 C   0  0  0  0  0  0  0  0  0  0  0  0
  -14.4808   17.6317  -26.6878 N   0  0  0  0  0  0  0  0  0  0  0  0
  -14.1583   18.3562  -25.4867 C   0  0  0  0  0  0  0  0  0  0  0  0
  -14.1986   17.7412  -24.2204 C   0  0  0  0  0  0  0  0  0  0  0  0
  -13.8389   18.4603  -23.0767 C   0  0  0  0  0  0  0  0  0  0  0  0
  -13.4401   19.7948  -23.1828 C   0  0  0  0  0  0  0  0  0  0  0  0
  -13.4201   20.4204  -24.4341 C   0  0  0  0  0  0  0  0  0  0  0  0
  -12.8666   22.2428  -24.5811 Br  0  0  0  0  0  0  0  0  0  0  0  0
  -13.7821   19.7049  -25.5798 C   0  0  0  0  0  0  0  0  0  0  0  0
  -16.1726   12.5679  -26.2833 C   0  0  0  0  0  0  0  0  0  0  0  0
  -16.0867   11.0737  -26.4233 C   0  0  0  0  0  0  0  0  0  0  0  0
  -16.0056   10.3665  -25.3834 O   0  0  0  0  0  0  0  0  0  0  0  0
  -16.7614    9.4437  -28.2015 C   0  0  0  0  0  0  0  0  0  0  0  0
  -15.9986   10.4571  -27.7645 C   0  0  0  0  0  0  0  0  0  0  0  0
  -17.9637    8.9317  -27.5190 C   0  0  0  0  0  0  0  0  0  0  0  0
  -19.0720    9.4850  -27.7471 O   0  0  0  0  0  0  0  0  0  0  0  0
  -17.8642    7.8882  -26.5365 N   0  0  0  0  0  0  0  0  0  0  0  0
  -19.0268    7.3183  -25.8549 C   0  0  0  0  0  0  0  0  0  0  0  0
  -18.7323    7.1026  -24.3677 C   0  0  0  0  0  0  0  0  0  0  0  0
  -17.9587    8.2794  -23.7573 C   0  0  0  0  0  0  0  0  0  0  0  0
  -17.7695    8.0721  -22.3059 N   0  0  0  0  0  0  0  0  0  0  0  0
  -17.5400    9.3342  -21.5640 C   0  0  0  0  0  0  0  0  0  0  0  0
  -17.9343   10.5986  -22.3467 C   0  0  0  0  0  0  0  0  0  0  0  0
  -16.7643    7.0290  -21.9908 C   0  0  0  0  0  0  0  0  0  0  0  0
  -16.3169    7.1728  -20.5419 C   0  0  0  0  0  0  0  0  0  0  0  0
 22 24  1  0
 24 25  2  0
 24 26  1  0
 26 27  1  0
 27 28  1  0
 28 29  1  0
 29 30  1  0
 30 31  1  0
 31 32  1  0
 30 33  1  0
 33 34  1  0
 22 23  2  0
 23 20  1  0
 20 21  2  0
 20 19  1  0
 19  1  1  0
  1  2  2  0
  2  3  1  0
  3  4  2  0
  4  5  1  0
  5  6  2  0
  6  7  1  0
  7  8  2  0
  8 11  1  0
 11 12  1  0
 12 13  2  0
 13 14  1  0
 14 15  2  0
 15 16  1  0
 16 17  1  0
 16 18  2  0
  8  9  1  0
  9 10  2  0
 10  1  1  0
  9  4  1  0
 18 12  1  0
M  END
$$$$
CHEMBL460721_gnina_4
     RDKit          3D

 34 36  0  0  0  0  0  0  0  0999 V2000
  -15.0411   13.3109  -26.7652 C   0  0  0  0  0  0  0  0  0  0  0  0
  -14.0461   12.6053  -27.3711 N   0  0  0  0  0  0  0  0  0  0  0  0
  -12.9619   13.2083  -27.9236 C   0  0  0  0  0  0  0  0  0  0  0  0
  -12.8497   14.5997  -27.9058 C   0  0  0  0  0  0  0  0  0  0  0  0
  -11.7599   15.2037  -28.4458 N   0  0  0  0  0  0  0  0  0  0  0  0
  -11.6275   16.5537  -28.4188 C   0  0  0  0  0  0  0  0  0  0  0  0
  -12.5939   17.3228  -27.8562 N   0  0  0  0  0  0  0  0  0  0  0  0
  -13.7196   16.7790  -27.3230 C   0  0  0  0  0  0  0  0  0  0  0  0
  -13.8696   15.3724  -27.3139 C   0  0  0  0  0  0  0  0  0  0  0  0
  -14.9663   14.7161  -26.7294 C   0  0  0  0  0  0  0  0  0  0  0  0
  -14.6891   17.6575  -26.7310 N   0  0  0  0  0  0  0  0  0  0  0  0
  -14.3651   18.7312  -25.8289 C   0  0  0  0  0  0  0  0  0  0  0  0
  -14.0721   20.0263  -26.2980 C   0  0  0  0  0  0  0  0  0  0  0  0
  -13.8025   21.0582  -25.3942 C   0  0  0  0  0  0  0  0  0  0  0  0
  -13.8191   20.8100  -24.0197 C   0  0  0  0  0  0  0  0  0  0  0  0
  -14.0857   19.5208  -23.5459 C   0  0  0  0  0  0  0  0  0  0  0  0
  -14.1170   19.1825  -21.6661 Br  0  0  0  0  0  0  0  0  0  0  0  0
  -14.3530   18.4856  -24.4473 C   0  0  0  0  0  0  0  0  0  0  0  0
  -16.2470   12.5567  -26.2599 C   0  0  0  0  0  0  0  0  0  0  0  0
  -16.1341   11.0648  -26.4052 C   0  0  0  0  0  0  0  0  0  0  0  0
  -16.0127   10.3577  -25.3691 O   0  0  0  0  0  0  0  0  0  0  0  0
  -16.8029    9.4095  -28.1622 C   0  0  0  0  0  0  0  0  0  0  0  0
  -16.0666   10.4523  -27.7495 C   0  0  0  0  0  0  0  0  0  0  0  0
  -17.9605    8.8503  -27.4405 C   0  0  0  0  0  0  0  0  0  0  0  0
  -19.1173    9.2282  -27.7652 O   0  0  0  0  0  0  0  0  0  0  0  0
  -17.7745    7.9679  -26.3221 N   0  0  0  0  0  0  0  0  0  0  0  0
  -18.8858    7.3564  -25.5926 C   0  0  0  0  0  0  0  0  0  0  0  0
  -18.5431    7.2065  -24.1076 C   0  0  0  0  0  0  0  0  0  0  0  0
  -18.8193    8.4946  -23.3200 C   0  0  0  0  0  0  0  0  0  0  0  0
  -17.6909    8.7942  -22.4132 N   0  0  0  0  0  0  0  0  0  0  0  0
  -17.7020    7.9715  -21.1807 C   0  0  0  0  0  0  0  0  0  0  0  0
  -16.4066    7.1742  -20.9510 C   0  0  0  0  0  0  0  0  0  0  0  0
  -17.5321   10.2420  -22.1366 C   0  0  0  0  0  0  0  0  0  0  0  0
  -18.0140   10.5474  -20.7243 C   0  0  0  0  0  0  0  0  0  0  0  0
 22 24  1  0
 24 25  2  0
 24 26  1  0
 26 27  1  0
 27 28  1  0
 28 29  1  0
 29 30  1  0
 30 31  1  0
 31 32  1  0
 30 33  1  0
 33 34  1  0
 22 23  2  0
 23 20  1  0
 20 21  2  0
 20 19  1  0
 19  1  1  0
  1  2  2  0
  2  3  1  0
  3  4  2  0
  4  5  1  0
  5  6  2  0
  6  7  1  0
  7  8  2  0
  8 11  1  0
 11 12  1  0
 12 13  2  0
 13 14  1  0
 14 15  2  0
 15 16  1  0
 16 17  1  0
 16 18  2  0
  8  9  1  0
  9 10  2  0
 10  1  1  0
  9  4  1  0
 18 12  1  0
M  END
$$$$
CHEMBL460721_gnina_5
     RDKit          3D

 34 36  0  0  0  0  0  0  0  0999 V2000
  -13.2082   17.4035  -27.1568 C   0  0  0  0  0  0  0  0  0  0  0  0
  -12.1315   17.4851  -27.9869 N   0  0  0  0  0  0  0  0  0  0  0  0
  -11.6224   16.3991  -28.6237 C   0  0  0  0  0  0  0  0  0  0  0  0
  -12.1874   15.1389  -28.4195 C   0  0  0  0  0  0  0  0  0  0  0  0
  -11.6883   14.0540  -29.0658 N   0  0  0  0  0  0  0  0  0  0  0  0
  -12.2390   12.8262  -28.8925 C   0  0  0  0  0  0  0  0  0  0  0  0
  -13.2971   12.6648  -28.0578 N   0  0  0  0  0  0  0  0  0  0  0  0
  -13.8245   13.7071  -27.3632 C   0  0  0  0  0  0  0  0  0  0  0  0
  -13.2862   15.0023  -27.5467 C   0  0  0  0  0  0  0  0  0  0  0  0
  -13.8042   16.1500  -26.9224 C   0  0  0  0  0  0  0  0  0  0  0  0
  -14.9543   13.4597  -26.5122 N   0  0  0  0  0  0  0  0  0  0  0  0
  -15.7669   12.2731  -26.5692 C   0  0  0  0  0  0  0  0  0  0  0  0
  -16.8180   12.0538  -25.6579 C   0  0  0  0  0  0  0  0  0  0  0  0
  -17.6163   10.9112  -25.7657 C   0  0  0  0  0  0  0  0  0  0  0  0
  -17.3741    9.9781  -26.7765 C   0  0  0  0  0  0  0  0  0  0  0  0
  -16.3170   10.1763  -27.6714 C   0  0  0  0  0  0  0  0  0  0  0  0
  -15.9905    8.9051  -29.0593 Br  0  0  0  0  0  0  0  0  0  0  0  0
  -15.5147   11.3167  -27.5647 C   0  0  0  0  0  0  0  0  0  0  0  0
  -13.6443   18.6504  -26.4266 C   0  0  0  0  0  0  0  0  0  0  0  0
  -14.4774   18.3782  -25.2053 C   0  0  0  0  0  0  0  0  0  0  0  0
  -13.9294   17.8609  -24.1952 O   0  0  0  0  0  0  0  0  0  0  0  0
  -16.7566   18.5154  -24.1755 C   0  0  0  0  0  0  0  0  0  0  0  0
  -15.9355   18.6232  -25.2309 C   0  0  0  0  0  0  0  0  0  0  0  0
  -16.3219   18.3688  -22.7744 C   0  0  0  0  0  0  0  0  0  0  0  0
  -16.6426   17.3251  -22.1464 O   0  0  0  0  0  0  0  0  0  0  0  0
  -15.6321   19.4348  -22.1022 N   0  0  0  0  0  0  0  0  0  0  0  0
  -15.1472   19.3307  -20.7256 C   0  0  0  0  0  0  0  0  0  0  0  0
  -16.2006   19.8423  -19.7389 C   0  0  0  0  0  0  0  0  0  0  0  0
  -16.6689   21.2631  -20.0820 C   0  0  0  0  0  0  0  0  0  0  0  0
  -16.5258   22.1488  -18.9070 N   0  0  0  0  0  0  0  0  0  0  0  0
  -15.8171   21.5041  -17.7765 C   0  0  0  0  0  0  0  0  0  0  0  0
  -14.5564   22.2577  -17.3192 C   0  0  0  0  0  0  0  0  0  0  0  0
  -17.7997   22.7873  -18.4981 C   0  0  0  0  0  0  0  0  0  0  0  0
  -18.8281   22.6326  -19.6110 C   0  0  0  0  0  0  0  0  0  0  0  0
 22 24  1  0
 24 25  2  0
 24 26  1  0
 26 27  1  0
 27 28  1  0
 28 29  1  0
 29 30  1  0
 30 31  1  0
 31 32  1  0
 30 33  1  0
 33 34  1  0
 22 23  2  0
 23 20  1  0
 20 21  2  0
 20 19  1  0
 19  1  1  0
  1  2  2  0
  2  3  1  0
  3  4  2  0
  4  5  1  0
  5  6  2  0
  6  7  1  0
  7  8  2  0
  8 11  1  0
 11 12  1  0
 12 13  2  0
 13 14  1  0
 14 15  2  0
 15 16  1  0
 16 17  1  0
 16 18  2  0
  8  9  1  0
  9 10  2  0
 10  1  1  0
  9  4  1  0
 18 12  1  0
M  END
$$$$
CHEMBL460721_gnina_6
     RDKit          3D

 34 36  0  0  0  0  0  0  0  0999 V2000
  -13.8213   17.0881  -27.5348 C   0  0  0  0  0  0  0  0  0  0  0  0
  -12.6948   17.6526  -28.0520 N   0  0  0  0  0  0  0  0  0  0  0  0
  -11.6948   16.9107  -28.5941 C   0  0  0  0  0  0  0  0  0  0  0  0
  -11.7872   15.5179  -28.6128 C   0  0  0  0  0  0  0  0  0  0  0  0
  -10.7945   14.7751  -29.1665 N   0  0  0  0  0  0  0  0  0  0  0  0
  -10.8791   13.4216  -29.2095 C   0  0  0  0  0  0  0  0  0  0  0  0
  -11.9604   12.7888  -28.6875 N   0  0  0  0  0  0  0  0  0  0  0  0
  -12.9738   13.4754  -28.0968 C   0  0  0  0  0  0  0  0  0  0  0  0
  -12.9229   14.8886  -28.0632 C   0  0  0  0  0  0  0  0  0  0  0  0
  -13.9509   15.6864  -27.5321 C   0  0  0  0  0  0  0  0  0  0  0  0
  -14.0919   12.7358  -27.5824 N   0  0  0  0  0  0  0  0  0  0  0  0
  -14.9603   13.2047  -26.5346 C   0  0  0  0  0  0  0  0  0  0  0  0
  -14.4881   14.0380  -25.5023 C   0  0  0  0  0  0  0  0  0  0  0  0
  -15.3657   14.5112  -24.5224 C   0  0  0  0  0  0  0  0  0  0  0  0
  -16.7165   14.1575  -24.5597 C   0  0  0  0  0  0  0  0  0  0  0  0
  -17.1893   13.3108  -25.5682 C   0  0  0  0  0  0  0  0  0  0  0  0
  -19.0381   12.8337  -25.6248 Br  0  0  0  0  0  0  0  0  0  0  0  0
  -16.3135   12.8333  -26.5483 C   0  0  0  0  0  0  0  0  0  0  0  0
  -14.8352   17.9907  -26.8749 C   0  0  0  0  0  0  0  0  0  0  0  0
  -14.8223   17.9219  -25.3734 C   0  0  0  0  0  0  0  0  0  0  0  0
  -15.9174   17.9586  -24.7509 O   0  0  0  0  0  0  0  0  0  0  0  0
  -12.8286   19.0017  -24.3089 C   0  0  0  0  0  0  0  0  0  0  0  0
  -13.5375   17.9124  -24.6412 C   0  0  0  0  0  0  0  0  0  0  0  0
  -13.3141   20.3907  -24.4027 C   0  0  0  0  0  0  0  0  0  0  0  0
  -13.4015   20.9266  -25.5392 O   0  0  0  0  0  0  0  0  0  0  0  0
  -13.5882   21.1562  -23.2184 N   0  0  0  0  0  0  0  0  0  0  0  0
  -14.1049   22.5248  -23.2527 C   0  0  0  0  0  0  0  0  0  0  0  0
  -15.6344   22.5295  -23.1765 C   0  0  0  0  0  0  0  0  0  0  0  0
  -16.1484   21.8843  -21.8822 C   0  0  0  0  0  0  0  0  0  0  0  0
  -17.1191   20.8134  -22.1924 N   0  0  0  0  0  0  0  0  0  0  0  0
  -16.6788   19.4775  -21.7261 C   0  0  0  0  0  0  0  0  0  0  0  0
  -15.5114   19.5195  -20.7251 C   0  0  0  0  0  0  0  0  0  0  0  0
  -17.5553   20.8129  -23.6093 C   0  0  0  0  0  0  0  0  0  0  0  0
  -18.8231   19.9808  -23.7524 C   0  0  0  0  0  0  0  0  0  0  0  0
 22 24  1  0
 24 25  2  0
 24 26  1  0
 26 27  1  0
 27 28  1  0
 28 29  1  0
 29 30  1  0
 30 31  1  0
 31 32  1  0
 30 33  1  0
 33 34  1  0
 22 23  2  0
 23 20  1  0
 20 21  2  0
 20 19  1  0
 19  1  1  0
  1  2  2  0
  2  3  1  0
  3  4  2  0
  4  5  1  0
  5  6  2  0
  6  7  1  0
  7  8  2  0
  8 11  1  0
 11 12  1  0
 12 13  2  0
 13 14  1  0
 14 15  2  0
 15 16  1  0
 16 17  1  0
 16 18  2  0
  8  9  1  0
  9 10  2  0
 10  1  1  0
  9  4  1  0
 18 12  1  0
M  END
$$$$
CHEMBL460721_gnina_7
     RDKit          3D

 34 36  0  0  0  0  0  0  0  0999 V2000
  -14.0415   17.6412  -27.0838 C   0  0  0  0  0  0  0  0  0  0  0  0
  -12.8690   17.7491  -27.7684 N   0  0  0  0  0  0  0  0  0  0  0  0
  -12.1743   16.6623  -28.1932 C   0  0  0  0  0  0  0  0  0  0  0  0
  -12.6424   15.3777  -27.9110 C   0  0  0  0  0  0  0  0  0  0  0  0
  -11.9563   14.2900  -28.3466 N   0  0  0  0  0  0  0  0  0  0  0  0
  -12.4089   13.0355  -28.0968 C   0  0  0  0  0  0  0  0  0  0  0  0
  -13.5562   12.8514  -27.3954 N   0  0  0  0  0  0  0  0  0  0  0  0
  -14.2732   13.8993  -26.9107 C   0  0  0  0  0  0  0  0  0  0  0  0
  -13.8377   15.2178  -27.1805 C   0  0  0  0  0  0  0  0  0  0  0  0
  -14.5452   16.3631  -26.7768 C   0  0  0  0  0  0  0  0  0  0  0  0
  -15.4856   13.6240  -26.1921 N   0  0  0  0  0  0  0  0  0  0  0  0
  -16.1587   12.3518  -26.1964 C   0  0  0  0  0  0  0  0  0  0  0  0
  -17.0582   11.9893  -25.1753 C   0  0  0  0  0  0  0  0  0  0  0  0
  -17.7285   10.7637  -25.2299 C   0  0  0  0  0  0  0  0  0  0  0  0
  -17.5075    9.8894  -26.2967 C   0  0  0  0  0  0  0  0  0  0  0  0
  -16.5977   10.2314  -27.3030 C   0  0  0  0  0  0  0  0  0  0  0  0
  -16.3014    9.0401  -28.7667 Br  0  0  0  0  0  0  0  0  0  0  0  0
  -15.9233   11.4553  -27.2500 C   0  0  0  0  0  0  0  0  0  0  0  0
  -14.6928   18.9051  -26.5775 C   0  0  0  0  0  0  0  0  0  0  0  0
  -13.8804   19.6341  -25.5439 C   0  0  0  0  0  0  0  0  0  0  0  0
  -13.8730   20.8943  -25.5503 O   0  0  0  0  0  0  0  0  0  0  0  0
  -13.3587   18.5641  -23.3401 C   0  0  0  0  0  0  0  0  0  0  0  0
  -13.0272   18.8787  -24.6014 C   0  0  0  0  0  0  0  0  0  0  0  0
  -14.7053   18.7054  -22.7567 C   0  0  0  0  0  0  0  0  0  0  0  0
  -14.9179   19.6430  -21.9429 O   0  0  0  0  0  0  0  0  0  0  0  0
  -15.7311   17.7372  -23.0295 N   0  0  0  0  0  0  0  0  0  0  0  0
  -17.0933   17.8466  -22.5067 C   0  0  0  0  0  0  0  0  0  0  0  0
  -18.0926   18.0869  -23.6419 C   0  0  0  0  0  0  0  0  0  0  0  0
  -18.8950   19.3794  -23.4388 C   0  0  0  0  0  0  0  0  0  0  0  0
  -18.5613   19.9916  -22.1352 N   0  0  0  0  0  0  0  0  0  0  0  0
  -19.6758   19.9266  -21.1607 C   0  0  0  0  0  0  0  0  0  0  0  0
  -20.9353   19.2262  -21.6990 C   0  0  0  0  0  0  0  0  0  0  0  0
  -17.9844   21.3516  -22.2590 C   0  0  0  0  0  0  0  0  0  0  0  0
  -19.0886   22.3454  -22.5955 C   0  0  0  0  0  0  0  0  0  0  0  0
 22 24  1  0
 24 25  2  0
 24 26  1  0
 26 27  1  0
 27 28  1  0
 28 29  1  0
 29 30  1  0
 30 31  1  0
 31 32  1  0
 30 33  1  0
 33 34  1  0
 22 23  2  0
 23 20  1  0
 20 21  2  0
 20 19  1  0
 19  1  1  0
  1  2  2  0
  2  3  1  0
  3  4  2  0
  4  5  1  0
  5  6  2  0
  6  7  1  0
  7  8  2  0
  8 11  1  0
 11 12  1  0
 12 13  2  0
 13 14  1  0
 14 15  2  0
 15 16  1  0
 16 17  1  0
 16 18  2  0
  8  9  1  0
  9 10  2  0
 10  1  1  0
  9  4  1  0
 18 12  1  0
M  END
$$$$
CHEMBL460721_gnina_8
     RDKit          3D

 34 36  0  0  0  0  0  0  0  0999 V2000
  -16.5485   13.3966  -25.4176 C   0  0  0  0  0  0  0  0  0  0  0  0
  -16.6280   13.8013  -24.1195 N   0  0  0  0  0  0  0  0  0  0  0  0
  -15.8649   14.8106  -23.6263 C   0  0  0  0  0  0  0  0  0  0  0  0
  -14.9411   15.4568  -24.4497 C   0  0  0  0  0  0  0  0  0  0  0  0
  -14.1869   16.4751  -23.9620 N   0  0  0  0  0  0  0  0  0  0  0  0
  -13.2989   17.1255  -24.7553 C   0  0  0  0  0  0  0  0  0  0  0  0
  -13.1460   16.7574  -26.0527 N   0  0  0  0  0  0  0  0  0  0  0  0
  -13.8529   15.7292  -26.5915 C   0  0  0  0  0  0  0  0  0  0  0  0
  -14.8048   15.0525  -25.7935 C   0  0  0  0  0  0  0  0  0  0  0  0
  -15.6269   14.0212  -26.2790 C   0  0  0  0  0  0  0  0  0  0  0  0
  -13.6473   15.4100  -27.9764 N   0  0  0  0  0  0  0  0  0  0  0  0
  -12.3540   15.2820  -28.5949 C   0  0  0  0  0  0  0  0  0  0  0  0
  -11.7939   14.0219  -28.8805 C   0  0  0  0  0  0  0  0  0  0  0  0
  -10.5542   13.9311  -29.5202 C   0  0  0  0  0  0  0  0  0  0  0  0
   -9.8616   15.0904  -29.8772 C   0  0  0  0  0  0  0  0  0  0  0  0
  -10.3998   16.3462  -29.5758 C   0  0  0  0  0  0  0  0  0  0  0  0
   -9.4574   17.9322  -30.0714 Br  0  0  0  0  0  0  0  0  0  0  0  0
  -11.6383   16.4407  -28.9334 C   0  0  0  0  0  0  0  0  0  0  0  0
  -17.3735   12.2081  -25.8479 C   0  0  0  0  0  0  0  0  0  0  0  0
  -16.5737   10.9484  -26.0298 C   0  0  0  0  0  0  0  0  0  0  0  0
  -16.3906   10.1927  -25.0381 O   0  0  0  0  0  0  0  0  0  0  0  0
  -16.2686    9.6523  -28.1514 C   0  0  0  0  0  0  0  0  0  0  0  0
  -15.9312   10.6576  -27.3296 C   0  0  0  0  0  0  0  0  0  0  0  0
  -17.4767    8.8178  -28.0189 C   0  0  0  0  0  0  0  0  0  0  0  0
  -18.3999    8.9494  -28.8656 O   0  0  0  0  0  0  0  0  0  0  0  0
  -17.6468    7.9423  -26.8926 N   0  0  0  0  0  0  0  0  0  0  0  0
  -18.8076    7.0666  -26.7287 C   0  0  0  0  0  0  0  0  0  0  0  0
  -18.7923    6.3973  -25.3514 C   0  0  0  0  0  0  0  0  0  0  0  0
  -18.6605    7.4208  -24.2153 C   0  0  0  0  0  0  0  0  0  0  0  0
  -17.8845    6.8477  -23.0951 N   0  0  0  0  0  0  0  0  0  0  0  0
  -18.6060    5.7683  -22.3810 C   0  0  0  0  0  0  0  0  0  0  0  0
  -19.9984    6.1791  -21.8720 C   0  0  0  0  0  0  0  0  0  0  0  0
  -17.3348    7.8757  -22.1791 C   0  0  0  0  0  0  0  0  0  0  0  0
  -16.4803    7.2036  -21.1121 C   0  0  0  0  0  0  0  0  0  0  0  0
 22 24  1  0
 24 25  2  0
 24 26  1  0
 26 27  1  0
 27 28  1  0
 28 29  1  0
 29 30  1  0
 30 31  1  0
 31 32  1  0
 30 33  1  0
 33 34  1  0
 22 23  2  0
 23 20  1  0
 20 21  2  0
 20 19  1  0
 19  1  1  0
  1  2  2  0
  2  3  1  0
  3  4  2  0
  4  5  1  0
  5  6  2  0
  6  7  1  0
  7  8  2  0
  8 11  1  0
 11 12  1  0
 12 13  2  0
 13 14  1  0
 14 15  2  0
 15 16  1  0
 16 17  1  0
 16 18  2  0
  8  9  1  0
  9 10  2  0
 10  1  1  0
  9  4  1  0
 18 12  1  0
M  END
$$$$
CHEMBL460721_gnina_9
     RDKit          3D

 34 36  0  0  0  0  0  0  0  0999 V2000
  -13.7480   16.7434  -24.2937 C   0  0  0  0  0  0  0  0  0  0  0  0
  -14.9702   16.7191  -23.6933 N   0  0  0  0  0  0  0  0  0  0  0  0
  -15.9156   15.7969  -24.0095 C   0  0  0  0  0  0  0  0  0  0  0  0
  -15.6617   14.8444  -24.9980 C   0  0  0  0  0  0  0  0  0  0  0  0
  -16.6006   13.9131  -25.3061 N   0  0  0  0  0  0  0  0  0  0  0  0
  -16.3610   12.9691  -26.2507 C   0  0  0  0  0  0  0  0  0  0  0  0
  -15.1750   12.9498  -26.9104 N   0  0  0  0  0  0  0  0  0  0  0  0
  -14.2061   13.8708  -26.6652 C   0  0  0  0  0  0  0  0  0  0  0  0
  -14.4201   14.8490  -25.6660 C   0  0  0  0  0  0  0  0  0  0  0  0
  -13.4545   15.8015  -25.2977 C   0  0  0  0  0  0  0  0  0  0  0  0
  -12.9717   13.7746  -27.3924 N   0  0  0  0  0  0  0  0  0  0  0  0
  -12.3413   14.8783  -28.0679 C   0  0  0  0  0  0  0  0  0  0  0  0
  -12.7350   16.2098  -27.8324 C   0  0  0  0  0  0  0  0  0  0  0  0
  -12.0748   17.2628  -28.4725 C   0  0  0  0  0  0  0  0  0  0  0  0
  -11.0222   17.0003  -29.3524 C   0  0  0  0  0  0  0  0  0  0  0  0
  -10.6404   15.6792  -29.6102 C   0  0  0  0  0  0  0  0  0  0  0  0
   -9.1953   15.3198  -30.8067 Br  0  0  0  0  0  0  0  0  0  0  0  0
  -11.3005   14.6233  -28.9739 C   0  0  0  0  0  0  0  0  0  0  0  0
  -12.7984   17.8613  -23.9375 C   0  0  0  0  0  0  0  0  0  0  0  0
  -13.1376   19.1748  -24.5850 C   0  0  0  0  0  0  0  0  0  0  0  0
  -12.7970   20.2442  -24.0120 O   0  0  0  0  0  0  0  0  0  0  0  0
  -15.2487   19.5166  -25.8892 C   0  0  0  0  0  0  0  0  0  0  0  0
  -13.9453   19.2058  -25.8234 C   0  0  0  0  0  0  0  0  0  0  0  0
  -16.0368   20.1045  -24.7906 C   0  0  0  0  0  0  0  0  0  0  0  0
  -16.9821   19.4343  -24.2968 O   0  0  0  0  0  0  0  0  0  0  0  0
  -15.8009   21.4531  -24.3552 N   0  0  0  0  0  0  0  0  0  0  0  0
  -16.5279   22.0745  -23.2478 C   0  0  0  0  0  0  0  0  0  0  0  0
  -15.5819   22.9044  -22.3752 C   0  0  0  0  0  0  0  0  0  0  0  0
  -14.4529   22.0527  -21.7787 C   0  0  0  0  0  0  0  0  0  0  0  0
  -14.7278   21.7590  -20.3562 N   0  0  0  0  0  0  0  0  0  0  0  0
  -15.2785   20.4005  -20.1395 C   0  0  0  0  0  0  0  0  0  0  0  0
  -14.8447   19.3748  -21.2007 C   0  0  0  0  0  0  0  0  0  0  0  0
  -15.5220   22.8154  -19.6845 C   0  0  0  0  0  0  0  0  0  0  0  0
  -15.1071   22.9133  -18.2221 C   0  0  0  0  0  0  0  0  0  0  0  0
 22 24  1  0
 24 25  2  0
 24 26  1  0
 26 27  1  0
 27 28  1  0
 28 29  1  0
 29 30  1  0
 30 31  1  0
 31 32  1  0
 30 33  1  0
 33 34  1  0
 22 23  2  0
 23 20  1  0
 20 21  2  0
 20 19  1  0
 19  1  1  0
  1  2  2  0
  2  3  1  0
  3  4  2  0
  4  5  1  0
  5  6  2  0
  6  7  1  0
  7  8  2  0
  8 11  1  0
 11 12  1  0
 12 13  2  0
 13 14  1  0
 14 15  2  0
 15 16  1  0
 16 17  1  0
 16 18  2  0
  8  9  1  0
  9 10  2  0
 10  1  1  0
  9  4  1  0
 18 12  1  0
M  END
$$$$
CHEMBL460721_gnina_10
     RDKit          3D

 34 36  0  0  0  0  0  0  0  0999 V2000
  -14.8318   13.4561  -26.7306 C   0  0  0  0  0  0  0  0  0  0  0  0
  -13.9153   12.7186  -27.4170 N   0  0  0  0  0  0  0  0  0  0  0  0
  -12.8722   13.2874  -28.0747 C   0  0  0  0  0  0  0  0  0  0  0  0
  -12.7237   14.6755  -28.0847 C   0  0  0  0  0  0  0  0  0  0  0  0
  -11.6738   15.2452  -28.7304 N   0  0  0  0  0  0  0  0  0  0  0  0
  -11.5055   16.5916  -28.7324 C   0  0  0  0  0  0  0  0  0  0  0  0
  -12.3959   17.3913  -28.0925 N   0  0  0  0  0  0  0  0  0  0  0  0
  -13.4807   16.8826  -27.4509 C   0  0  0  0  0  0  0  0  0  0  0  0
  -13.6646   15.4806  -27.4106 C   0  0  0  0  0  0  0  0  0  0  0  0
  -14.7186   14.8591  -26.7192 C   0  0  0  0  0  0  0  0  0  0  0  0
  -14.3686   17.7921  -26.7828 N   0  0  0  0  0  0  0  0  0  0  0  0
  -14.0602   18.4657  -25.5488 C   0  0  0  0  0  0  0  0  0  0  0  0
  -14.1374   17.8045  -24.3077 C   0  0  0  0  0  0  0  0  0  0  0  0
  -13.7907   18.4742  -23.1305 C   0  0  0  0  0  0  0  0  0  0  0  0
  -13.3683   19.8048  -23.1779 C   0  0  0  0  0  0  0  0  0  0  0  0
  -13.3114   20.4762  -24.4040 C   0  0  0  0  0  0  0  0  0  0  0  0
  -12.7256   22.2932  -24.4707 Br  0  0  0  0  0  0  0  0  0  0  0  0
  -13.6603   19.8103  -25.5832 C   0  0  0  0  0  0  0  0  0  0  0  0
  -16.0044   12.7389  -26.1068 C   0  0  0  0  0  0  0  0  0  0  0  0
  -16.8594   13.6171  -25.2366 C   0  0  0  0  0  0  0  0  0  0  0  0
  -18.1129   13.5556  -25.3512 O   0  0  0  0  0  0  0  0  0  0  0  0
  -16.3277   14.6032  -22.9963 C   0  0  0  0  0  0  0  0  0  0  0  0
  -16.2313   14.6062  -24.3343 C   0  0  0  0  0  0  0  0  0  0  0  0
  -16.8691   13.4957  -22.1875 C   0  0  0  0  0  0  0  0  0  0  0  0
  -16.1482   12.4824  -21.9878 O   0  0  0  0  0  0  0  0  0  0  0  0
  -18.2266   13.5223  -21.7179 N   0  0  0  0  0  0  0  0  0  0  0  0
  -18.8046   12.4688  -20.8830 C   0  0  0  0  0  0  0  0  0  0  0  0
  -17.7993   11.3338  -20.6679 C   0  0  0  0  0  0  0  0  0  0  0  0
  -18.4163    9.9570  -20.9494 C   0  0  0  0  0  0  0  0  0  0  0  0
  -17.4113    9.0579  -21.5553 N   0  0  0  0  0  0  0  0  0  0  0  0
  -17.3823    9.1324  -23.0350 C   0  0  0  0  0  0  0  0  0  0  0  0
  -18.7438    9.4636  -23.6698 C   0  0  0  0  0  0  0  0  0  0  0  0
  -17.4932    7.6661  -21.0511 C   0  0  0  0  0  0  0  0  0  0  0  0
  -16.1616    7.2710  -20.4257 C   0  0  0  0  0  0  0  0  0  0  0  0
 22 24  1  0
 24 25  2  0
 24 26  1  0
 26 27  1  0
 27 28  1  0
 28 29  1  0
 29 30  1  0
 30 31  1  0
 31 32  1  0
 30 33  1  0
 33 34  1  0
 22 23  2  0
 23 20  1  0
 20 21  2  0
 20 19  1  0
 19  1  1  0
  1  2  2  0
  2  3  1  0
  3  4  2  0
  4  5  1  0
  5  6  2  0
  6  7  1  0
  7  8  2  0
  8 11  1  0
 11 12  1  0
 12 13  2  0
 13 14  1  0
 14 15  2  0
 15 16  1  0
 16 17  1  0
 16 18  2  0
  8  9  1  0
  9 10  2  0
 10  1  1  0
  9  4  1  0
 18 12  1  0
M  END
$$$$
CHEMBL4858409_gnina_1
     RDKit          3D

 35 38  0  0  0  0  0  0  0  0999 V2000
  -12.7149   15.3037  -27.0330 C   0  0  0  0  0  0  0  0  0  0  0  0
  -13.3569   14.1123  -26.9304 N   0  0  0  0  0  0  0  0  0  0  0  0
  -13.3212   13.1773  -27.9137 C   0  0  0  0  0  0  0  0  0  0  0  0
  -12.5983   13.4147  -29.0390 N   0  0  0  0  0  0  0  0  0  0  0  0
  -11.9270   14.5784  -29.2048 C   0  0  0  0  0  0  0  0  0  0  0  0
  -11.9574   15.5650  -28.2101 C   0  0  0  0  0  0  0  0  0  0  0  0
  -11.0904   17.0631  -28.5758 Cl  0  0  0  0  0  0  0  0  0  0  0  0
  -12.8832   16.2481  -25.9493 N   0  0  0  0  0  0  0  0  0  0  0  0
  -14.8418   17.4786  -25.0365 C   0  0  0  0  0  0  0  0  0  0  0  0
  -15.6191   18.6556  -25.0395 C   0  0  0  0  0  0  0  0  0  0  0  0
  -15.3875   19.6621  -25.9882 C   0  0  0  0  0  0  0  0  0  0  0  0
  -14.3704   19.5123  -26.9344 C   0  0  0  0  0  0  0  0  0  0  0  0
  -13.5756   18.3665  -26.9326 C   0  0  0  0  0  0  0  0  0  0  0  0
  -13.7683   17.3725  -25.9602 C   0  0  0  0  0  0  0  0  0  0  0  0
  -14.4470   15.3496  -24.0437 O   0  0  0  0  0  0  0  0  0  0  0  0
  -15.1948   16.3623  -24.1191 C   0  0  0  0  0  0  0  0  0  0  0  0
  -16.4249   16.3841  -23.3868 N   0  0  0  0  0  0  0  0  0  0  0  0
  -17.4924   15.6836  -23.8402 O   0  0  0  0  0  0  0  0  0  0  0  0
  -14.0464   11.9560  -27.7545 N   0  0  0  0  0  0  0  0  0  0  0  0
  -15.2958   11.8245  -27.0424 C   0  0  0  0  0  0  0  0  0  0  0  0
  -16.0156   10.6162  -27.0209 C   0  0  0  0  0  0  0  0  0  0  0  0
  -17.2609   10.5511  -26.3825 C   0  0  0  0  0  0  0  0  0  0  0  0
  -17.8005   11.6813  -25.7490 C   0  0  0  0  0  0  0  0  0  0  0  0
  -17.0965   12.8949  -25.7997 C   0  0  0  0  0  0  0  0  0  0  0  0
  -15.8547   12.9666  -26.4470 C   0  0  0  0  0  0  0  0  0  0  0  0
  -19.0194   11.6253  -25.0283 O   0  0  0  0  0  0  0  0  0  0  0  0
  -19.1630   11.3280  -23.6341 C   0  0  0  0  0  0  0  0  0  0  0  0
  -19.2171    9.8326  -23.4352 C   0  0  0  0  0  0  0  0  0  0  0  0
  -20.2659    9.2010  -23.7527 O   0  0  0  0  0  0  0  0  0  0  0  0
  -18.0830    9.1065  -22.9056 N   0  0  0  0  0  0  0  0  0  0  0  0
  -17.6423    7.8737  -23.5711 C   0  0  0  0  0  0  0  0  0  0  0  0
  -17.3636    6.7906  -22.5395 C   0  0  0  0  0  0  0  0  0  0  0  0
  -16.4098    7.2697  -21.6238 O   0  0  0  0  0  0  0  0  0  0  0  0
  -16.9809    8.2371  -20.7728 C   0  0  0  0  0  0  0  0  0  0  0  0
  -17.7880    9.3567  -21.4849 C   0  0  0  0  0  0  0  0  0  0  0  0
 15 16  2  0
 16 17  1  0
 17 18  1  0
 16  9  1  0
  9 10  2  0
 10 11  1  0
 11 12  2  0
 12 13  1  0
 13 14  2  0
 14  8  1  0
  8  1  1  0
  1  2  2  0
  2  3  1  0
  3 19  1  0
 19 20  1  0
 20 21  2  0
 21 22  1  0
 22 23  2  0
 23 26  1  0
 26 27  1  0
 27 28  1  0
 28 29  2  0
 28 30  1  0
 30 31  1  0
 31 32  1  0
 32 33  1  0
 33 34  1  0
 34 35  1  0
 23 24  1  0
 24 25  2  0
  3  4  2  0
  4  5  1  0
  5  6  2  0
  6  7  1  0
 14  9  1  0
  6  1  1  0
 25 20  1  0
 35 30  1  0
M  END
$$$$
CHEMBL4858409_gnina_2
     RDKit          3D

 35 38  0  0  0  0  0  0  0  0999 V2000
  -12.6673   15.4149  -27.0666 C   0  0  0  0  0  0  0  0  0  0  0  0
  -13.2754   14.2050  -26.9742 N   0  0  0  0  0  0  0  0  0  0  0  0
  -13.2244   13.2847  -27.9705 C   0  0  0  0  0  0  0  0  0  0  0  0
  -12.5198   13.5570  -29.0995 N   0  0  0  0  0  0  0  0  0  0  0  0
  -11.8822   14.7408  -29.2560 C   0  0  0  0  0  0  0  0  0  0  0  0
  -11.9293   15.7126  -28.2474 C   0  0  0  0  0  0  0  0  0  0  0  0
  -11.1073   17.2387  -28.6010 Cl  0  0  0  0  0  0  0  0  0  0  0  0
  -12.8501   16.3396  -25.9685 N   0  0  0  0  0  0  0  0  0  0  0  0
  -14.8309   17.5147  -25.0310 C   0  0  0  0  0  0  0  0  0  0  0  0
  -15.6323   18.6753  -25.0132 C   0  0  0  0  0  0  0  0  0  0  0  0
  -15.4243   19.7014  -25.9463 C   0  0  0  0  0  0  0  0  0  0  0  0
  -14.4071   19.5876  -26.8974 C   0  0  0  0  0  0  0  0  0  0  0  0
  -13.5889   18.4586  -26.9159 C   0  0  0  0  0  0  0  0  0  0  0  0
  -13.7583   17.4455  -25.9590 C   0  0  0  0  0  0  0  0  0  0  0  0
  -14.4078   15.3639  -24.0988 O   0  0  0  0  0  0  0  0  0  0  0  0
  -15.1582   16.3769  -24.1306 C   0  0  0  0  0  0  0  0  0  0  0  0
  -16.3682   16.3799  -23.3652 N   0  0  0  0  0  0  0  0  0  0  0  0
  -17.4469   15.6885  -23.8060 O   0  0  0  0  0  0  0  0  0  0  0  0
  -13.9143   12.0419  -27.8210 N   0  0  0  0  0  0  0  0  0  0  0  0
  -15.1589   11.8690  -27.1092 C   0  0  0  0  0  0  0  0  0  0  0  0
  -15.8207   10.6288  -27.0595 C   0  0  0  0  0  0  0  0  0  0  0  0
  -17.0639   10.5205  -26.4230 C   0  0  0  0  0  0  0  0  0  0  0  0
  -17.6589   11.6392  -25.8194 C   0  0  0  0  0  0  0  0  0  0  0  0
  -17.0131   12.8832  -25.8985 C   0  0  0  0  0  0  0  0  0  0  0  0
  -15.7735   12.9977  -26.5440 C   0  0  0  0  0  0  0  0  0  0  0  0
  -18.8766   11.5433  -25.1008 O   0  0  0  0  0  0  0  0  0  0  0  0
  -19.0234   11.1135  -23.7420 C   0  0  0  0  0  0  0  0  0  0  0  0
  -20.0412   10.0013  -23.6666 C   0  0  0  0  0  0  0  0  0  0  0  0
  -20.5528    9.7017  -22.5495 O   0  0  0  0  0  0  0  0  0  0  0  0
  -20.4561    9.2848  -24.8535 N   0  0  0  0  0  0  0  0  0  0  0  0
  -21.8871    9.0609  -25.0965 C   0  0  0  0  0  0  0  0  0  0  0  0
  -22.1270    7.6236  -25.5343 C   0  0  0  0  0  0  0  0  0  0  0  0
  -21.3472    7.3597  -26.6745 O   0  0  0  0  0  0  0  0  0  0  0  0
  -19.9844    7.2564  -26.3307 C   0  0  0  0  0  0  0  0  0  0  0  0
  -19.4329    8.4053  -25.4430 C   0  0  0  0  0  0  0  0  0  0  0  0
 15 16  2  0
 16 17  1  0
 17 18  1  0
 16  9  1  0
  9 10  2  0
 10 11  1  0
 11 12  2  0
 12 13  1  0
 13 14  2  0
 14  8  1  0
  8  1  1  0
  1  2  2  0
  2  3  1  0
  3 19  1  0
 19 20  1  0
 20 21  2  0
 21 22  1  0
 22 23  2  0
 23 26  1  0
 26 27  1  0
 27 28  1  0
 28 29  2  0
 28 30  1  0
 30 31  1  0
 31 32  1  0
 32 33  1  0
 33 34  1  0
 34 35  1  0
 23 24  1  0
 24 25  2  0
  3  4  2  0
  4  5  1  0
  5  6  2  0
  6  7  1  0
 14  9  1  0
  6  1  1  0
 25 20  1  0
 35 30  1  0
M  END
$$$$
CHEMBL4858409_gnina_3
     RDKit          3D

 35 38  0  0  0  0  0  0  0  0999 V2000
  -12.6977   15.3905  -27.0427 C   0  0  0  0  0  0  0  0  0  0  0  0
  -13.3381   14.2016  -26.9056 N   0  0  0  0  0  0  0  0  0  0  0  0
  -13.3213   13.2482  -27.8715 C   0  0  0  0  0  0  0  0  0  0  0  0
  -12.6198   13.4639  -29.0146 N   0  0  0  0  0  0  0  0  0  0  0  0
  -11.9514   14.6238  -29.2150 C   0  0  0  0  0  0  0  0  0  0  0  0
  -11.9626   15.6289  -28.2387 C   0  0  0  0  0  0  0  0  0  0  0  0
  -11.1022   17.1193  -28.6490 Cl  0  0  0  0  0  0  0  0  0  0  0  0
  -12.8451   16.3553  -25.9741 N   0  0  0  0  0  0  0  0  0  0  0  0
  -14.7999   17.5239  -24.9758 C   0  0  0  0  0  0  0  0  0  0  0  0
  -15.6284   18.6654  -24.9613 C   0  0  0  0  0  0  0  0  0  0  0  0
  -15.4990   19.6545  -25.9470 C   0  0  0  0  0  0  0  0  0  0  0  0
  -14.5339   19.5231  -26.9487 C   0  0  0  0  0  0  0  0  0  0  0  0
  -13.6894   18.4136  -26.9663 C   0  0  0  0  0  0  0  0  0  0  0  0
  -13.7793   17.4393  -25.9596 C   0  0  0  0  0  0  0  0  0  0  0  0
  -14.3498   15.3697  -24.0643 O   0  0  0  0  0  0  0  0  0  0  0  0
  -15.0473   16.4190  -24.0113 C   0  0  0  0  0  0  0  0  0  0  0  0
  -16.1318   16.4960  -23.0797 N   0  0  0  0  0  0  0  0  0  0  0  0
  -17.2951   15.8534  -23.3440 O   0  0  0  0  0  0  0  0  0  0  0  0
  -14.0438   12.0306  -27.6756 N   0  0  0  0  0  0  0  0  0  0  0  0
  -15.2920   11.9175  -26.9583 C   0  0  0  0  0  0  0  0  0  0  0  0
  -15.9152   13.0331  -26.3703 C   0  0  0  0  0  0  0  0  0  0  0  0
  -17.0856   12.8691  -25.6181 C   0  0  0  0  0  0  0  0  0  0  0  0
  -17.6565   11.5980  -25.4504 C   0  0  0  0  0  0  0  0  0  0  0  0
  -17.0155   10.4813  -26.0098 C   0  0  0  0  0  0  0  0  0  0  0  0
  -15.8379   10.6402  -26.7544 C   0  0  0  0  0  0  0  0  0  0  0  0
  -18.8814   11.4122  -24.7623 O   0  0  0  0  0  0  0  0  0  0  0  0
  -20.1060   12.1118  -25.0144 C   0  0  0  0  0  0  0  0  0  0  0  0
  -20.6701   12.6353  -23.7157 C   0  0  0  0  0  0  0  0  0  0  0  0
  -21.5251   11.9470  -23.0873 O   0  0  0  0  0  0  0  0  0  0  0  0
  -20.2354   13.9020  -23.1675 N   0  0  0  0  0  0  0  0  0  0  0  0
  -19.8758   13.9864  -21.7461 C   0  0  0  0  0  0  0  0  0  0  0  0
  -20.4922   15.2293  -21.1212 C   0  0  0  0  0  0  0  0  0  0  0  0
  -20.0688   16.3589  -21.8439 O   0  0  0  0  0  0  0  0  0  0  0  0
  -20.7043   16.4109  -23.1007 C   0  0  0  0  0  0  0  0  0  0  0  0
  -20.6706   15.0912  -23.9187 C   0  0  0  0  0  0  0  0  0  0  0  0
 15 16  2  0
 16 17  1  0
 17 18  1  0
 16  9  1  0
  9 10  2  0
 10 11  1  0
 11 12  2  0
 12 13  1  0
 13 14  2  0
 14  8  1  0
  8  1  1  0
  1  2  2  0
  2  3  1  0
  3 19  1  0
 19 20  1  0
 20 21  2  0
 21 22  1  0
 22 23  2  0
 23 26  1  0
 26 27  1  0
 27 28  1  0
 28 29  2  0
 28 30  1  0
 30 31  1  0
 31 32  1  0
 32 33  1  0
 33 34  1  0
 34 35  1  0
 23 24  1  0
 24 25  2  0
  3  4  2  0
  4  5  1  0
  5  6  2  0
  6  7  1  0
 14  9  1  0
  6  1  1  0
 25 20  1  0
 35 30  1  0
M  END
$$$$
CHEMBL4858409_gnina_4
     RDKit          3D

 35 38  0  0  0  0  0  0  0  0999 V2000
  -12.6660   15.6097  -27.0725 C   0  0  0  0  0  0  0  0  0  0  0  0
  -13.2487   14.3992  -26.8789 N   0  0  0  0  0  0  0  0  0  0  0  0
  -13.1999   13.4094  -27.8063 C   0  0  0  0  0  0  0  0  0  0  0  0
  -12.5236   13.6107  -28.9671 N   0  0  0  0  0  0  0  0  0  0  0  0
  -11.9123   14.7910  -29.2231 C   0  0  0  0  0  0  0  0  0  0  0  0
  -11.9578   15.8332  -28.2874 C   0  0  0  0  0  0  0  0  0  0  0  0
  -11.1727   17.3436  -28.7690 Cl  0  0  0  0  0  0  0  0  0  0  0  0
  -12.8446   16.6091  -26.0410 N   0  0  0  0  0  0  0  0  0  0  0  0
  -13.4013   18.9165  -25.3000 C   0  0  0  0  0  0  0  0  0  0  0  0
  -14.1041   20.1136  -25.5503 C   0  0  0  0  0  0  0  0  0  0  0  0
  -15.0334   20.1907  -26.5979 C   0  0  0  0  0  0  0  0  0  0  0  0
  -15.2616   19.0804  -27.4148 C   0  0  0  0  0  0  0  0  0  0  0  0
  -14.5592   17.8954  -27.1982 C   0  0  0  0  0  0  0  0  0  0  0  0
  -13.5942   17.8199  -26.1815 C   0  0  0  0  0  0  0  0  0  0  0  0
  -12.5360   17.7519  -23.4109 O   0  0  0  0  0  0  0  0  0  0  0  0
  -12.5300   18.8085  -24.0994 C   0  0  0  0  0  0  0  0  0  0  0  0
  -11.7508   19.9276  -23.6631 N   0  0  0  0  0  0  0  0  0  0  0  0
  -12.1985   20.7072  -22.6494 O   0  0  0  0  0  0  0  0  0  0  0  0
  -13.8625   12.1688  -27.5519 N   0  0  0  0  0  0  0  0  0  0  0  0
  -15.1598   12.0380  -26.9310 C   0  0  0  0  0  0  0  0  0  0  0  0
  -15.8811   10.8308  -26.9635 C   0  0  0  0  0  0  0  0  0  0  0  0
  -17.1689   10.7665  -26.4158 C   0  0  0  0  0  0  0  0  0  0  0  0
  -17.7507   11.8963  -25.8201 C   0  0  0  0  0  0  0  0  0  0  0  0
  -17.0431   13.1089  -25.8179 C   0  0  0  0  0  0  0  0  0  0  0  0
  -15.7581   13.1799  -26.3747 C   0  0  0  0  0  0  0  0  0  0  0  0
  -19.0180   11.8409  -25.1883 O   0  0  0  0  0  0  0  0  0  0  0  0
  -19.2551   11.7245  -23.7802 C   0  0  0  0  0  0  0  0  0  0  0  0
  -19.7030   10.3204  -23.4534 C   0  0  0  0  0  0  0  0  0  0  0  0
  -20.8805   10.1253  -23.0351 O   0  0  0  0  0  0  0  0  0  0  0  0
  -18.8148    9.1916  -23.6290 N   0  0  0  0  0  0  0  0  0  0  0  0
  -19.3060    7.9877  -24.3117 C   0  0  0  0  0  0  0  0  0  0  0  0
  -18.8829    6.7413  -23.5486 C   0  0  0  0  0  0  0  0  0  0  0  0
  -17.4828    6.7428  -23.4165 O   0  0  0  0  0  0  0  0  0  0  0  0
  -17.0732    7.7168  -22.4840 C   0  0  0  0  0  0  0  0  0  0  0  0
  -17.6883    9.1289  -22.6829 C   0  0  0  0  0  0  0  0  0  0  0  0
 15 16  2  0
 16 17  1  0
 17 18  1  0
 16  9  1  0
  9 10  2  0
 10 11  1  0
 11 12  2  0
 12 13  1  0
 13 14  2  0
 14  8  1  0
  8  1  1  0
  1  2  2  0
  2  3  1  0
  3 19  1  0
 19 20  1  0
 20 21  2  0
 21 22  1  0
 22 23  2  0
 23 26  1  0
 26 27  1  0
 27 28  1  0
 28 29  2  0
 28 30  1  0
 30 31  1  0
 31 32  1  0
 32 33  1  0
 33 34  1  0
 34 35  1  0
 23 24  1  0
 24 25  2  0
  3  4  2  0
  4  5  1  0
  5  6  2  0
  6  7  1  0
 14  9  1  0
  6  1  1  0
 25 20  1  0
 35 30  1  0
M  END
$$$$
CHEMBL4858409_gnina_5
     RDKit          3D

 35 38  0  0  0  0  0  0  0  0999 V2000
  -17.0994   11.2290  -26.0678 C   0  0  0  0  0  0  0  0  0  0  0  0
  -15.9689   11.9527  -26.2690 N   0  0  0  0  0  0  0  0  0  0  0  0
  -15.0714   11.6489  -27.2408 C   0  0  0  0  0  0  0  0  0  0  0  0
  -15.3105   10.6002  -28.0705 N   0  0  0  0  0  0  0  0  0  0  0  0
  -16.4219    9.8399  -27.9320 C   0  0  0  0  0  0  0  0  0  0  0  0
  -17.3582   10.1250  -26.9292 C   0  0  0  0  0  0  0  0  0  0  0  0
  -18.7345    9.0193  -26.8152 Cl  0  0  0  0  0  0  0  0  0  0  0  0
  -17.9454   11.6075  -24.9563 N   0  0  0  0  0  0  0  0  0  0  0  0
  -17.1211   12.5984  -22.8298 C   0  0  0  0  0  0  0  0  0  0  0  0
  -16.8873   12.4348  -21.4485 C   0  0  0  0  0  0  0  0  0  0  0  0
  -17.0456   11.1808  -20.8409 C   0  0  0  0  0  0  0  0  0  0  0  0
  -17.4518   10.0807  -21.6005 C   0  0  0  0  0  0  0  0  0  0  0  0
  -17.7109   10.2275  -22.9627 C   0  0  0  0  0  0  0  0  0  0  0  0
  -17.5993   11.4868  -23.5730 C   0  0  0  0  0  0  0  0  0  0  0  0
  -15.6758   14.4270  -23.3215 O   0  0  0  0  0  0  0  0  0  0  0  0
  -16.8090   13.8976  -23.4833 C   0  0  0  0  0  0  0  0  0  0  0  0
  -17.8146   14.6007  -24.2212 N   0  0  0  0  0  0  0  0  0  0  0  0
  -18.4847   15.6253  -23.6408 O   0  0  0  0  0  0  0  0  0  0  0  0
  -13.8848   12.4338  -27.3777 N   0  0  0  0  0  0  0  0  0  0  0  0
  -13.8314   13.8736  -27.2784 C   0  0  0  0  0  0  0  0  0  0  0  0
  -14.8619   14.6158  -26.6737 C   0  0  0  0  0  0  0  0  0  0  0  0
  -14.8082   16.0156  -26.6653 C   0  0  0  0  0  0  0  0  0  0  0  0
  -13.7261   16.6940  -27.2472 C   0  0  0  0  0  0  0  0  0  0  0  0
  -12.7149   15.9532  -27.8795 C   0  0  0  0  0  0  0  0  0  0  0  0
  -12.7705   14.5522  -27.8992 C   0  0  0  0  0  0  0  0  0  0  0  0
  -13.6054   18.1046  -27.1845 O   0  0  0  0  0  0  0  0  0  0  0  0
  -14.6827   19.0387  -27.0450 C   0  0  0  0  0  0  0  0  0  0  0  0
  -14.9208   19.3269  -25.5824 C   0  0  0  0  0  0  0  0  0  0  0  0
  -16.0627   19.1096  -25.0841 O   0  0  0  0  0  0  0  0  0  0  0  0
  -13.8598   19.8290  -24.7362 N   0  0  0  0  0  0  0  0  0  0  0  0
  -13.6316   19.2110  -23.4237 C   0  0  0  0  0  0  0  0  0  0  0  0
  -13.4302   20.2852  -22.3650 C   0  0  0  0  0  0  0  0  0  0  0  0
  -12.3623   21.1130  -22.7550 O   0  0  0  0  0  0  0  0  0  0  0  0
  -12.7423   21.9391  -23.8317 C   0  0  0  0  0  0  0  0  0  0  0  0
  -13.4400   21.2128  -25.0139 C   0  0  0  0  0  0  0  0  0  0  0  0
 15 16  2  0
 16 17  1  0
 17 18  1  0
 16  9  1  0
  9 10  2  0
 10 11  1  0
 11 12  2  0
 12 13  1  0
 13 14  2  0
 14  8  1  0
  8  1  1  0
  1  2  2  0
  2  3  1  0
  3 19  1  0
 19 20  1  0
 20 21  2  0
 21 22  1  0
 22 23  2  0
 23 26  1  0
 26 27  1  0
 27 28  1  0
 28 29  2  0
 28 30  1  0
 30 31  1  0
 31 32  1  0
 32 33  1  0
 33 34  1  0
 34 35  1  0
 23 24  1  0
 24 25  2  0
  3  4  2  0
  4  5  1  0
  5  6  2  0
  6  7  1  0
 14  9  1  0
  6  1  1  0
 25 20  1  0
 35 30  1  0
M  END
$$$$
CHEMBL4858409_gnina_6
     RDKit          3D

 35 38  0  0  0  0  0  0  0  0999 V2000
  -12.6711   15.7388  -27.0431 C   0  0  0  0  0  0  0  0  0  0  0  0
  -13.2709   14.5434  -26.8120 N   0  0  0  0  0  0  0  0  0  0  0  0
  -13.2578   13.5332  -27.7183 C   0  0  0  0  0  0  0  0  0  0  0  0
  -12.6012   13.6973  -28.8961 N   0  0  0  0  0  0  0  0  0  0  0  0
  -11.9745   14.8607  -29.1897 C   0  0  0  0  0  0  0  0  0  0  0  0
  -11.9833   15.9234  -28.2762 C   0  0  0  0  0  0  0  0  0  0  0  0
  -11.1816   17.4088  -28.8058 Cl  0  0  0  0  0  0  0  0  0  0  0  0
  -12.8116   16.7631  -26.0305 N   0  0  0  0  0  0  0  0  0  0  0  0
  -13.4171   19.0514  -25.2684 C   0  0  0  0  0  0  0  0  0  0  0  0
  -14.1346   20.2406  -25.5146 C   0  0  0  0  0  0  0  0  0  0  0  0
  -15.0476   20.3172  -26.5763 C   0  0  0  0  0  0  0  0  0  0  0  0
  -15.2447   19.2146  -27.4116 C   0  0  0  0  0  0  0  0  0  0  0  0
  -14.5272   18.0379  -27.1990 C   0  0  0  0  0  0  0  0  0  0  0  0
  -13.5780   17.9639  -26.1674 C   0  0  0  0  0  0  0  0  0  0  0  0
  -12.4244   17.8252  -23.4837 O   0  0  0  0  0  0  0  0  0  0  0  0
  -12.5641   18.9408  -24.0550 C   0  0  0  0  0  0  0  0  0  0  0  0
  -11.9717   20.1074  -23.4736 N   0  0  0  0  0  0  0  0  0  0  0  0
  -12.5525   20.6950  -22.3996 O   0  0  0  0  0  0  0  0  0  0  0  0
  -13.9369   12.3104  -27.4240 N   0  0  0  0  0  0  0  0  0  0  0  0
  -15.2240   12.2162  -26.7759 C   0  0  0  0  0  0  0  0  0  0  0  0
  -15.8876   10.9863  -26.6162 C   0  0  0  0  0  0  0  0  0  0  0  0
  -17.1686   10.9471  -26.0506 C   0  0  0  0  0  0  0  0  0  0  0  0
  -17.8007   12.1266  -25.6272 C   0  0  0  0  0  0  0  0  0  0  0  0
  -17.1511   13.3566  -25.8175 C   0  0  0  0  0  0  0  0  0  0  0  0
  -15.8732   13.4008  -26.3931 C   0  0  0  0  0  0  0  0  0  0  0  0
  -19.0614   12.1099  -24.9802 O   0  0  0  0  0  0  0  0  0  0  0  0
  -19.2918   11.8726  -23.5862 C   0  0  0  0  0  0  0  0  0  0  0  0
  -18.8577   13.0768  -22.7860 C   0  0  0  0  0  0  0  0  0  0  0  0
  -17.8025   13.0139  -22.0915 O   0  0  0  0  0  0  0  0  0  0  0  0
  -19.6173   14.3081  -22.8150 N   0  0  0  0  0  0  0  0  0  0  0  0
  -18.9149   15.5835  -23.0067 C   0  0  0  0  0  0  0  0  0  0  0  0
  -19.4372   16.6235  -22.0266 C   0  0  0  0  0  0  0  0  0  0  0  0
  -20.8272   16.7518  -22.1980 O   0  0  0  0  0  0  0  0  0  0  0  0
  -21.4964   15.6204  -21.6899 C   0  0  0  0  0  0  0  0  0  0  0  0
  -20.9294   14.2495  -22.1493 C   0  0  0  0  0  0  0  0  0  0  0  0
 15 16  2  0
 16 17  1  0
 17 18  1  0
 16  9  1  0
  9 10  2  0
 10 11  1  0
 11 12  2  0
 12 13  1  0
 13 14  2  0
 14  8  1  0
  8  1  1  0
  1  2  2  0
  2  3  1  0
  3 19  1  0
 19 20  1  0
 20 21  2  0
 21 22  1  0
 22 23  2  0
 23 26  1  0
 26 27  1  0
 27 28  1  0
 28 29  2  0
 28 30  1  0
 30 31  1  0
 31 32  1  0
 32 33  1  0
 33 34  1  0
 34 35  1  0
 23 24  1  0
 24 25  2  0
  3  4  2  0
  4  5  1  0
  5  6  2  0
  6  7  1  0
 14  9  1  0
  6  1  1  0
 25 20  1  0
 35 30  1  0
M  END
$$$$
CHEMBL4858409_gnina_7
     RDKit          3D

 35 38  0  0  0  0  0  0  0  0999 V2000
  -13.0543   14.3173  -27.0466 C   0  0  0  0  0  0  0  0  0  0  0  0
  -12.9756   15.4957  -26.3777 N   0  0  0  0  0  0  0  0  0  0  0  0
  -12.4364   16.6127  -26.9287 C   0  0  0  0  0  0  0  0  0  0  0  0
  -11.9774   16.5757  -28.2067 N   0  0  0  0  0  0  0  0  0  0  0  0
  -12.0315   15.4360  -28.9350 C   0  0  0  0  0  0  0  0  0  0  0  0
  -12.5725   14.2659  -28.3855 C   0  0  0  0  0  0  0  0  0  0  0  0
  -12.5280   12.8304  -29.4187 Cl  0  0  0  0  0  0  0  0  0  0  0  0
  -13.5864   13.1776  -26.3307 N   0  0  0  0  0  0  0  0  0  0  0  0
  -15.9648   13.5189  -25.6903 C   0  0  0  0  0  0  0  0  0  0  0  0
  -17.3063   13.1013  -25.8153 C   0  0  0  0  0  0  0  0  0  0  0  0
  -17.6254   11.9174  -26.4959 C   0  0  0  0  0  0  0  0  0  0  0  0
  -16.6126   11.1450  -27.0705 C   0  0  0  0  0  0  0  0  0  0  0  0
  -15.2826   11.5536  -26.9782 C   0  0  0  0  0  0  0  0  0  0  0  0
  -14.9550   12.7595  -26.3385 C   0  0  0  0  0  0  0  0  0  0  0  0
  -14.9541   14.5432  -23.7920 O   0  0  0  0  0  0  0  0  0  0  0  0
  -15.6332   14.6960  -24.8436 C   0  0  0  0  0  0  0  0  0  0  0  0
  -16.1551   15.9908  -25.1616 N   0  0  0  0  0  0  0  0  0  0  0  0
  -17.2455   16.4580  -24.5068 O   0  0  0  0  0  0  0  0  0  0  0  0
  -12.3554   17.8132  -26.1572 N   0  0  0  0  0  0  0  0  0  0  0  0
  -13.3525   18.2550  -25.2106 C   0  0  0  0  0  0  0  0  0  0  0  0
  -13.3234   17.8590  -23.8611 C   0  0  0  0  0  0  0  0  0  0  0  0
  -14.3514   18.2474  -22.9923 C   0  0  0  0  0  0  0  0  0  0  0  0
  -15.4138   19.0421  -23.4503 C   0  0  0  0  0  0  0  0  0  0  0  0
  -15.4588   19.4089  -24.8047 C   0  0  0  0  0  0  0  0  0  0  0  0
  -14.4372   19.0130  -25.6798 C   0  0  0  0  0  0  0  0  0  0  0  0
  -16.4250   19.5157  -22.5777 O   0  0  0  0  0  0  0  0  0  0  0  0
  -16.2385   19.9462  -21.2240 C   0  0  0  0  0  0  0  0  0  0  0  0
  -15.1272   20.9660  -21.1623 C   0  0  0  0  0  0  0  0  0  0  0  0
  -14.6923   21.3438  -20.0364 O   0  0  0  0  0  0  0  0  0  0  0  0
  -14.5376   21.5043  -22.3692 N   0  0  0  0  0  0  0  0  0  0  0  0
  -13.0754   21.5726  -22.4883 C   0  0  0  0  0  0  0  0  0  0  0  0
  -12.6563   22.9244  -23.0468 C   0  0  0  0  0  0  0  0  0  0  0  0
  -13.2995   23.1252  -24.2812 O   0  0  0  0  0  0  0  0  0  0  0  0
  -14.6710   23.3862  -24.0897 C   0  0  0  0  0  0  0  0  0  0  0  0
  -15.4113   22.3981  -23.1475 C   0  0  0  0  0  0  0  0  0  0  0  0
 15 16  2  0
 16 17  1  0
 17 18  1  0
 16  9  1  0
  9 10  2  0
 10 11  1  0
 11 12  2  0
 12 13  1  0
 13 14  2  0
 14  8  1  0
  8  1  1  0
  1  2  2  0
  2  3  1  0
  3 19  1  0
 19 20  1  0
 20 21  2  0
 21 22  1  0
 22 23  2  0
 23 26  1  0
 26 27  1  0
 27 28  1  0
 28 29  2  0
 28 30  1  0
 30 31  1  0
 31 32  1  0
 32 33  1  0
 33 34  1  0
 34 35  1  0
 23 24  1  0
 24 25  2  0
  3  4  2  0
  4  5  1  0
  5  6  2  0
  6  7  1  0
 14  9  1  0
  6  1  1  0
 25 20  1  0
 35 30  1  0
M  END
$$$$
CHEMBL4858409_gnina_8
     RDKit          3D

 35 38  0  0  0  0  0  0  0  0999 V2000
  -16.8143   11.5785  -26.1476 C   0  0  0  0  0  0  0  0  0  0  0  0
  -15.7110   12.3485  -26.3269 N   0  0  0  0  0  0  0  0  0  0  0  0
  -14.7388   12.0336  -27.2201 C   0  0  0  0  0  0  0  0  0  0  0  0
  -14.8710   10.9235  -27.9918 N   0  0  0  0  0  0  0  0  0  0  0  0
  -15.9493   10.1141  -27.8713 C   0  0  0  0  0  0  0  0  0  0  0  0
  -16.9613   10.4102  -26.9483 C   0  0  0  0  0  0  0  0  0  0  0  0
  -18.2846    9.2406  -26.8455 Cl  0  0  0  0  0  0  0  0  0  0  0  0
  -17.7479   11.9794  -25.1171 N   0  0  0  0  0  0  0  0  0  0  0  0
  -19.5802   10.9139  -23.8167 C   0  0  0  0  0  0  0  0  0  0  0  0
  -19.9525   10.0147  -22.7958 C   0  0  0  0  0  0  0  0  0  0  0  0
  -18.9820    9.4332  -21.9671 C   0  0  0  0  0  0  0  0  0  0  0  0
  -17.6300    9.7311  -22.1561 C   0  0  0  0  0  0  0  0  0  0  0  0
  -17.2401   10.5992  -23.1752 C   0  0  0  0  0  0  0  0  0  0  0  0
  -18.1981   11.1523  -24.0396 C   0  0  0  0  0  0  0  0  0  0  0  0
  -21.6427   12.0920  -23.9959 O   0  0  0  0  0  0  0  0  0  0  0  0
  -20.6300   11.6307  -24.5891 C   0  0  0  0  0  0  0  0  0  0  0  0
  -20.5478   11.7232  -26.0155 N   0  0  0  0  0  0  0  0  0  0  0  0
  -21.2663   10.8738  -26.7891 O   0  0  0  0  0  0  0  0  0  0  0  0
  -13.5869   12.8718  -27.3361 N   0  0  0  0  0  0  0  0  0  0  0  0
  -13.6109   14.3156  -27.3138 C   0  0  0  0  0  0  0  0  0  0  0  0
  -12.5147   15.0840  -27.7457 C   0  0  0  0  0  0  0  0  0  0  0  0
  -12.5486   16.4803  -27.6367 C   0  0  0  0  0  0  0  0  0  0  0  0
  -13.6748   17.1299  -27.1082 C   0  0  0  0  0  0  0  0  0  0  0  0
  -14.7545   16.3601  -26.6469 C   0  0  0  0  0  0  0  0  0  0  0  0
  -14.7198   14.9617  -26.7445 C   0  0  0  0  0  0  0  0  0  0  0  0
  -13.7697   18.5430  -27.0588 O   0  0  0  0  0  0  0  0  0  0  0  0
  -14.9811   19.3077  -27.0373 C   0  0  0  0  0  0  0  0  0  0  0  0
  -15.2391   19.8139  -25.6387 C   0  0  0  0  0  0  0  0  0  0  0  0
  -16.4271   20.0420  -25.2697 O   0  0  0  0  0  0  0  0  0  0  0  0
  -14.1524   20.0243  -24.7066 N   0  0  0  0  0  0  0  0  0  0  0  0
  -14.2694   19.5106  -23.3358 C   0  0  0  0  0  0  0  0  0  0  0  0
  -13.8114   20.5647  -22.3388 C   0  0  0  0  0  0  0  0  0  0  0  0
  -12.4943   20.9452  -22.6526 O   0  0  0  0  0  0  0  0  0  0  0  0
  -12.4698   21.7295  -23.8231 C   0  0  0  0  0  0  0  0  0  0  0  0
  -13.2624   21.1525  -25.0277 C   0  0  0  0  0  0  0  0  0  0  0  0
 15 16  2  0
 16 17  1  0
 17 18  1  0
 16  9  1  0
  9 10  2  0
 10 11  1  0
 11 12  2  0
 12 13  1  0
 13 14  2  0
 14  8  1  0
  8  1  1  0
  1  2  2  0
  2  3  1  0
  3 19  1  0
 19 20  1  0
 20 21  2  0
 21 22  1  0
 22 23  2  0
 23 26  1  0
 26 27  1  0
 27 28  1  0
 28 29  2  0
 28 30  1  0
 30 31  1  0
 31 32  1  0
 32 33  1  0
 33 34  1  0
 34 35  1  0
 23 24  1  0
 24 25  2  0
  3  4  2  0
  4  5  1  0
  5  6  2  0
  6  7  1  0
 14  9  1  0
  6  1  1  0
 25 20  1  0
 35 30  1  0
M  END
$$$$
CHEMBL4858409_gnina_9
     RDKit          3D

 35 38  0  0  0  0  0  0  0  0999 V2000
  -12.8142   14.8250  -27.3097 C   0  0  0  0  0  0  0  0  0  0  0  0
  -13.2547   16.0602  -26.9594 N   0  0  0  0  0  0  0  0  0  0  0  0
  -12.8652   17.1855  -27.6107 C   0  0  0  0  0  0  0  0  0  0  0  0
  -12.0240   17.0886  -28.6729 N   0  0  0  0  0  0  0  0  0  0  0  0
  -11.5517   15.8877  -29.0819 C   0  0  0  0  0  0  0  0  0  0  0  0
  -11.9289   14.7120  -28.4192 C   0  0  0  0  0  0  0  0  0  0  0  0
  -11.1937   13.2163  -29.0128 Cl  0  0  0  0  0  0  0  0  0  0  0  0
  -13.2448   13.7075  -26.4972 N   0  0  0  0  0  0  0  0  0  0  0  0
  -15.5996   13.9311  -25.7301 C   0  0  0  0  0  0  0  0  0  0  0  0
  -16.9188   13.4330  -25.7654 C   0  0  0  0  0  0  0  0  0  0  0  0
  -17.2047   12.2118  -26.3929 C   0  0  0  0  0  0  0  0  0  0  0  0
  -16.1818   11.4815  -27.0032 C   0  0  0  0  0  0  0  0  0  0  0  0
  -14.8753   11.9688  -26.9996 C   0  0  0  0  0  0  0  0  0  0  0  0
  -14.5844   13.2111  -26.4141 C   0  0  0  0  0  0  0  0  0  0  0  0
  -14.4626   15.0926  -23.9888 O   0  0  0  0  0  0  0  0  0  0  0  0
  -15.2915   15.1514  -24.9375 C   0  0  0  0  0  0  0  0  0  0  0  0
  -15.9953   16.3741  -25.1815 N   0  0  0  0  0  0  0  0  0  0  0  0
  -17.0322   16.7263  -24.3836 O   0  0  0  0  0  0  0  0  0  0  0  0
  -13.3423   18.4586  -27.1696 N   0  0  0  0  0  0  0  0  0  0  0  0
  -13.6005   18.8119  -25.7934 C   0  0  0  0  0  0  0  0  0  0  0  0
  -14.4960   19.8392  -25.4451 C   0  0  0  0  0  0  0  0  0  0  0  0
  -14.6612   20.2024  -24.1022 C   0  0  0  0  0  0  0  0  0  0  0  0
  -13.9477   19.5428  -23.0893 C   0  0  0  0  0  0  0  0  0  0  0  0
  -13.0298   18.5405  -23.4411 C   0  0  0  0  0  0  0  0  0  0  0  0
  -12.8539   18.1816  -24.7852 C   0  0  0  0  0  0  0  0  0  0  0  0
  -14.1526   19.8343  -21.7177 O   0  0  0  0  0  0  0  0  0  0  0  0
  -14.7368   21.0298  -21.1866 C   0  0  0  0  0  0  0  0  0  0  0  0
  -16.1788   20.7733  -20.8213 C   0  0  0  0  0  0  0  0  0  0  0  0
  -17.0977   21.3183  -21.4982 O   0  0  0  0  0  0  0  0  0  0  0  0
  -16.5284   19.8992  -19.7223 N   0  0  0  0  0  0  0  0  0  0  0  0
  -17.5657   18.8779  -19.9160 C   0  0  0  0  0  0  0  0  0  0  0  0
  -18.5178   18.8643  -18.7292 C   0  0  0  0  0  0  0  0  0  0  0  0
  -17.7757   18.6512  -17.5537 O   0  0  0  0  0  0  0  0  0  0  0  0
  -17.0317   19.8009  -17.2211 C   0  0  0  0  0  0  0  0  0  0  0  0
  -16.2070   20.4192  -18.3828 C   0  0  0  0  0  0  0  0  0  0  0  0
 15 16  2  0
 16 17  1  0
 17 18  1  0
 16  9  1  0
  9 10  2  0
 10 11  1  0
 11 12  2  0
 12 13  1  0
 13 14  2  0
 14  8  1  0
  8  1  1  0
  1  2  2  0
  2  3  1  0
  3 19  1  0
 19 20  1  0
 20 21  2  0
 21 22  1  0
 22 23  2  0
 23 26  1  0
 26 27  1  0
 27 28  1  0
 28 29  2  0
 28 30  1  0
 30 31  1  0
 31 32  1  0
 32 33  1  0
 33 34  1  0
 34 35  1  0
 23 24  1  0
 24 25  2  0
  3  4  2  0
  4  5  1  0
  5  6  2  0
  6  7  1  0
 14  9  1  0
  6  1  1  0
 25 20  1  0
 35 30  1  0
M  END
$$$$
CHEMBL4858409_gnina_10
     RDKit          3D

 35 38  0  0  0  0  0  0  0  0999 V2000
  -12.2400   16.1834  -27.2688 C   0  0  0  0  0  0  0  0  0  0  0  0
  -12.8432   15.0317  -26.8790 N   0  0  0  0  0  0  0  0  0  0  0  0
  -12.9106   13.9368  -27.6782 C   0  0  0  0  0  0  0  0  0  0  0  0
  -12.3344   13.9675  -28.9080 N   0  0  0  0  0  0  0  0  0  0  0  0
  -11.7093   15.0806  -29.3583 C   0  0  0  0  0  0  0  0  0  0  0  0
  -11.6362   16.2283  -28.5576 C   0  0  0  0  0  0  0  0  0  0  0  0
  -10.8472   17.6342  -29.2862 Cl  0  0  0  0  0  0  0  0  0  0  0  0
  -12.2921   17.3060  -26.3569 N   0  0  0  0  0  0  0  0  0  0  0  0
  -13.9388   18.5954  -25.0117 C   0  0  0  0  0  0  0  0  0  0  0  0
  -14.9287   19.5997  -24.9797 C   0  0  0  0  0  0  0  0  0  0  0  0
  -15.3928   20.1833  -26.1675 C   0  0  0  0  0  0  0  0  0  0  0  0
  -14.8656   19.7821  -27.3976 C   0  0  0  0  0  0  0  0  0  0  0  0
  -13.8694   18.8077  -27.4482 C   0  0  0  0  0  0  0  0  0  0  0  0
  -13.3649   18.2485  -26.2635 C   0  0  0  0  0  0  0  0  0  0  0  0
  -13.6659   16.6320  -23.6908 O   0  0  0  0  0  0  0  0  0  0  0  0
  -13.5639   17.8872  -23.7586 C   0  0  0  0  0  0  0  0  0  0  0  0
  -13.1743   18.6248  -22.5949 N   0  0  0  0  0  0  0  0  0  0  0  0
  -14.0733   18.8494  -21.6063 O   0  0  0  0  0  0  0  0  0  0  0  0
  -13.5890   12.7660  -27.2177 N   0  0  0  0  0  0  0  0  0  0  0  0
  -14.9260   12.7474  -26.6722 C   0  0  0  0  0  0  0  0  0  0  0  0
  -15.7610   11.6215  -26.7892 C   0  0  0  0  0  0  0  0  0  0  0  0
  -17.0778   11.6705  -26.3135 C   0  0  0  0  0  0  0  0  0  0  0  0
  -17.5769   12.8335  -25.7067 C   0  0  0  0  0  0  0  0  0  0  0  0
  -16.7532   13.9671  -25.6204 C   0  0  0  0  0  0  0  0  0  0  0  0
  -15.4381   13.9253  -26.1051 C   0  0  0  0  0  0  0  0  0  0  0  0
  -18.8772   12.8864  -25.1458 O   0  0  0  0  0  0  0  0  0  0  0  0
  -19.2263   13.4486  -23.8751 C   0  0  0  0  0  0  0  0  0  0  0  0
  -19.2612   12.3608  -22.8291 C   0  0  0  0  0  0  0  0  0  0  0  0
  -19.3238   11.1510  -23.1925 O   0  0  0  0  0  0  0  0  0  0  0  0
  -19.2045   12.6772  -21.4181 N   0  0  0  0  0  0  0  0  0  0  0  0
  -18.2843   11.9323  -20.5492 C   0  0  0  0  0  0  0  0  0  0  0  0
  -18.9879   11.5290  -19.2618 C   0  0  0  0  0  0  0  0  0  0  0  0
  -19.4898   12.6846  -18.6370 O   0  0  0  0  0  0  0  0  0  0  0  0
  -20.6013   13.1874  -19.3426 C   0  0  0  0  0  0  0  0  0  0  0  0
  -20.4047   13.3358  -20.8760 C   0  0  0  0  0  0  0  0  0  0  0  0
 15 16  2  0
 16 17  1  0
 17 18  1  0
 16  9  1  0
  9 10  2  0
 10 11  1  0
 11 12  2  0
 12 13  1  0
 13 14  2  0
 14  8  1  0
  8  1  1  0
  1  2  2  0
  2  3  1  0
  3 19  1  0
 19 20  1  0
 20 21  2  0
 21 22  1  0
 22 23  2  0
 23 26  1  0
 26 27  1  0
 27 28  1  0
 28 29  2  0
 28 30  1  0
 30 31  1  0
 31 32  1  0
 32 33  1  0
 33 34  1  0
 34 35  1  0
 23 24  1  0
 24 25  2  0
  3  4  2  0
  4  5  1  0
  5  6  2  0
  6  7  1  0
 14  9  1  0
  6  1  1  0
 25 20  1  0
 35 30  1  0
M  END
$$$$
CHEMBL3133894_smina_1
     RDKit          3D

 22 24  0  0  0  0  0  0  0  0999 V2000
  -12.2681   15.3631  -28.5831 C   0  0  0  0  0  0  0  0  0  0  0  0
  -12.0833   13.9865  -28.7618 C   0  0  0  0  0  0  0  0  0  0  0  0
  -12.9470   13.0727  -28.1588 C   0  0  0  0  0  0  0  0  0  0  0  0
  -14.0108   13.5225  -27.3719 C   0  0  0  0  0  0  0  0  0  0  0  0
  -14.8454   12.6184  -26.8000 N   0  0  0  0  0  0  0  0  0  0  0  0
  -15.8920   13.0169  -26.0388 C   0  0  0  0  0  0  0  0  0  0  0  0
  -16.1156   14.3369  -25.8275 N   0  0  0  0  0  0  0  0  0  0  0  0
  -15.3163   15.3023  -26.3631 C   0  0  0  0  0  0  0  0  0  0  0  0
  -14.2238   14.9089  -27.1815 C   0  0  0  0  0  0  0  0  0  0  0  0
  -13.3548   15.8202  -27.8159 C   0  0  0  0  0  0  0  0  0  0  0  0
  -10.0959   15.9015  -29.7685 C   0  0  0  0  0  0  0  0  0  0  0  0
   -9.8721   14.6960  -30.0600 O   0  0  0  0  0  0  0  0  0  0  0  0
  -11.3738   16.2844  -29.2309 N   0  0  0  0  0  0  0  0  0  0  0  0
   -9.2818   18.2056  -30.1318 C   0  0  0  0  0  0  0  0  0  0  0  0
   -9.0443   16.8979  -30.0452 C   0  0  0  0  0  0  0  0  0  0  0  0
  -15.6120   16.6847  -26.0490 N   0  0  0  0  0  0  0  0  0  0  0  0
  -14.4537   17.6363  -26.0658 C   0  0  0  0  0  0  0  0  0  0  0  0
  -14.6217   18.9337  -26.9295 C   0  0  0  0  0  0  0  0  0  0  0  0
  -14.9782   20.1559  -26.0761 C   0  0  0  0  0  0  0  0  0  0  0  0
  -13.8820   20.4636  -25.0355 C   0  0  0  0  0  0  0  0  0  0  0  0
  -13.0987   19.2157  -24.5808 C   0  0  0  0  0  0  0  0  0  0  0  0
  -13.9726   17.9584  -24.6224 C   0  0  0  0  0  0  0  0  0  0  0  0
 14 15  2  0
 15 11  1  0
 11 12  2  0
 11 13  1  0
 13  1  1  0
  1  2  2  0
  2  3  1  0
  3  4  2  0
  4  5  1  0
  5  6  2  0
  6  7  1  0
  7  8  2  0
  8 16  1  0
 16 17  1  0
 17 18  1  0
 18 19  1  0
 19 20  1  0
 20 21  1  0
 21 22  1  0
  8  9  1  0
  9 10  2  0
 10  1  1  0
  9  4  1  0
 22 17  1  0
M  CHG  1  16   1
M  END
$$$$
CHEMBL3133894_smina_2
     RDKit          3D

 22 24  0  0  0  0  0  0  0  0999 V2000
  -12.1858   15.6476  -28.2610 C   0  0  0  0  0  0  0  0  0  0  0  0
  -12.4299   14.3474  -27.8018 C   0  0  0  0  0  0  0  0  0  0  0  0
  -13.1043   14.1368  -26.5995 C   0  0  0  0  0  0  0  0  0  0  0  0
  -13.5484   15.2235  -25.8413 C   0  0  0  0  0  0  0  0  0  0  0  0
  -14.2099   14.9984  -24.6782 N   0  0  0  0  0  0  0  0  0  0  0  0
  -14.6632   16.0259  -23.9215 C   0  0  0  0  0  0  0  0  0  0  0  0
  -14.4506   17.3055  -24.3148 N   0  0  0  0  0  0  0  0  0  0  0  0
  -13.7883   17.6092  -25.4667 C   0  0  0  0  0  0  0  0  0  0  0  0
  -13.3210   16.5476  -26.2869 C   0  0  0  0  0  0  0  0  0  0  0  0
  -12.6571   16.7433  -27.5153 C   0  0  0  0  0  0  0  0  0  0  0  0
  -10.4651   16.8117  -29.7092 C   0  0  0  0  0  0  0  0  0  0  0  0
   -9.8280   17.2596  -28.7183 O   0  0  0  0  0  0  0  0  0  0  0  0
  -11.5042   15.8368  -29.5131 N   0  0  0  0  0  0  0  0  0  0  0  0
  -10.8659   17.1426  -32.1245 C   0  0  0  0  0  0  0  0  0  0  0  0
  -10.0789   17.2686  -31.0573 C   0  0  0  0  0  0  0  0  0  0  0  0
  -13.5757   19.0062  -25.7833 N   0  0  0  0  0  0  0  0  0  0  0  0
  -13.9490   19.9963  -24.7213 C   0  0  0  0  0  0  0  0  0  0  0  0
  -12.7674   20.6999  -23.9689 C   0  0  0  0  0  0  0  0  0  0  0  0
  -12.5016   22.1129  -24.4999 C   0  0  0  0  0  0  0  0  0  0  0  0
  -13.7328   23.0265  -24.3297 C   0  0  0  0  0  0  0  0  0  0  0  0
  -15.0728   22.2642  -24.3611 C   0  0  0  0  0  0  0  0  0  0  0  0
  -14.9908   21.0215  -25.2528 C   0  0  0  0  0  0  0  0  0  0  0  0
 14 15  2  0
 15 11  1  0
 11 12  2  0
 11 13  1  0
 13  1  1  0
  1  2  2  0
  2  3  1  0
  3  4  2  0
  4  5  1  0
  5  6  2  0
  6  7  1  0
  7  8  2  0
  8 16  1  0
 16 17  1  0
 17 18  1  0
 18 19  1  0
 19 20  1  0
 20 21  1  0
 21 22  1  0
  8  9  1  0
  9 10  2  0
 10  1  1  0
  9  4  1  0
 22 17  1  0
M  CHG  1  16   1
M  END
$$$$
CHEMBL3133894_smina_3
     RDKit          3D

 22 24  0  0  0  0  0  0  0  0999 V2000
  -13.4397   16.8525  -26.3625 C   0  0  0  0  0  0  0  0  0  0  0  0
  -12.6147   17.5086  -27.2844 C   0  0  0  0  0  0  0  0  0  0  0  0
  -11.9429   16.7874  -28.2709 C   0  0  0  0  0  0  0  0  0  0  0  0
  -12.0900   15.4000  -28.3524 C   0  0  0  0  0  0  0  0  0  0  0  0
  -11.4346   14.7165  -29.3242 N   0  0  0  0  0  0  0  0  0  0  0  0
  -11.5600   13.3732  -29.4401 C   0  0  0  0  0  0  0  0  0  0  0  0
  -12.3412   12.6857  -28.5717 N   0  0  0  0  0  0  0  0  0  0  0  0
  -13.0241   13.3026  -27.5663 C   0  0  0  0  0  0  0  0  0  0  0  0
  -12.9238   14.7138  -27.4373 C   0  0  0  0  0  0  0  0  0  0  0  0
  -13.6133   15.4600  -26.4596 C   0  0  0  0  0  0  0  0  0  0  0  0
  -13.5004   18.1527  -24.1901 C   0  0  0  0  0  0  0  0  0  0  0  0
  -12.2513   18.3189  -24.1706 O   0  0  0  0  0  0  0  0  0  0  0  0
  -14.1354   17.6221  -25.3664 N   0  0  0  0  0  0  0  0  0  0  0  0
  -13.8444   19.4526  -22.1175 C   0  0  0  0  0  0  0  0  0  0  0  0
  -14.2824   18.5661  -23.0099 C   0  0  0  0  0  0  0  0  0  0  0  0
  -13.8021   12.4790  -26.6645 N   0  0  0  0  0  0  0  0  0  0  0  0
  -15.2627   12.3444  -26.9745 C   0  0  0  0  0  0  0  0  0  0  0  0
  -15.8179   10.8864  -27.1280 C   0  0  0  0  0  0  0  0  0  0  0  0
  -16.5453   10.4075  -25.8668 C   0  0  0  0  0  0  0  0  0  0  0  0
  -17.7564   11.3025  -25.5330 C   0  0  0  0  0  0  0  0  0  0  0  0
  -17.5927   12.7603  -26.0081 C   0  0  0  0  0  0  0  0  0  0  0  0
  -16.1234   13.1930  -25.9959 C   0  0  0  0  0  0  0  0  0  0  0  0
 14 15  2  0
 15 11  1  0
 11 12  2  0
 11 13  1  0
 13  1  1  0
  1  2  2  0
  2  3  1  0
  3  4  2  0
  4  5  1  0
  5  6  2  0
  6  7  1  0
  7  8  2  0
  8 16  1  0
 16 17  1  0
 17 18  1  0
 18 19  1  0
 19 20  1  0
 20 21  1  0
 21 22  1  0
  8  9  1  0
  9 10  2  0
 10  1  1  0
  9  4  1  0
 22 17  1  0
M  CHG  1  16   1
M  END
$$$$
CHEMBL3133894_smina_4
     RDKit          3D

 22 24  0  0  0  0  0  0  0  0999 V2000
  -16.3186   10.6104  -27.1189 C   0  0  0  0  0  0  0  0  0  0  0  0
  -17.5077   10.7587  -26.3943 C   0  0  0  0  0  0  0  0  0  0  0  0
  -17.7348   11.9058  -25.6347 C   0  0  0  0  0  0  0  0  0  0  0  0
  -16.7778   12.9235  -25.5923 C   0  0  0  0  0  0  0  0  0  0  0  0
  -17.0203   14.0358  -24.8541 N   0  0  0  0  0  0  0  0  0  0  0  0
  -16.1208   15.0464  -24.7964 C   0  0  0  0  0  0  0  0  0  0  0  0
  -14.9503   14.9544  -25.4736 N   0  0  0  0  0  0  0  0  0  0  0  0
  -14.6341   13.8655  -26.2299 C   0  0  0  0  0  0  0  0  0  0  0  0
  -15.5708   12.8015  -26.3216 C   0  0  0  0  0  0  0  0  0  0  0  0
  -15.3660   11.6452  -27.1022 C   0  0  0  0  0  0  0  0  0  0  0  0
  -17.1954    8.6458  -28.4547 C   0  0  0  0  0  0  0  0  0  0  0  0
  -18.3313    9.1680  -28.6141 O   0  0  0  0  0  0  0  0  0  0  0  0
  -16.1173    9.4255  -27.9086 N   0  0  0  0  0  0  0  0  0  0  0  0
  -15.9501    6.8552  -29.6153 C   0  0  0  0  0  0  0  0  0  0  0  0
  -16.9960    7.2513  -28.8920 C   0  0  0  0  0  0  0  0  0  0  0  0
  -13.3430   13.8418  -26.8853 N   0  0  0  0  0  0  0  0  0  0  0  0
  -13.1543   14.7978  -28.0246 C   0  0  0  0  0  0  0  0  0  0  0  0
  -13.2559   16.3250  -27.6855 C   0  0  0  0  0  0  0  0  0  0  0  0
  -11.8775   16.9819  -27.5519 C   0  0  0  0  0  0  0  0  0  0  0  0
  -11.0678   16.8785  -28.8608 C   0  0  0  0  0  0  0  0  0  0  0  0
  -11.4229   15.6392  -29.7069 C   0  0  0  0  0  0  0  0  0  0  0  0
  -11.8637   14.4660  -28.8263 C   0  0  0  0  0  0  0  0  0  0  0  0
 14 15  2  0
 15 11  1  0
 11 12  2  0
 11 13  1  0
 13  1  1  0
  1  2  2  0
  2  3  1  0
  3  4  2  0
  4  5  1  0
  5  6  2  0
  6  7  1  0
  7  8  2  0
  8 16  1  0
 16 17  1  0
 17 18  1  0
 18 19  1  0
 19 20  1  0
 20 21  1  0
 21 22  1  0
  8  9  1  0
  9 10  2  0
 10  1  1  0
  9  4  1  0
 22 17  1  0
M  CHG  1  16   1
M  END
$$$$
CHEMBL3133894_smina_5
     RDKit          3D

 22 24  0  0  0  0  0  0  0  0999 V2000
  -14.1616   12.9283  -27.3118 C   0  0  0  0  0  0  0  0  0  0  0  0
  -13.2855   12.3671  -28.2492 C   0  0  0  0  0  0  0  0  0  0  0  0
  -12.3535   13.1647  -28.9123 C   0  0  0  0  0  0  0  0  0  0  0  0
  -12.2810   14.5344  -28.6441 C   0  0  0  0  0  0  0  0  0  0  0  0
  -11.3620   15.2927  -29.2933 N   0  0  0  0  0  0  0  0  0  0  0  0
  -11.2561   16.6212  -29.0529 C   0  0  0  0  0  0  0  0  0  0  0  0
  -12.0819   17.2185  -28.1595 N   0  0  0  0  0  0  0  0  0  0  0  0
  -13.0335   16.5234  -27.4747 C   0  0  0  0  0  0  0  0  0  0  0  0
  -13.1501   15.1249  -27.6956 C   0  0  0  0  0  0  0  0  0  0  0  0
  -14.0719   14.3009  -27.0178 C   0  0  0  0  0  0  0  0  0  0  0  0
  -15.8011   10.9987  -27.2683 C   0  0  0  0  0  0  0  0  0  0  0  0
  -15.3400   10.4884  -28.3244 O   0  0  0  0  0  0  0  0  0  0  0  0
  -15.1011   12.0802  -26.6289 N   0  0  0  0  0  0  0  0  0  0  0  0
  -17.7465    9.4759  -27.2899 C   0  0  0  0  0  0  0  0  0  0  0  0
  -17.0291   10.4233  -26.6883 C   0  0  0  0  0  0  0  0  0  0  0  0
  -13.8947   17.2560  -26.5699 N   0  0  0  0  0  0  0  0  0  0  0  0
  -13.5648   18.7030  -26.3582 C   0  0  0  0  0  0  0  0  0  0  0  0
  -14.6008   19.7472  -26.9003 C   0  0  0  0  0  0  0  0  0  0  0  0
  -15.5025   20.2989  -25.7904 C   0  0  0  0  0  0  0  0  0  0  0  0
  -14.6858   21.0208  -24.6990 C   0  0  0  0  0  0  0  0  0  0  0  0
  -13.2537   20.4721  -24.5390 C   0  0  0  0  0  0  0  0  0  0  0  0
  -13.1837   18.9795  -24.8760 C   0  0  0  0  0  0  0  0  0  0  0  0
 14 15  2  0
 15 11  1  0
 11 12  2  0
 11 13  1  0
 13  1  1  0
  1  2  2  0
  2  3  1  0
  3  4  2  0
  4  5  1  0
  5  6  2  0
  6  7  1  0
  7  8  2  0
  8 16  1  0
 16 17  1  0
 17 18  1  0
 18 19  1  0
 19 20  1  0
 20 21  1  0
 21 22  1  0
  8  9  1  0
  9 10  2  0
 10  1  1  0
  9  4  1  0
 22 17  1  0
M  CHG  1  16   1
M  END
$$$$
CHEMBL3133894_smina_6
     RDKit          3D

 22 24  0  0  0  0  0  0  0  0999 V2000
  -13.0730   18.3286  -24.3832 C   0  0  0  0  0  0  0  0  0  0  0  0
  -13.9254   17.4954  -23.6482 C   0  0  0  0  0  0  0  0  0  0  0  0
  -14.4031   16.3077  -24.2012 C   0  0  0  0  0  0  0  0  0  0  0  0
  -14.0316   15.9338  -25.4955 C   0  0  0  0  0  0  0  0  0  0  0  0
  -14.5001   14.7705  -26.0134 N   0  0  0  0  0  0  0  0  0  0  0  0
  -14.1545   14.3709  -27.2603 C   0  0  0  0  0  0  0  0  0  0  0  0
  -13.3364   15.1406  -28.0187 N   0  0  0  0  0  0  0  0  0  0  0  0
  -12.8325   16.3246  -27.5690 C   0  0  0  0  0  0  0  0  0  0  0  0
  -13.1652   16.7546  -26.2566 C   0  0  0  0  0  0  0  0  0  0  0  0
  -12.6734   17.9413  -25.6750 C   0  0  0  0  0  0  0  0  0  0  0  0
  -13.1406   20.8374  -24.0443 C   0  0  0  0  0  0  0  0  0  0  0  0
  -14.3186   20.9374  -24.4809 O   0  0  0  0  0  0  0  0  0  0  0  0
  -12.5802   19.5389  -23.7827 N   0  0  0  0  0  0  0  0  0  0  0  0
  -12.2369   23.0560  -24.6484 C   0  0  0  0  0  0  0  0  0  0  0  0
  -12.3892   22.0745  -23.7609 C   0  0  0  0  0  0  0  0  0  0  0  0
  -11.9982   17.0959  -28.4667 N   0  0  0  0  0  0  0  0  0  0  0  0
  -11.3439   16.3413  -29.5848 C   0  0  0  0  0  0  0  0  0  0  0  0
  -10.4678   17.1778  -30.5799 C   0  0  0  0  0  0  0  0  0  0  0  0
   -8.9701   17.0543  -30.2782 C   0  0  0  0  0  0  0  0  0  0  0  0
   -8.4848   15.5945  -30.3908 C   0  0  0  0  0  0  0  0  0  0  0  0
   -9.5800   14.5565  -30.0737 C   0  0  0  0  0  0  0  0  0  0  0  0
  -10.5838   15.0946  -29.0494 C   0  0  0  0  0  0  0  0  0  0  0  0
 14 15  2  0
 15 11  1  0
 11 12  2  0
 11 13  1  0
 13  1  1  0
  1  2  2  0
  2  3  1  0
  3  4  2  0
  4  5  1  0
  5  6  2  0
  6  7  1  0
  7  8  2  0
  8 16  1  0
 16 17  1  0
 17 18  1  0
 18 19  1  0
 19 20  1  0
 20 21  1  0
 21 22  1  0
  8  9  1  0
  9 10  2  0
 10  1  1  0
  9  4  1  0
 22 17  1  0
M  CHG  1  16   1
M  END
$$$$
CHEMBL3133894_smina_7
     RDKit          3D

 22 24  0  0  0  0  0  0  0  0999 V2000
  -13.0541   17.2821  -26.3818 C   0  0  0  0  0  0  0  0  0  0  0  0
  -12.1346   17.5431  -27.4053 C   0  0  0  0  0  0  0  0  0  0  0  0
  -11.7750   16.5408  -28.3056 C   0  0  0  0  0  0  0  0  0  0  0  0
  -12.3333   15.2641  -28.1983 C   0  0  0  0  0  0  0  0  0  0  0  0
  -11.9771   14.3042  -29.0887 N   0  0  0  0  0  0  0  0  0  0  0  0
  -12.5039   13.0585  -29.0218 C   0  0  0  0  0  0  0  0  0  0  0  0
  -13.3947   12.7482  -28.0485 N   0  0  0  0  0  0  0  0  0  0  0  0
  -13.7946   13.6575  -27.1152 C   0  0  0  0  0  0  0  0  0  0  0  0
  -13.2706   14.9765  -27.1773 C   0  0  0  0  0  0  0  0  0  0  0  0
  -13.6402   16.0068  -26.2885 C   0  0  0  0  0  0  0  0  0  0  0  0
  -14.1849   19.4907  -25.8752 C   0  0  0  0  0  0  0  0  0  0  0  0
  -14.9041   19.4423  -26.9091 O   0  0  0  0  0  0  0  0  0  0  0  0
  -13.4214   18.3385  -25.4777 N   0  0  0  0  0  0  0  0  0  0  0  0
  -13.1041   21.4475  -24.8232 C   0  0  0  0  0  0  0  0  0  0  0  0
  -14.1962   20.7257  -25.0690 C   0  0  0  0  0  0  0  0  0  0  0  0
  -14.7206   13.2215  -26.0908 N   0  0  0  0  0  0  0  0  0  0  0  0
  -15.9960   12.5933  -26.5665 C   0  0  0  0  0  0  0  0  0  0  0  0
  -16.0273   11.0273  -26.6313 C   0  0  0  0  0  0  0  0  0  0  0  0
  -16.7500   10.4118  -25.4279 C   0  0  0  0  0  0  0  0  0  0  0  0
  -18.2192   10.8746  -25.3479 C   0  0  0  0  0  0  0  0  0  0  0  0
  -18.4569   12.2731  -25.9524 C   0  0  0  0  0  0  0  0  0  0  0  0
  -17.2223   13.1670  -25.8014 C   0  0  0  0  0  0  0  0  0  0  0  0
 14 15  2  0
 15 11  1  0
 11 12  2  0
 11 13  1  0
 13  1  1  0
  1  2  2  0
  2  3  1  0
  3  4  2  0
  4  5  1  0
  5  6  2  0
  6  7  1  0
  7  8  2  0
  8 16  1  0
 16 17  1  0
 17 18  1  0
 18 19  1  0
 19 20  1  0
 20 21  1  0
 21 22  1  0
  8  9  1  0
  9 10  2  0
 10  1  1  0
  9  4  1  0
 22 17  1  0
M  CHG  1  16   1
M  END
$$$$
CHEMBL3133894_smina_8
     RDKit          3D

 22 24  0  0  0  0  0  0  0  0999 V2000
  -15.4215   13.4729  -26.4984 C   0  0  0  0  0  0  0  0  0  0  0  0
  -14.3292   12.7246  -26.9542 C   0  0  0  0  0  0  0  0  0  0  0  0
  -13.2148   13.3603  -27.5005 C   0  0  0  0  0  0  0  0  0  0  0  0
  -13.1748   14.7542  -27.5947 C   0  0  0  0  0  0  0  0  0  0  0  0
  -12.0784   15.3551  -28.1218 N   0  0  0  0  0  0  0  0  0  0  0  0
  -11.9998   16.7034  -28.2208 C   0  0  0  0  0  0  0  0  0  0  0  0
  -13.0299   17.4773  -27.8003 N   0  0  0  0  0  0  0  0  0  0  0  0
  -14.1657   16.9451  -27.2668 C   0  0  0  0  0  0  0  0  0  0  0  0
  -14.2627   15.5340  -27.1345 C   0  0  0  0  0  0  0  0  0  0  0  0
  -15.3727   14.8771  -26.5646 C   0  0  0  0  0  0  0  0  0  0  0  0
  -16.7147   11.3648  -25.9535 C   0  0  0  0  0  0  0  0  0  0  0  0
  -15.7114   10.6201  -26.1182 O   0  0  0  0  0  0  0  0  0  0  0  0
  -16.5507   12.7934  -25.9227 N   0  0  0  0  0  0  0  0  0  0  0  0
  -18.9332   10.5811  -26.7072 C   0  0  0  0  0  0  0  0  0  0  0  0
  -18.0304   10.7335  -25.7398 C   0  0  0  0  0  0  0  0  0  0  0  0
  -15.2280   17.8508  -26.8818 N   0  0  0  0  0  0  0  0  0  0  0  0
  -14.9959   18.6658  -25.6451 C   0  0  0  0  0  0  0  0  0  0  0  0
  -14.3329   17.9283  -24.4309 C   0  0  0  0  0  0  0  0  0  0  0  0
  -12.8347   18.2312  -24.3167 C   0  0  0  0  0  0  0  0  0  0  0  0
  -12.5721   19.7369  -24.1089 C   0  0  0  0  0  0  0  0  0  0  0  0
  -13.6528   20.6414  -24.7348 C   0  0  0  0  0  0  0  0  0  0  0  0
  -14.2694   19.9991  -25.9812 C   0  0  0  0  0  0  0  0  0  0  0  0
 14 15  2  0
 15 11  1  0
 11 12  2  0
 11 13  1  0
 13  1  1  0
  1  2  2  0
  2  3  1  0
  3  4  2  0
  4  5  1  0
  5  6  2  0
  6  7  1  0
  7  8  2  0
  8 16  1  0
 16 17  1  0
 17 18  1  0
 18 19  1  0
 19 20  1  0
 20 21  1  0
 21 22  1  0
  8  9  1  0
  9 10  2  0
 10  1  1  0
  9  4  1  0
 22 17  1  0
M  CHG  1  16   1
M  END
$$$$
CHEMBL3133894_smina_9
     RDKit          3D

 22 24  0  0  0  0  0  0  0  0999 V2000
  -15.3612   14.5085  -26.2328 C   0  0  0  0  0  0  0  0  0  0  0  0
  -14.9722   13.2383  -26.6761 C   0  0  0  0  0  0  0  0  0  0  0  0
  -13.8635   13.0886  -27.5086 C   0  0  0  0  0  0  0  0  0  0  0  0
  -13.1251   14.2065  -27.9062 C   0  0  0  0  0  0  0  0  0  0  0  0
  -12.0446   14.0399  -28.7099 N   0  0  0  0  0  0  0  0  0  0  0  0
  -11.2996   15.0983  -29.1080 C   0  0  0  0  0  0  0  0  0  0  0  0
  -11.6331   16.3514  -28.7136 N   0  0  0  0  0  0  0  0  0  0  0  0
  -12.7081   16.5973  -27.9126 C   0  0  0  0  0  0  0  0  0  0  0  0
  -13.4929   15.5006  -27.4660 C   0  0  0  0  0  0  0  0  0  0  0  0
  -14.6032   15.6327  -26.6069 C   0  0  0  0  0  0  0  0  0  0  0  0
  -16.4121   14.5231  -23.9288 C   0  0  0  0  0  0  0  0  0  0  0  0
  -15.3102   14.7147  -23.3480 O   0  0  0  0  0  0  0  0  0  0  0  0
  -16.4976   14.6332  -25.3602 N   0  0  0  0  0  0  0  0  0  0  0  0
  -18.6532   15.0591  -23.0377 C   0  0  0  0  0  0  0  0  0  0  0  0
  -17.6019   14.2439  -23.1031 C   0  0  0  0  0  0  0  0  0  0  0  0
  -13.0076   17.9735  -27.5761 N   0  0  0  0  0  0  0  0  0  0  0  0
  -13.8530   18.1948  -26.3580 C   0  0  0  0  0  0  0  0  0  0  0  0
  -13.0979   18.5690  -25.0362 C   0  0  0  0  0  0  0  0  0  0  0  0
  -13.1526   20.0725  -24.7431 C   0  0  0  0  0  0  0  0  0  0  0  0
  -14.6036   20.5670  -24.5716 C   0  0  0  0  0  0  0  0  0  0  0  0
  -15.6323   19.7435  -25.3723 C   0  0  0  0  0  0  0  0  0  0  0  0
  -15.0204   19.1777  -26.6575 C   0  0  0  0  0  0  0  0  0  0  0  0
 14 15  2  0
 15 11  1  0
 11 12  2  0
 11 13  1  0
 13  1  1  0
  1  2  2  0
  2  3  1  0
  3  4  2  0
  4  5  1  0
  5  6  2  0
  6  7  1  0
  7  8  2  0
  8 16  1  0
 16 17  1  0
 17 18  1  0
 18 19  1  0
 19 20  1  0
 20 21  1  0
 21 22  1  0
  8  9  1  0
  9 10  2  0
 10  1  1  0
  9  4  1  0
 22 17  1  0
M  CHG  1  16   1
M  END
$$$$
CHEMBL3133894_smina_10
     RDKit          3D

 22 24  0  0  0  0  0  0  0  0999 V2000
  -15.9899   13.3428  -26.1873 C   0  0  0  0  0  0  0  0  0  0  0  0
  -16.5897   14.1347  -25.2002 C   0  0  0  0  0  0  0  0  0  0  0  0
  -15.9763   15.3094  -24.7664 C   0  0  0  0  0  0  0  0  0  0  0  0
  -14.7562   15.7116  -25.3167 C   0  0  0  0  0  0  0  0  0  0  0  0
  -14.1786   16.8619  -24.8876 N   0  0  0  0  0  0  0  0  0  0  0  0
  -13.0016   17.2883  -25.4039 C   0  0  0  0  0  0  0  0  0  0  0  0
  -12.3737   16.5588  -26.3581 N   0  0  0  0  0  0  0  0  0  0  0  0
  -12.8892   15.3900  -26.8335 C   0  0  0  0  0  0  0  0  0  0  0  0
  -14.1328   14.9329  -26.3211 C   0  0  0  0  0  0  0  0  0  0  0  0
  -14.7767   13.7594  -26.7643 C   0  0  0  0  0  0  0  0  0  0  0  0
  -15.9546   10.9374  -26.9787 C   0  0  0  0  0  0  0  0  0  0  0  0
  -14.7915   10.7336  -26.5383 O   0  0  0  0  0  0  0  0  0  0  0  0
  -16.6526   12.1455  -26.6296 N   0  0  0  0  0  0  0  0  0  0  0  0
  -16.0219    9.3776  -28.8934 C   0  0  0  0  0  0  0  0  0  0  0  0
  -16.5875    9.8898  -27.8017 C   0  0  0  0  0  0  0  0  0  0  0  0
  -12.1260   14.6612  -27.8251 N   0  0  0  0  0  0  0  0  0  0  0  0
  -11.7132   15.4269  -29.0461 C   0  0  0  0  0  0  0  0  0  0  0  0
  -11.4387   16.9586  -28.8562 C   0  0  0  0  0  0  0  0  0  0  0  0
   -9.9414   17.2711  -28.7567 C   0  0  0  0  0  0  0  0  0  0  0  0
   -9.1849   16.8470  -30.0324 C   0  0  0  0  0  0  0  0  0  0  0  0
   -9.8335   15.6546  -30.7638 C   0  0  0  0  0  0  0  0  0  0  0  0
  -10.5445   14.7151  -29.7850 C   0  0  0  0  0  0  0  0  0  0  0  0
 14 15  2  0
 15 11  1  0
 11 12  2  0
 11 13  1  0
 13  1  1  0
  1  2  2  0
  2  3  1  0
  3  4  2  0
  4  5  1  0
  5  6  2  0
  6  7  1  0
  7  8  2  0
  8 16  1  0
 16 17  1  0
 17 18  1  0
 18 19  1  0
 19 20  1  0
 20 21  1  0
 21 22  1  0
  8  9  1  0
  9 10  2  0
 10  1  1  0
  9  4  1  0
 22 17  1  0
M  CHG  1  16   1
M  END
$$$$
CHEMBL460721_smina_1
     RDKit          3D

 34 36  0  0  0  0  0  0  0  0999 V2000
  -14.9746   13.3013  -26.8359 C   0  0  0  0  0  0  0  0  0  0  0  0
  -14.0402   12.5861  -27.5217 N   0  0  0  0  0  0  0  0  0  0  0  0
  -12.9714   13.1737  -28.1189 C   0  0  0  0  0  0  0  0  0  0  0  0
  -12.8133   14.5597  -28.0647 C   0  0  0  0  0  0  0  0  0  0  0  0
  -11.7382   15.1476  -28.6497 N   0  0  0  0  0  0  0  0  0  0  0  0
  -11.5608   16.4914  -28.5887 C   0  0  0  0  0  0  0  0  0  0  0  0
  -12.4672   17.2706  -27.9458 N   0  0  0  0  0  0  0  0  0  0  0  0
  -13.5767   16.7440  -27.3635 C   0  0  0  0  0  0  0  0  0  0  0  0
  -13.7713   15.3432  -27.3892 C   0  0  0  0  0  0  0  0  0  0  0  0
  -14.8524   14.7016  -26.7610 C   0  0  0  0  0  0  0  0  0  0  0  0
  -14.4808   17.6317  -26.6878 N   0  0  0  0  0  0  0  0  0  0  0  0
  -14.1583   18.3562  -25.4867 C   0  0  0  0  0  0  0  0  0  0  0  0
  -14.1986   17.7412  -24.2204 C   0  0  0  0  0  0  0  0  0  0  0  0
  -13.8389   18.4603  -23.0767 C   0  0  0  0  0  0  0  0  0  0  0  0
  -13.4401   19.7948  -23.1828 C   0  0  0  0  0  0  0  0  0  0  0  0
  -13.4201   20.4204  -24.4341 C   0  0  0  0  0  0  0  0  0  0  0  0
  -12.8666   22.2428  -24.5811 Br  0  0  0  0  0  0  0  0  0  0  0  0
  -13.7821   19.7049  -25.5798 C   0  0  0  0  0  0  0  0  0  0  0  0
  -16.1726   12.5679  -26.2833 C   0  0  0  0  0  0  0  0  0  0  0  0
  -16.0867   11.0737  -26.4233 C   0  0  0  0  0  0  0  0  0  0  0  0
  -16.0056   10.3665  -25.3834 O   0  0  0  0  0  0  0  0  0  0  0  0
  -16.7614    9.4437  -28.2015 C   0  0  0  0  0  0  0  0  0  0  0  0
  -15.9986   10.4571  -27.7645 C   0  0  0  0  0  0  0  0  0  0  0  0
  -17.9637    8.9317  -27.5190 C   0  0  0  0  0  0  0  0  0  0  0  0
  -19.0720    9.4850  -27.7471 O   0  0  0  0  0  0  0  0  0  0  0  0
  -17.8642    7.8882  -26.5365 N   0  0  0  0  0  0  0  0  0  0  0  0
  -19.0268    7.3183  -25.8549 C   0  0  0  0  0  0  0  0  0  0  0  0
  -18.7323    7.1026  -24.3677 C   0  0  0  0  0  0  0  0  0  0  0  0
  -17.9587    8.2794  -23.7573 C   0  0  0  0  0  0  0  0  0  0  0  0
  -17.7695    8.0721  -22.3059 N   0  0  0  0  0  0  0  0  0  0  0  0
  -17.5400    9.3342  -21.5640 C   0  0  0  0  0  0  0  0  0  0  0  0
  -17.9343   10.5986  -22.3467 C   0  0  0  0  0  0  0  0  0  0  0  0
  -16.7643    7.0290  -21.9908 C   0  0  0  0  0  0  0  0  0  0  0  0
  -16.3169    7.1728  -20.5419 C   0  0  0  0  0  0  0  0  0  0  0  0
 22 24  1  0
 24 25  2  0
 24 26  1  0
 26 27  1  0
 27 28  1  0
 28 29  1  0
 29 30  1  0
 30 31  1  0
 31 32  1  0
 30 33  1  0
 33 34  1  0
 22 23  2  0
 23 20  1  0
 20 21  2  0
 20 19  1  0
 19  1  1  0
  1  2  2  0
  2  3  1  0
  3  4  2  0
  4  5  1  0
  5  6  2  0
  6  7  1  0
  7  8  2  0
  8 11  1  0
 11 12  1  0
 12 13  2  0
 13 14  1  0
 14 15  2  0
 15 16  1  0
 16 17  1  0
 16 18  2  0
  8  9  1  0
  9 10  2  0
 10  1  1  0
  9  4  1  0
 18 12  1  0
M  END
$$$$
CHEMBL460721_smina_2
     RDKit          3D

 34 36  0  0  0  0  0  0  0  0999 V2000
  -16.5485   13.3966  -25.4176 C   0  0  0  0  0  0  0  0  0  0  0  0
  -16.6280   13.8013  -24.1195 N   0  0  0  0  0  0  0  0  0  0  0  0
  -15.8649   14.8106  -23.6263 C   0  0  0  0  0  0  0  0  0  0  0  0
  -14.9411   15.4568  -24.4497 C   0  0  0  0  0  0  0  0  0  0  0  0
  -14.1869   16.4751  -23.9620 N   0  0  0  0  0  0  0  0  0  0  0  0
  -13.2989   17.1255  -24.7553 C   0  0  0  0  0  0  0  0  0  0  0  0
  -13.1460   16.7574  -26.0527 N   0  0  0  0  0  0  0  0  0  0  0  0
  -13.8529   15.7292  -26.5915 C   0  0  0  0  0  0  0  0  0  0  0  0
  -14.8048   15.0525  -25.7935 C   0  0  0  0  0  0  0  0  0  0  0  0
  -15.6269   14.0212  -26.2790 C   0  0  0  0  0  0  0  0  0  0  0  0
  -13.6473   15.4100  -27.9764 N   0  0  0  0  0  0  0  0  0  0  0  0
  -12.3540   15.2820  -28.5949 C   0  0  0  0  0  0  0  0  0  0  0  0
  -11.7939   14.0219  -28.8805 C   0  0  0  0  0  0  0  0  0  0  0  0
  -10.5542   13.9311  -29.5202 C   0  0  0  0  0  0  0  0  0  0  0  0
   -9.8616   15.0904  -29.8772 C   0  0  0  0  0  0  0  0  0  0  0  0
  -10.3998   16.3462  -29.5758 C   0  0  0  0  0  0  0  0  0  0  0  0
   -9.4574   17.9322  -30.0714 Br  0  0  0  0  0  0  0  0  0  0  0  0
  -11.6383   16.4407  -28.9334 C   0  0  0  0  0  0  0  0  0  0  0  0
  -17.3735   12.2081  -25.8479 C   0  0  0  0  0  0  0  0  0  0  0  0
  -16.5737   10.9484  -26.0298 C   0  0  0  0  0  0  0  0  0  0  0  0
  -16.3906   10.1927  -25.0381 O   0  0  0  0  0  0  0  0  0  0  0  0
  -16.2686    9.6523  -28.1514 C   0  0  0  0  0  0  0  0  0  0  0  0
  -15.9312   10.6576  -27.3296 C   0  0  0  0  0  0  0  0  0  0  0  0
  -17.4767    8.8178  -28.0189 C   0  0  0  0  0  0  0  0  0  0  0  0
  -18.3999    8.9494  -28.8656 O   0  0  0  0  0  0  0  0  0  0  0  0
  -17.6468    7.9423  -26.8926 N   0  0  0  0  0  0  0  0  0  0  0  0
  -18.8076    7.0666  -26.7287 C   0  0  0  0  0  0  0  0  0  0  0  0
  -18.7923    6.3973  -25.3514 C   0  0  0  0  0  0  0  0  0  0  0  0
  -18.6605    7.4208  -24.2153 C   0  0  0  0  0  0  0  0  0  0  0  0
  -17.8845    6.8477  -23.0951 N   0  0  0  0  0  0  0  0  0  0  0  0
  -18.6060    5.7683  -22.3810 C   0  0  0  0  0  0  0  0  0  0  0  0
  -19.9984    6.1791  -21.8720 C   0  0  0  0  0  0  0  0  0  0  0  0
  -17.3348    7.8757  -22.1791 C   0  0  0  0  0  0  0  0  0  0  0  0
  -16.4803    7.2036  -21.1121 C   0  0  0  0  0  0  0  0  0  0  0  0
 22 24  1  0
 24 25  2  0
 24 26  1  0
 26 27  1  0
 27 28  1  0
 28 29  1  0
 29 30  1  0
 30 31  1  0
 31 32  1  0
 30 33  1  0
 33 34  1  0
 22 23  2  0
 23 20  1  0
 20 21  2  0
 20 19  1  0
 19  1  1  0
  1  2  2  0
  2  3  1  0
  3  4  2  0
  4  5  1  0
  5  6  2  0
  6  7  1  0
  7  8  2  0
  8 11  1  0
 11 12  1  0
 12 13  2  0
 13 14  1  0
 14 15  2  0
 15 16  1  0
 16 17  1  0
 16 18  2  0
  8  9  1  0
  9 10  2  0
 10  1  1  0
  9  4  1  0
 18 12  1  0
M  END
$$$$
CHEMBL460721_smina_3
     RDKit          3D

 34 36  0  0  0  0  0  0  0  0999 V2000
  -14.7640   13.9637  -26.6225 C   0  0  0  0  0  0  0  0  0  0  0  0
  -14.4506   12.6771  -26.9411 N   0  0  0  0  0  0  0  0  0  0  0  0
  -13.3939   12.3629  -27.7342 C   0  0  0  0  0  0  0  0  0  0  0  0
  -12.5992   13.3751  -28.2753 C   0  0  0  0  0  0  0  0  0  0  0  0
  -11.5342   13.0624  -29.0575 N   0  0  0  0  0  0  0  0  0  0  0  0
  -10.7412   14.0343  -29.5746 C   0  0  0  0  0  0  0  0  0  0  0  0
  -11.0102   15.3404  -29.3222 N   0  0  0  0  0  0  0  0  0  0  0  0
  -12.0765   15.7174  -28.5685 C   0  0  0  0  0  0  0  0  0  0  0  0
  -12.9031   14.7230  -27.9952 C   0  0  0  0  0  0  0  0  0  0  0  0
  -13.9887   15.0130  -27.1510 C   0  0  0  0  0  0  0  0  0  0  0  0
  -12.2857   17.1183  -28.3325 N   0  0  0  0  0  0  0  0  0  0  0  0
  -12.6379   17.6809  -27.0553 C   0  0  0  0  0  0  0  0  0  0  0  0
  -11.9804   17.2936  -25.8717 C   0  0  0  0  0  0  0  0  0  0  0  0
  -12.3166   17.8892  -24.6524 C   0  0  0  0  0  0  0  0  0  0  0  0
  -13.3094   18.8705  -24.6004 C   0  0  0  0  0  0  0  0  0  0  0  0
  -13.9840   19.2441  -25.7677 C   0  0  0  0  0  0  0  0  0  0  0  0
  -15.3358   20.5920  -25.6987 Br  0  0  0  0  0  0  0  0  0  0  0  0
  -13.6523   18.6482  -26.9886 C   0  0  0  0  0  0  0  0  0  0  0  0
  -16.0092   14.2154  -25.8075 C   0  0  0  0  0  0  0  0  0  0  0  0
  -15.7440   14.8740  -24.4824 C   0  0  0  0  0  0  0  0  0  0  0  0
  -14.5526   15.0065  -24.0939 O   0  0  0  0  0  0  0  0  0  0  0  0
  -17.5305   14.4439  -22.7801 C   0  0  0  0  0  0  0  0  0  0  0  0
  -16.8711   15.2669  -23.6094 C   0  0  0  0  0  0  0  0  0  0  0  0
  -17.1016   13.0799  -22.4208 C   0  0  0  0  0  0  0  0  0  0  0  0
  -16.0938   12.9372  -21.6788 O   0  0  0  0  0  0  0  0  0  0  0  0
  -17.7548   11.9306  -22.9834 N   0  0  0  0  0  0  0  0  0  0  0  0
  -17.3944   10.5558  -22.6354 C   0  0  0  0  0  0  0  0  0  0  0  0
  -17.1952    9.7110  -23.8970 C   0  0  0  0  0  0  0  0  0  0  0  0
  -17.3167    8.2084  -23.6089 C   0  0  0  0  0  0  0  0  0  0  0  0
  -17.8250    7.9876  -22.2384 N   0  0  0  0  0  0  0  0  0  0  0  0
  -17.0048    7.0280  -21.4623 C   0  0  0  0  0  0  0  0  0  0  0  0
  -16.2404    7.6662  -20.2897 C   0  0  0  0  0  0  0  0  0  0  0  0
  -19.2730    7.6722  -22.1961 C   0  0  0  0  0  0  0  0  0  0  0  0
  -19.8171    7.9596  -20.8027 C   0  0  0  0  0  0  0  0  0  0  0  0
 22 24  1  0
 24 25  2  0
 24 26  1  0
 26 27  1  0
 27 28  1  0
 28 29  1  0
 29 30  1  0
 30 31  1  0
 31 32  1  0
 30 33  1  0
 33 34  1  0
 22 23  2  0
 23 20  1  0
 20 21  2  0
 20 19  1  0
 19  1  1  0
  1  2  2  0
  2  3  1  0
  3  4  2  0
  4  5  1  0
  5  6  2  0
  6  7  1  0
  7  8  2  0
  8 11  1  0
 11 12  1  0
 12 13  2  0
 13 14  1  0
 14 15  2  0
 15 16  1  0
 16 17  1  0
 16 18  2  0
  8  9  1  0
  9 10  2  0
 10  1  1  0
  9  4  1  0
 18 12  1  0
M  END
$$$$
CHEMBL460721_smina_4
     RDKit          3D

 34 36  0  0  0  0  0  0  0  0999 V2000
  -15.0411   13.3109  -26.7652 C   0  0  0  0  0  0  0  0  0  0  0  0
  -14.0461   12.6053  -27.3711 N   0  0  0  0  0  0  0  0  0  0  0  0
  -12.9619   13.2083  -27.9236 C   0  0  0  0  0  0  0  0  0  0  0  0
  -12.8497   14.5997  -27.9058 C   0  0  0  0  0  0  0  0  0  0  0  0
  -11.7599   15.2037  -28.4458 N   0  0  0  0  0  0  0  0  0  0  0  0
  -11.6275   16.5537  -28.4188 C   0  0  0  0  0  0  0  0  0  0  0  0
  -12.5939   17.3228  -27.8562 N   0  0  0  0  0  0  0  0  0  0  0  0
  -13.7196   16.7790  -27.3230 C   0  0  0  0  0  0  0  0  0  0  0  0
  -13.8696   15.3724  -27.3139 C   0  0  0  0  0  0  0  0  0  0  0  0
  -14.9663   14.7161  -26.7294 C   0  0  0  0  0  0  0  0  0  0  0  0
  -14.6891   17.6575  -26.7310 N   0  0  0  0  0  0  0  0  0  0  0  0
  -14.3651   18.7312  -25.8289 C   0  0  0  0  0  0  0  0  0  0  0  0
  -14.0721   20.0263  -26.2980 C   0  0  0  0  0  0  0  0  0  0  0  0
  -13.8025   21.0582  -25.3942 C   0  0  0  0  0  0  0  0  0  0  0  0
  -13.8191   20.8100  -24.0197 C   0  0  0  0  0  0  0  0  0  0  0  0
  -14.0857   19.5208  -23.5459 C   0  0  0  0  0  0  0  0  0  0  0  0
  -14.1170   19.1825  -21.6661 Br  0  0  0  0  0  0  0  0  0  0  0  0
  -14.3530   18.4856  -24.4473 C   0  0  0  0  0  0  0  0  0  0  0  0
  -16.2470   12.5567  -26.2599 C   0  0  0  0  0  0  0  0  0  0  0  0
  -16.1341   11.0648  -26.4052 C   0  0  0  0  0  0  0  0  0  0  0  0
  -16.0127   10.3577  -25.3691 O   0  0  0  0  0  0  0  0  0  0  0  0
  -16.8029    9.4095  -28.1622 C   0  0  0  0  0  0  0  0  0  0  0  0
  -16.0666   10.4523  -27.7495 C   0  0  0  0  0  0  0  0  0  0  0  0
  -17.9605    8.8503  -27.4405 C   0  0  0  0  0  0  0  0  0  0  0  0
  -19.1173    9.2282  -27.7652 O   0  0  0  0  0  0  0  0  0  0  0  0
  -17.7745    7.9679  -26.3221 N   0  0  0  0  0  0  0  0  0  0  0  0
  -18.8858    7.3564  -25.5926 C   0  0  0  0  0  0  0  0  0  0  0  0
  -18.5431    7.2065  -24.1076 C   0  0  0  0  0  0  0  0  0  0  0  0
  -18.8193    8.4946  -23.3200 C   0  0  0  0  0  0  0  0  0  0  0  0
  -17.6909    8.7942  -22.4132 N   0  0  0  0  0  0  0  0  0  0  0  0
  -17.7020    7.9715  -21.1807 C   0  0  0  0  0  0  0  0  0  0  0  0
  -16.4066    7.1742  -20.9510 C   0  0  0  0  0  0  0  0  0  0  0  0
  -17.5321   10.2420  -22.1366 C   0  0  0  0  0  0  0  0  0  0  0  0
  -18.0140   10.5474  -20.7243 C   0  0  0  0  0  0  0  0  0  0  0  0
 22 24  1  0
 24 25  2  0
 24 26  1  0
 26 27  1  0
 27 28  1  0
 28 29  1  0
 29 30  1  0
 30 31  1  0
 31 32  1  0
 30 33  1  0
 33 34  1  0
 22 23  2  0
 23 20  1  0
 20 21  2  0
 20 19  1  0
 19  1  1  0
  1  2  2  0
  2  3  1  0
  3  4  2  0
  4  5  1  0
  5  6  2  0
  6  7  1  0
  7  8  2  0
  8 11  1  0
 11 12  1  0
 12 13  2  0
 13 14  1  0
 14 15  2  0
 15 16  1  0
 16 17  1  0
 16 18  2  0
  8  9  1  0
  9 10  2  0
 10  1  1  0
  9  4  1  0
 18 12  1  0
M  END
$$$$
CHEMBL460721_smina_5
     RDKit          3D

 34 36  0  0  0  0  0  0  0  0999 V2000
  -14.8318   13.4561  -26.7306 C   0  0  0  0  0  0  0  0  0  0  0  0
  -13.9153   12.7186  -27.4170 N   0  0  0  0  0  0  0  0  0  0  0  0
  -12.8722   13.2874  -28.0747 C   0  0  0  0  0  0  0  0  0  0  0  0
  -12.7237   14.6755  -28.0847 C   0  0  0  0  0  0  0  0  0  0  0  0
  -11.6738   15.2452  -28.7304 N   0  0  0  0  0  0  0  0  0  0  0  0
  -11.5055   16.5916  -28.7324 C   0  0  0  0  0  0  0  0  0  0  0  0
  -12.3959   17.3913  -28.0925 N   0  0  0  0  0  0  0  0  0  0  0  0
  -13.4807   16.8826  -27.4509 C   0  0  0  0  0  0  0  0  0  0  0  0
  -13.6646   15.4806  -27.4106 C   0  0  0  0  0  0  0  0  0  0  0  0
  -14.7186   14.8591  -26.7192 C   0  0  0  0  0  0  0  0  0  0  0  0
  -14.3686   17.7921  -26.7828 N   0  0  0  0  0  0  0  0  0  0  0  0
  -14.0602   18.4657  -25.5488 C   0  0  0  0  0  0  0  0  0  0  0  0
  -14.1374   17.8045  -24.3077 C   0  0  0  0  0  0  0  0  0  0  0  0
  -13.7907   18.4742  -23.1305 C   0  0  0  0  0  0  0  0  0  0  0  0
  -13.3683   19.8048  -23.1779 C   0  0  0  0  0  0  0  0  0  0  0  0
  -13.3114   20.4762  -24.4040 C   0  0  0  0  0  0  0  0  0  0  0  0
  -12.7256   22.2932  -24.4707 Br  0  0  0  0  0  0  0  0  0  0  0  0
  -13.6603   19.8103  -25.5832 C   0  0  0  0  0  0  0  0  0  0  0  0
  -16.0044   12.7389  -26.1068 C   0  0  0  0  0  0  0  0  0  0  0  0
  -16.8594   13.6171  -25.2366 C   0  0  0  0  0  0  0  0  0  0  0  0
  -18.1129   13.5556  -25.3512 O   0  0  0  0  0  0  0  0  0  0  0  0
  -16.3277   14.6032  -22.9963 C   0  0  0  0  0  0  0  0  0  0  0  0
  -16.2313   14.6062  -24.3343 C   0  0  0  0  0  0  0  0  0  0  0  0
  -16.8691   13.4957  -22.1875 C   0  0  0  0  0  0  0  0  0  0  0  0
  -16.1482   12.4824  -21.9878 O   0  0  0  0  0  0  0  0  0  0  0  0
  -18.2266   13.5223  -21.7179 N   0  0  0  0  0  0  0  0  0  0  0  0
  -18.8046   12.4688  -20.8830 C   0  0  0  0  0  0  0  0  0  0  0  0
  -17.7993   11.3338  -20.6679 C   0  0  0  0  0  0  0  0  0  0  0  0
  -18.4163    9.9570  -20.9494 C   0  0  0  0  0  0  0  0  0  0  0  0
  -17.4113    9.0579  -21.5553 N   0  0  0  0  0  0  0  0  0  0  0  0
  -17.3823    9.1324  -23.0350 C   0  0  0  0  0  0  0  0  0  0  0  0
  -18.7438    9.4636  -23.6698 C   0  0  0  0  0  0  0  0  0  0  0  0
  -17.4932    7.6661  -21.0511 C   0  0  0  0  0  0  0  0  0  0  0  0
  -16.1616    7.2710  -20.4257 C   0  0  0  0  0  0  0  0  0  0  0  0
 22 24  1  0
 24 25  2  0
 24 26  1  0
 26 27  1  0
 27 28  1  0
 28 29  1  0
 29 30  1  0
 30 31  1  0
 31 32  1  0
 30 33  1  0
 33 34  1  0
 22 23  2  0
 23 20  1  0
 20 21  2  0
 20 19  1  0
 19  1  1  0
  1  2  2  0
  2  3  1  0
  3  4  2  0
  4  5  1  0
  5  6  2  0
  6  7  1  0
  7  8  2  0
  8 11  1  0
 11 12  1  0
 12 13  2  0
 13 14  1  0
 14 15  2  0
 15 16  1  0
 16 17  1  0
 16 18  2  0
  8  9  1  0
  9 10  2  0
 10  1  1  0
  9  4  1  0
 18 12  1  0
M  END
$$$$
CHEMBL460721_smina_6
     RDKit          3D

 34 36  0  0  0  0  0  0  0  0999 V2000
  -13.7480   16.7434  -24.2937 C   0  0  0  0  0  0  0  0  0  0  0  0
  -14.9702   16.7191  -23.6933 N   0  0  0  0  0  0  0  0  0  0  0  0
  -15.9156   15.7969  -24.0095 C   0  0  0  0  0  0  0  0  0  0  0  0
  -15.6617   14.8444  -24.9980 C   0  0  0  0  0  0  0  0  0  0  0  0
  -16.6006   13.9131  -25.3061 N   0  0  0  0  0  0  0  0  0  0  0  0
  -16.3610   12.9691  -26.2507 C   0  0  0  0  0  0  0  0  0  0  0  0
  -15.1750   12.9498  -26.9104 N   0  0  0  0  0  0  0  0  0  0  0  0
  -14.2061   13.8708  -26.6652 C   0  0  0  0  0  0  0  0  0  0  0  0
  -14.4201   14.8490  -25.6660 C   0  0  0  0  0  0  0  0  0  0  0  0
  -13.4545   15.8015  -25.2977 C   0  0  0  0  0  0  0  0  0  0  0  0
  -12.9717   13.7746  -27.3924 N   0  0  0  0  0  0  0  0  0  0  0  0
  -12.3413   14.8783  -28.0679 C   0  0  0  0  0  0  0  0  0  0  0  0
  -12.7350   16.2098  -27.8324 C   0  0  0  0  0  0  0  0  0  0  0  0
  -12.0748   17.2628  -28.4725 C   0  0  0  0  0  0  0  0  0  0  0  0
  -11.0222   17.0003  -29.3524 C   0  0  0  0  0  0  0  0  0  0  0  0
  -10.6404   15.6792  -29.6102 C   0  0  0  0  0  0  0  0  0  0  0  0
   -9.1953   15.3198  -30.8067 Br  0  0  0  0  0  0  0  0  0  0  0  0
  -11.3005   14.6233  -28.9739 C   0  0  0  0  0  0  0  0  0  0  0  0
  -12.7984   17.8613  -23.9375 C   0  0  0  0  0  0  0  0  0  0  0  0
  -13.1376   19.1748  -24.5850 C   0  0  0  0  0  0  0  0  0  0  0  0
  -12.7970   20.2442  -24.0120 O   0  0  0  0  0  0  0  0  0  0  0  0
  -15.2487   19.5166  -25.8892 C   0  0  0  0  0  0  0  0  0  0  0  0
  -13.9453   19.2058  -25.8234 C   0  0  0  0  0  0  0  0  0  0  0  0
  -16.0368   20.1045  -24.7906 C   0  0  0  0  0  0  0  0  0  0  0  0
  -16.9821   19.4343  -24.2968 O   0  0  0  0  0  0  0  0  0  0  0  0
  -15.8009   21.4531  -24.3552 N   0  0  0  0  0  0  0  0  0  0  0  0
  -16.5279   22.0745  -23.2478 C   0  0  0  0  0  0  0  0  0  0  0  0
  -15.5819   22.9044  -22.3752 C   0  0  0  0  0  0  0  0  0  0  0  0
  -14.4529   22.0527  -21.7787 C   0  0  0  0  0  0  0  0  0  0  0  0
  -14.7278   21.7590  -20.3562 N   0  0  0  0  0  0  0  0  0  0  0  0
  -15.2785   20.4005  -20.1395 C   0  0  0  0  0  0  0  0  0  0  0  0
  -14.8447   19.3748  -21.2007 C   0  0  0  0  0  0  0  0  0  0  0  0
  -15.5220   22.8154  -19.6845 C   0  0  0  0  0  0  0  0  0  0  0  0
  -15.1071   22.9133  -18.2221 C   0  0  0  0  0  0  0  0  0  0  0  0
 22 24  1  0
 24 25  2  0
 24 26  1  0
 26 27  1  0
 27 28  1  0
 28 29  1  0
 29 30  1  0
 30 31  1  0
 31 32  1  0
 30 33  1  0
 33 34  1  0
 22 23  2  0
 23 20  1  0
 20 21  2  0
 20 19  1  0
 19  1  1  0
  1  2  2  0
  2  3  1  0
  3  4  2  0
  4  5  1  0
  5  6  2  0
  6  7  1  0
  7  8  2  0
  8 11  1  0
 11 12  1  0
 12 13  2  0
 13 14  1  0
 14 15  2  0
 15 16  1  0
 16 17  1  0
 16 18  2  0
  8  9  1  0
  9 10  2  0
 10  1  1  0
  9  4  1  0
 18 12  1  0
M  END
$$$$
CHEMBL460721_smina_7
     RDKit          3D

 34 36  0  0  0  0  0  0  0  0999 V2000
  -15.3681   12.1337  -27.0326 C   0  0  0  0  0  0  0  0  0  0  0  0
  -15.0048   11.2684  -28.0197 N   0  0  0  0  0  0  0  0  0  0  0  0
  -15.6652   10.1028  -28.2420 C   0  0  0  0  0  0  0  0  0  0  0  0
  -16.7422    9.7423  -27.4301 C   0  0  0  0  0  0  0  0  0  0  0  0
  -17.4123    8.5838  -27.6594 N   0  0  0  0  0  0  0  0  0  0  0  0
  -18.4730    8.2294  -26.8911 C   0  0  0  0  0  0  0  0  0  0  0  0
  -18.8741    9.0298  -25.8710 N   0  0  0  0  0  0  0  0  0  0  0  0
  -18.2279   10.1885  -25.5756 C   0  0  0  0  0  0  0  0  0  0  0  0
  -17.1361   10.5943  -26.3782 C   0  0  0  0  0  0  0  0  0  0  0  0
  -16.4470   11.8048  -26.1905 C   0  0  0  0  0  0  0  0  0  0  0  0
  -18.7223   10.9897  -24.4913 N   0  0  0  0  0  0  0  0  0  0  0  0
  -18.3338   10.8197  -23.1159 C   0  0  0  0  0  0  0  0  0  0  0  0
  -18.4884   11.8535  -22.1722 C   0  0  0  0  0  0  0  0  0  0  0  0
  -18.1407   11.6434  -20.8344 C   0  0  0  0  0  0  0  0  0  0  0  0
  -17.6348   10.4070  -20.4263 C   0  0  0  0  0  0  0  0  0  0  0  0
  -17.4558    9.3823  -21.3619 C   0  0  0  0  0  0  0  0  0  0  0  0
  -16.7720    7.6885  -20.8029 Br  0  0  0  0  0  0  0  0  0  0  0  0
  -17.7997    9.5900  -22.7013 C   0  0  0  0  0  0  0  0  0  0  0  0
  -14.5173   13.3600  -26.8079 C   0  0  0  0  0  0  0  0  0  0  0  0
  -13.0644   13.1590  -27.1370 C   0  0  0  0  0  0  0  0  0  0  0  0
  -12.2126   13.2334  -26.2113 O   0  0  0  0  0  0  0  0  0  0  0  0
  -12.2228   13.9572  -29.3570 C   0  0  0  0  0  0  0  0  0  0  0  0
  -12.6392   12.9767  -28.5416 C   0  0  0  0  0  0  0  0  0  0  0  0
  -11.8933   15.3302  -28.9330 C   0  0  0  0  0  0  0  0  0  0  0  0
  -10.8109   15.8420  -29.3243 O   0  0  0  0  0  0  0  0  0  0  0  0
  -12.7373   16.0386  -28.0112 N   0  0  0  0  0  0  0  0  0  0  0  0
  -12.4779   17.4140  -27.5844 C   0  0  0  0  0  0  0  0  0  0  0  0
  -13.6313   17.9428  -26.7270 C   0  0  0  0  0  0  0  0  0  0  0  0
  -13.1453   18.4696  -25.3698 C   0  0  0  0  0  0  0  0  0  0  0  0
  -14.2972   18.8359  -24.5187 N   0  0  0  0  0  0  0  0  0  0  0  0
  -14.4627   20.3004  -24.3641 C   0  0  0  0  0  0  0  0  0  0  0  0
  -13.2976   21.1241  -24.9390 C   0  0  0  0  0  0  0  0  0  0  0  0
  -14.3193   18.1148  -23.2235 C   0  0  0  0  0  0  0  0  0  0  0  0
  -13.9851   19.0822  -22.0953 C   0  0  0  0  0  0  0  0  0  0  0  0
 22 24  1  0
 24 25  2  0
 24 26  1  0
 26 27  1  0
 27 28  1  0
 28 29  1  0
 29 30  1  0
 30 31  1  0
 31 32  1  0
 30 33  1  0
 33 34  1  0
 22 23  2  0
 23 20  1  0
 20 21  2  0
 20 19  1  0
 19  1  1  0
  1  2  2  0
  2  3  1  0
  3  4  2  0
  4  5  1  0
  5  6  2  0
  6  7  1  0
  7  8  2  0
  8 11  1  0
 11 12  1  0
 12 13  2  0
 13 14  1  0
 14 15  2  0
 15 16  1  0
 16 17  1  0
 16 18  2  0
  8  9  1  0
  9 10  2  0
 10  1  1  0
  9  4  1  0
 18 12  1  0
M  END
$$$$
CHEMBL460721_smina_8
     RDKit          3D

 34 36  0  0  0  0  0  0  0  0999 V2000
  -15.5079   15.1295  -25.9325 C   0  0  0  0  0  0  0  0  0  0  0  0
  -14.4988   14.8442  -26.8018 N   0  0  0  0  0  0  0  0  0  0  0  0
  -14.3267   13.6061  -27.3323 C   0  0  0  0  0  0  0  0  0  0  0  0
  -15.1842   12.5647  -26.9727 C   0  0  0  0  0  0  0  0  0  0  0  0
  -15.0219   11.3294  -27.5125 N   0  0  0  0  0  0  0  0  0  0  0  0
  -15.8591   10.3123  -27.1876 C   0  0  0  0  0  0  0  0  0  0  0  0
  -16.8704   10.5166  -26.3058 N   0  0  0  0  0  0  0  0  0  0  0  0
  -17.0681   11.7232  -25.7124 C   0  0  0  0  0  0  0  0  0  0  0  0
  -16.2261   12.8072  -26.0544 C   0  0  0  0  0  0  0  0  0  0  0  0
  -16.3918   14.1057  -25.5427 C   0  0  0  0  0  0  0  0  0  0  0  0
  -18.1699   11.8653  -24.8025 N   0  0  0  0  0  0  0  0  0  0  0  0
  -18.1064   11.5543  -23.3986 C   0  0  0  0  0  0  0  0  0  0  0  0
  -18.4278   12.5101  -22.4157 C   0  0  0  0  0  0  0  0  0  0  0  0
  -18.3972   12.1648  -21.0613 C   0  0  0  0  0  0  0  0  0  0  0  0
  -18.0444   10.8698  -20.6746 C   0  0  0  0  0  0  0  0  0  0  0  0
  -17.7006    9.9208  -21.6435 C   0  0  0  0  0  0  0  0  0  0  0  0
  -17.2263    8.1472  -21.1159 Br  0  0  0  0  0  0  0  0  0  0  0  0
  -17.7273   10.2636  -22.9990 C   0  0  0  0  0  0  0  0  0  0  0  0
  -15.5626   16.5120  -25.3292 C   0  0  0  0  0  0  0  0  0  0  0  0
  -15.1383   16.5622  -23.8880 C   0  0  0  0  0  0  0  0  0  0  0  0
  -15.6027   15.7095  -23.0846 O   0  0  0  0  0  0  0  0  0  0  0  0
  -13.4647   18.4026  -24.1808 C   0  0  0  0  0  0  0  0  0  0  0  0
  -14.2685   17.6573  -23.4074 C   0  0  0  0  0  0  0  0  0  0  0  0
  -13.4843   18.4208  -25.6548 C   0  0  0  0  0  0  0  0  0  0  0  0
  -14.2509   19.2304  -26.2407 O   0  0  0  0  0  0  0  0  0  0  0  0
  -12.7215   17.4683  -26.4130 N   0  0  0  0  0  0  0  0  0  0  0  0
  -12.6760   17.4627  -27.8755 C   0  0  0  0  0  0  0  0  0  0  0  0
  -11.3128   16.9749  -28.3743 C   0  0  0  0  0  0  0  0  0  0  0  0
  -11.4153   15.6301  -29.1068 C   0  0  0  0  0  0  0  0  0  0  0  0
  -10.7262   15.7027  -30.4127 N   0  0  0  0  0  0  0  0  0  0  0  0
   -9.4248   14.9940  -30.4230 C   0  0  0  0  0  0  0  0  0  0  0  0
   -8.2342   15.8696  -29.9959 C   0  0  0  0  0  0  0  0  0  0  0  0
  -10.6342   17.0818  -30.9488 C   0  0  0  0  0  0  0  0  0  0  0  0
  -10.7647   17.0491  -32.4660 C   0  0  0  0  0  0  0  0  0  0  0  0
 22 24  1  0
 24 25  2  0
 24 26  1  0
 26 27  1  0
 27 28  1  0
 28 29  1  0
 29 30  1  0
 30 31  1  0
 31 32  1  0
 30 33  1  0
 33 34  1  0
 22 23  2  0
 23 20  1  0
 20 21  2  0
 20 19  1  0
 19  1  1  0
  1  2  2  0
  2  3  1  0
  3  4  2  0
  4  5  1  0
  5  6  2  0
  6  7  1  0
  7  8  2  0
  8 11  1  0
 11 12  1  0
 12 13  2  0
 13 14  1  0
 14 15  2  0
 15 16  1  0
 16 17  1  0
 16 18  2  0
  8  9  1  0
  9 10  2  0
 10  1  1  0
  9  4  1  0
 18 12  1  0
M  END
$$$$
CHEMBL460721_smina_9
     RDKit          3D

 34 36  0  0  0  0  0  0  0  0999 V2000
  -16.1050   15.9263  -23.6698 C   0  0  0  0  0  0  0  0  0  0  0  0
  -17.1462   16.7926  -23.5265 N   0  0  0  0  0  0  0  0  0  0  0  0
  -17.1179   18.0513  -24.0355 C   0  0  0  0  0  0  0  0  0  0  0  0
  -15.9855   18.5076  -24.7125 C   0  0  0  0  0  0  0  0  0  0  0  0
  -15.9606   19.7611  -25.2339 N   0  0  0  0  0  0  0  0  0  0  0  0
  -14.8748   20.2118  -25.9112 C   0  0  0  0  0  0  0  0  0  0  0  0
  -13.7890   19.4129  -26.0687 N   0  0  0  0  0  0  0  0  0  0  0  0
  -13.7435   18.1584  -25.5476 C   0  0  0  0  0  0  0  0  0  0  0  0
  -14.8728   17.6546  -24.8606 C   0  0  0  0  0  0  0  0  0  0  0  0
  -14.9438   16.3497  -24.3433 C   0  0  0  0  0  0  0  0  0  0  0  0
  -12.5658   17.3678  -25.7707 N   0  0  0  0  0  0  0  0  0  0  0  0
  -12.3423   16.5596  -26.9405 C   0  0  0  0  0  0  0  0  0  0  0  0
  -12.8563   15.2526  -27.0438 C   0  0  0  0  0  0  0  0  0  0  0  0
  -12.6578   14.5082  -28.2104 C   0  0  0  0  0  0  0  0  0  0  0  0
  -11.9455   15.0556  -29.2800 C   0  0  0  0  0  0  0  0  0  0  0  0
  -11.4111   16.3444  -29.1766 C   0  0  0  0  0  0  0  0  0  0  0  0
  -10.4442   17.0970  -30.6422 Br  0  0  0  0  0  0  0  0  0  0  0  0
  -11.6052   17.0907  -28.0100 C   0  0  0  0  0  0  0  0  0  0  0  0
  -16.1960   14.5806  -22.9921 C   0  0  0  0  0  0  0  0  0  0  0  0
  -17.0037   13.5696  -23.7571 C   0  0  0  0  0  0  0  0  0  0  0  0
  -17.4958   12.5874  -23.1396 O   0  0  0  0  0  0  0  0  0  0  0  0
  -16.9440   12.6732  -26.0953 C   0  0  0  0  0  0  0  0  0  0  0  0
  -17.1305   13.6782  -25.2265 C   0  0  0  0  0  0  0  0  0  0  0  0
  -16.8161   11.2502  -25.7313 C   0  0  0  0  0  0  0  0  0  0  0  0
  -15.7582   10.6391  -26.0376 O   0  0  0  0  0  0  0  0  0  0  0  0
  -17.9119   10.5431  -25.1287 N   0  0  0  0  0  0  0  0  0  0  0  0
  -17.8287    9.1420  -24.7151 C   0  0  0  0  0  0  0  0  0  0  0  0
  -17.4114    9.0338  -23.2457 C   0  0  0  0  0  0  0  0  0  0  0  0
  -18.6227    9.0102  -22.3033 C   0  0  0  0  0  0  0  0  0  0  0  0
  -18.3831    8.0770  -21.1821 N   0  0  0  0  0  0  0  0  0  0  0  0
  -17.1937    7.2171  -21.3862 C   0  0  0  0  0  0  0  0  0  0  0  0
  -16.1314    7.3490  -20.2813 C   0  0  0  0  0  0  0  0  0  0  0  0
  -19.5895    7.3072  -20.7948 C   0  0  0  0  0  0  0  0  0  0  0  0
  -19.3236    5.8181  -20.9735 C   0  0  0  0  0  0  0  0  0  0  0  0
 22 24  1  0
 24 25  2  0
 24 26  1  0
 26 27  1  0
 27 28  1  0
 28 29  1  0
 29 30  1  0
 30 31  1  0
 31 32  1  0
 30 33  1  0
 33 34  1  0
 22 23  2  0
 23 20  1  0
 20 21  2  0
 20 19  1  0
 19  1  1  0
  1  2  2  0
  2  3  1  0
  3  4  2  0
  4  5  1  0
  5  6  2  0
  6  7  1  0
  7  8  2  0
  8 11  1  0
 11 12  1  0
 12 13  2  0
 13 14  1  0
 14 15  2  0
 15 16  1  0
 16 17  1  0
 16 18  2  0
  8  9  1  0
  9 10  2  0
 10  1  1  0
  9  4  1  0
 18 12  1  0
M  END
$$$$
CHEMBL460721_smina_10
     RDKit          3D

 34 36  0  0  0  0  0  0  0  0999 V2000
  -15.1432   14.0826  -26.3433 C   0  0  0  0  0  0  0  0  0  0  0  0
  -14.9429   12.7595  -26.5968 N   0  0  0  0  0  0  0  0  0  0  0  0
  -13.9248   12.3168  -27.3789 C   0  0  0  0  0  0  0  0  0  0  0  0
  -13.0530   13.2289  -27.9763 C   0  0  0  0  0  0  0  0  0  0  0  0
  -12.0263   12.7875  -28.7476 N   0  0  0  0  0  0  0  0  0  0  0  0
  -11.1594   13.6610  -29.3189 C   0  0  0  0  0  0  0  0  0  0  0  0
  -11.3145   14.9964  -29.1327 N   0  0  0  0  0  0  0  0  0  0  0  0
  -12.3374   15.5005  -28.3931 C   0  0  0  0  0  0  0  0  0  0  0  0
  -13.2391   14.6103  -27.7643 C   0  0  0  0  0  0  0  0  0  0  0  0
  -14.2875   15.0340  -26.9298 C   0  0  0  0  0  0  0  0  0  0  0  0
  -12.4250   16.9243  -28.2285 N   0  0  0  0  0  0  0  0  0  0  0  0
  -12.7167   17.5790  -26.9803 C   0  0  0  0  0  0  0  0  0  0  0  0
  -11.9752   17.3084  -25.8140 C   0  0  0  0  0  0  0  0  0  0  0  0
  -12.2556   17.9918  -24.6271 C   0  0  0  0  0  0  0  0  0  0  0  0
  -13.2756   18.9454  -24.5901 C   0  0  0  0  0  0  0  0  0  0  0  0
  -14.0328   19.2032  -25.7379 C   0  0  0  0  0  0  0  0  0  0  0  0
  -15.4221   20.5133  -25.6904 Br  0  0  0  0  0  0  0  0  0  0  0  0
  -13.7569   18.5193  -26.9261 C   0  0  0  0  0  0  0  0  0  0  0  0
  -16.3543   14.4804  -25.5348 C   0  0  0  0  0  0  0  0  0  0  0  0
  -16.0200   15.1399  -24.2260 C   0  0  0  0  0  0  0  0  0  0  0  0
  -14.9783   14.7852  -23.6119 O   0  0  0  0  0  0  0  0  0  0  0  0
  -18.1350   15.8133  -23.0653 C   0  0  0  0  0  0  0  0  0  0  0  0
  -16.9546   16.1164  -23.6262 C   0  0  0  0  0  0  0  0  0  0  0  0
  -18.5938   14.4509  -22.7386 C   0  0  0  0  0  0  0  0  0  0  0  0
  -19.5638   13.9678  -23.3806 O   0  0  0  0  0  0  0  0  0  0  0  0
  -18.0155   13.7221  -21.6438 N   0  0  0  0  0  0  0  0  0  0  0  0
  -18.4070   12.3554  -21.2975 C   0  0  0  0  0  0  0  0  0  0  0  0
  -17.2212   11.3975  -21.4441 C   0  0  0  0  0  0  0  0  0  0  0  0
  -17.6594    9.9273  -21.3968 C   0  0  0  0  0  0  0  0  0  0  0  0
  -17.2329    9.2245  -22.6255 N   0  0  0  0  0  0  0  0  0  0  0  0
  -17.9792    9.6566  -23.8306 C   0  0  0  0  0  0  0  0  0  0  0  0
  -17.0830   10.1875  -24.9625 C   0  0  0  0  0  0  0  0  0  0  0  0
  -17.1933    7.7505  -22.4715 C   0  0  0  0  0  0  0  0  0  0  0  0
  -17.8809    7.3548  -21.1711 C   0  0  0  0  0  0  0  0  0  0  0  0
 22 24  1  0
 24 25  2  0
 24 26  1  0
 26 27  1  0
 27 28  1  0
 28 29  1  0
 29 30  1  0
 30 31  1  0
 31 32  1  0
 30 33  1  0
 33 34  1  0
 22 23  2  0
 23 20  1  0
 20 21  2  0
 20 19  1  0
 19  1  1  0
  1  2  2  0
  2  3  1  0
  3  4  2  0
  4  5  1  0
  5  6  2  0
  6  7  1  0
  7  8  2  0
  8 11  1  0
 11 12  1  0
 12 13  2  0
 13 14  1  0
 14 15  2  0
 15 16  1  0
 16 17  1  0
 16 18  2  0
  8  9  1  0
  9 10  2  0
 10  1  1  0
  9  4  1  0
 18 12  1  0
M  END
$$$$
CHEMBL4858409_smina_1
     RDKit          3D

 35 38  0  0  0  0  0  0  0  0999 V2000
  -15.0050   18.1741  -22.7369 C   0  0  0  0  0  0  0  0  0  0  0  0
  -15.3457   17.0621  -23.4367 N   0  0  0  0  0  0  0  0  0  0  0  0
  -16.5605   16.4686  -23.3173 C   0  0  0  0  0  0  0  0  0  0  0  0
  -17.4930   17.0098  -22.4909 N   0  0  0  0  0  0  0  0  0  0  0  0
  -17.2239   18.1225  -21.7686 C   0  0  0  0  0  0  0  0  0  0  0  0
  -15.9734   18.7476  -21.8646 C   0  0  0  0  0  0  0  0  0  0  0  0
  -15.7277   20.1563  -20.8230 Cl  0  0  0  0  0  0  0  0  0  0  0  0
  -13.6569   18.6759  -22.8958 N   0  0  0  0  0  0  0  0  0  0  0  0
  -13.5089   20.2259  -24.8346 C   0  0  0  0  0  0  0  0  0  0  0  0
  -13.2289   21.5260  -25.3047 C   0  0  0  0  0  0  0  0  0  0  0  0
  -12.6848   22.4936  -24.4477 C   0  0  0  0  0  0  0  0  0  0  0  0
  -12.4273   22.1799  -23.1107 C   0  0  0  0  0  0  0  0  0  0  0  0
  -12.7195   20.9074  -22.6212 C   0  0  0  0  0  0  0  0  0  0  0  0
  -13.3058   19.9443  -23.4576 C   0  0  0  0  0  0  0  0  0  0  0  0
  -13.1536   18.2510  -26.1181 O   0  0  0  0  0  0  0  0  0  0  0  0
  -13.9482   19.1736  -25.7896 C   0  0  0  0  0  0  0  0  0  0  0  0
  -15.2354   19.2477  -26.4119 N   0  0  0  0  0  0  0  0  0  0  0  0
  -15.3485   19.7326  -27.6721 O   0  0  0  0  0  0  0  0  0  0  0  0
  -16.8430   15.2806  -24.0600 N   0  0  0  0  0  0  0  0  0  0  0  0
  -15.9588   14.6868  -25.0352 C   0  0  0  0  0  0  0  0  0  0  0  0
  -16.3608   13.6084  -25.8439 C   0  0  0  0  0  0  0  0  0  0  0  0
  -15.4488   13.0115  -26.7239 C   0  0  0  0  0  0  0  0  0  0  0  0
  -14.1310   13.4851  -26.8191 C   0  0  0  0  0  0  0  0  0  0  0  0
  -13.7218   14.5397  -25.9876 C   0  0  0  0  0  0  0  0  0  0  0  0
  -14.6289   15.1327  -25.0978 C   0  0  0  0  0  0  0  0  0  0  0  0
  -13.2100   12.9534  -27.7557 O   0  0  0  0  0  0  0  0  0  0  0  0
  -11.8721   13.4145  -27.9792 C   0  0  0  0  0  0  0  0  0  0  0  0
  -11.8845   14.5523  -28.9711 C   0  0  0  0  0  0  0  0  0  0  0  0
  -12.9128   14.7464  -29.6813 O   0  0  0  0  0  0  0  0  0  0  0  0
  -10.7476   15.4368  -29.1098 N   0  0  0  0  0  0  0  0  0  0  0  0
  -10.9642   16.8889  -29.1422 C   0  0  0  0  0  0  0  0  0  0  0  0
  -10.1393   17.5185  -30.2550 C   0  0  0  0  0  0  0  0  0  0  0  0
   -8.7863   17.1877  -30.0605 O   0  0  0  0  0  0  0  0  0  0  0  0
   -8.5586   15.8305  -30.3638 C   0  0  0  0  0  0  0  0  0  0  0  0
   -9.5514   14.8277  -29.7150 C   0  0  0  0  0  0  0  0  0  0  0  0
 15 16  2  0
 16 17  1  0
 17 18  1  0
 16  9  1  0
  9 10  2  0
 10 11  1  0
 11 12  2  0
 12 13  1  0
 13 14  2  0
 14  8  1  0
  8  1  1  0
  1  2  2  0
  2  3  1  0
  3 19  1  0
 19 20  1  0
 20 21  2  0
 21 22  1  0
 22 23  2  0
 23 26  1  0
 26 27  1  0
 27 28  1  0
 28 29  2  0
 28 30  1  0
 30 31  1  0
 31 32  1  0
 32 33  1  0
 33 34  1  0
 34 35  1  0
 23 24  1  0
 24 25  2  0
  3  4  2  0
  4  5  1  0
  5  6  2  0
  6  7  1  0
 14  9  1  0
  6  1  1  0
 25 20  1  0
 35 30  1  0
M  END
$$$$
CHEMBL4858409_smina_2
     RDKit          3D

 35 38  0  0  0  0  0  0  0  0999 V2000
  -17.5132    9.8565  -24.8570 C   0  0  0  0  0  0  0  0  0  0  0  0
  -16.3975   10.4874  -25.3035 N   0  0  0  0  0  0  0  0  0  0  0  0
  -16.0863   10.5736  -26.6218 C   0  0  0  0  0  0  0  0  0  0  0  0
  -16.9256   10.0373  -27.5455 N   0  0  0  0  0  0  0  0  0  0  0  0
  -18.0600    9.4003  -27.1715 C   0  0  0  0  0  0  0  0  0  0  0  0
  -18.3981    9.2870  -25.8163 C   0  0  0  0  0  0  0  0  0  0  0  0
  -19.8731    8.3783  -25.4576 Cl  0  0  0  0  0  0  0  0  0  0  0  0
  -17.7028    9.7691  -23.4249 N   0  0  0  0  0  0  0  0  0  0  0  0
  -17.1520    8.7718  -21.2146 C   0  0  0  0  0  0  0  0  0  0  0  0
  -16.9169    7.6058  -20.4565 C   0  0  0  0  0  0  0  0  0  0  0  0
  -16.8169    6.3549  -21.0825 C   0  0  0  0  0  0  0  0  0  0  0  0
  -16.9638    6.2513  -22.4681 C   0  0  0  0  0  0  0  0  0  0  0  0
  -17.2204    7.3892  -23.2321 C   0  0  0  0  0  0  0  0  0  0  0  0
  -17.3672    8.6401  -22.6121 C   0  0  0  0  0  0  0  0  0  0  0  0
  -17.9269   11.0017  -20.8965 O   0  0  0  0  0  0  0  0  0  0  0  0
  -17.1105   10.1037  -20.5538 C   0  0  0  0  0  0  0  0  0  0  0  0
  -16.0921   10.4083  -19.5946 N   0  0  0  0  0  0  0  0  0  0  0  0
  -15.0016   11.1189  -19.9711 O   0  0  0  0  0  0  0  0  0  0  0  0
  -14.8786   11.2249  -27.0221 N   0  0  0  0  0  0  0  0  0  0  0  0
  -14.6595   12.6519  -26.9868 C   0  0  0  0  0  0  0  0  0  0  0  0
  -15.5402   13.5230  -26.3204 C   0  0  0  0  0  0  0  0  0  0  0  0
  -15.3339   14.9076  -26.3740 C   0  0  0  0  0  0  0  0  0  0  0  0
  -14.2453   15.4423  -27.0802 C   0  0  0  0  0  0  0  0  0  0  0  0
  -13.3862   14.5740  -27.7723 C   0  0  0  0  0  0  0  0  0  0  0  0
  -13.5957   13.1881  -27.7298 C   0  0  0  0  0  0  0  0  0  0  0  0
  -13.9664   16.8318  -27.0864 O   0  0  0  0  0  0  0  0  0  0  0  0
  -14.9347   17.8874  -27.0644 C   0  0  0  0  0  0  0  0  0  0  0  0
  -15.0705   18.4249  -25.6604 C   0  0  0  0  0  0  0  0  0  0  0  0
  -16.1231   18.1841  -25.0018 O   0  0  0  0  0  0  0  0  0  0  0  0
  -14.0091   19.1945  -25.0477 N   0  0  0  0  0  0  0  0  0  0  0  0
  -13.5811   18.8707  -23.6807 C   0  0  0  0  0  0  0  0  0  0  0  0
  -13.4227   20.1448  -22.8642 C   0  0  0  0  0  0  0  0  0  0  0  0
  -12.5122   20.9936  -23.5185 O   0  0  0  0  0  0  0  0  0  0  0  0
  -13.0949   21.5492  -24.6752 C   0  0  0  0  0  0  0  0  0  0  0  0
  -13.7999   20.5360  -25.6177 C   0  0  0  0  0  0  0  0  0  0  0  0
 15 16  2  0
 16 17  1  0
 17 18  1  0
 16  9  1  0
  9 10  2  0
 10 11  1  0
 11 12  2  0
 12 13  1  0
 13 14  2  0
 14  8  1  0
  8  1  1  0
  1  2  2  0
  2  3  1  0
  3 19  1  0
 19 20  1  0
 20 21  2  0
 21 22  1  0
 22 23  2  0
 23 26  1  0
 26 27  1  0
 27 28  1  0
 28 29  2  0
 28 30  1  0
 30 31  1  0
 31 32  1  0
 32 33  1  0
 33 34  1  0
 34 35  1  0
 23 24  1  0
 24 25  2  0
  3  4  2  0
  4  5  1  0
  5  6  2  0
  6  7  1  0
 14  9  1  0
  6  1  1  0
 25 20  1  0
 35 30  1  0
M  END
$$$$
CHEMBL4858409_smina_3
     RDKit          3D

 35 38  0  0  0  0  0  0  0  0999 V2000
  -14.7109   13.5801  -26.6942 C   0  0  0  0  0  0  0  0  0  0  0  0
  -15.0298   14.6424  -25.9118 N   0  0  0  0  0  0  0  0  0  0  0  0
  -16.1562   14.6794  -25.1555 C   0  0  0  0  0  0  0  0  0  0  0  0
  -16.9944   13.6105  -25.1479 N   0  0  0  0  0  0  0  0  0  0  0  0
  -16.7344   12.5143  -25.8984 C   0  0  0  0  0  0  0  0  0  0  0  0
  -15.5845   12.4557  -26.6972 C   0  0  0  0  0  0  0  0  0  0  0  0
  -15.3931   10.9946  -27.6761 Cl  0  0  0  0  0  0  0  0  0  0  0  0
  -13.5194   13.6849  -27.5089 N   0  0  0  0  0  0  0  0  0  0  0  0
  -11.7852   14.9287  -28.7852 C   0  0  0  0  0  0  0  0  0  0  0  0
  -11.2345   16.1758  -29.1470 C   0  0  0  0  0  0  0  0  0  0  0  0
  -11.6778   17.3571  -28.5348 C   0  0  0  0  0  0  0  0  0  0  0  0
  -12.6836   17.3091  -27.5661 C   0  0  0  0  0  0  0  0  0  0  0  0
  -13.2571   16.0884  -27.2120 C   0  0  0  0  0  0  0  0  0  0  0  0
  -12.8535   14.9048  -27.8499 C   0  0  0  0  0  0  0  0  0  0  0  0
  -11.7793   12.5724  -29.1344 O   0  0  0  0  0  0  0  0  0  0  0  0
  -11.2038   13.6760  -29.3376 C   0  0  0  0  0  0  0  0  0  0  0  0
   -9.9461   13.6978  -30.0215 N   0  0  0  0  0  0  0  0  0  0  0  0
   -8.8154   13.3404  -29.3658 O   0  0  0  0  0  0  0  0  0  0  0  0
  -16.4481   15.8430  -24.3785 N   0  0  0  0  0  0  0  0  0  0  0  0
  -15.6935   17.0737  -24.4193 C   0  0  0  0  0  0  0  0  0  0  0  0
  -16.1298   18.1891  -25.1570 C   0  0  0  0  0  0  0  0  0  0  0  0
  -15.3314   19.3377  -25.2326 C   0  0  0  0  0  0  0  0  0  0  0  0
  -14.0965   19.3962  -24.5682 C   0  0  0  0  0  0  0  0  0  0  0  0
  -13.6472   18.2704  -23.8598 C   0  0  0  0  0  0  0  0  0  0  0  0
  -14.4388   17.1150  -23.7906 C   0  0  0  0  0  0  0  0  0  0  0  0
  -13.3047   20.5715  -24.5614 O   0  0  0  0  0  0  0  0  0  0  0  0
  -12.4247   20.9906  -23.5114 C   0  0  0  0  0  0  0  0  0  0  0  0
  -13.0713   22.0996  -22.7171 C   0  0  0  0  0  0  0  0  0  0  0  0
  -12.4249   23.1639  -22.4958 O   0  0  0  0  0  0  0  0  0  0  0  0
  -14.4249   21.9739  -22.2212 N   0  0  0  0  0  0  0  0  0  0  0  0
  -15.3684   23.0828  -22.4133 C   0  0  0  0  0  0  0  0  0  0  0  0
  -16.1401   23.3446  -21.1284 C   0  0  0  0  0  0  0  0  0  0  0  0
  -16.7870   22.1587  -20.7372 O   0  0  0  0  0  0  0  0  0  0  0  0
  -15.8548   21.2245  -20.2430 C   0  0  0  0  0  0  0  0  0  0  0  0
  -14.6053   20.9948  -21.1363 C   0  0  0  0  0  0  0  0  0  0  0  0
 15 16  2  0
 16 17  1  0
 17 18  1  0
 16  9  1  0
  9 10  2  0
 10 11  1  0
 11 12  2  0
 12 13  1  0
 13 14  2  0
 14  8  1  0
  8  1  1  0
  1  2  2  0
  2  3  1  0
  3 19  1  0
 19 20  1  0
 20 21  2  0
 21 22  1  0
 22 23  2  0
 23 26  1  0
 26 27  1  0
 27 28  1  0
 28 29  2  0
 28 30  1  0
 30 31  1  0
 31 32  1  0
 32 33  1  0
 33 34  1  0
 34 35  1  0
 23 24  1  0
 24 25  2  0
  3  4  2  0
  4  5  1  0
  5  6  2  0
  6  7  1  0
 14  9  1  0
  6  1  1  0
 25 20  1  0
 35 30  1  0
M  END
$$$$
CHEMBL4858409_smina_4
     RDKit          3D

 35 38  0  0  0  0  0  0  0  0999 V2000
  -12.7149   15.3037  -27.0330 C   0  0  0  0  0  0  0  0  0  0  0  0
  -13.3569   14.1123  -26.9304 N   0  0  0  0  0  0  0  0  0  0  0  0
  -13.3212   13.1773  -27.9137 C   0  0  0  0  0  0  0  0  0  0  0  0
  -12.5983   13.4147  -29.0390 N   0  0  0  0  0  0  0  0  0  0  0  0
  -11.9270   14.5784  -29.2048 C   0  0  0  0  0  0  0  0  0  0  0  0
  -11.9574   15.5650  -28.2101 C   0  0  0  0  0  0  0  0  0  0  0  0
  -11.0904   17.0631  -28.5758 Cl  0  0  0  0  0  0  0  0  0  0  0  0
  -12.8832   16.2481  -25.9493 N   0  0  0  0  0  0  0  0  0  0  0  0
  -14.8418   17.4786  -25.0365 C   0  0  0  0  0  0  0  0  0  0  0  0
  -15.6191   18.6556  -25.0395 C   0  0  0  0  0  0  0  0  0  0  0  0
  -15.3875   19.6621  -25.9882 C   0  0  0  0  0  0  0  0  0  0  0  0
  -14.3704   19.5123  -26.9344 C   0  0  0  0  0  0  0  0  0  0  0  0
  -13.5756   18.3665  -26.9326 C   0  0  0  0  0  0  0  0  0  0  0  0
  -13.7683   17.3725  -25.9602 C   0  0  0  0  0  0  0  0  0  0  0  0
  -14.4470   15.3496  -24.0437 O   0  0  0  0  0  0  0  0  0  0  0  0
  -15.1948   16.3623  -24.1191 C   0  0  0  0  0  0  0  0  0  0  0  0
  -16.4249   16.3841  -23.3868 N   0  0  0  0  0  0  0  0  0  0  0  0
  -17.4924   15.6836  -23.8402 O   0  0  0  0  0  0  0  0  0  0  0  0
  -14.0464   11.9560  -27.7545 N   0  0  0  0  0  0  0  0  0  0  0  0
  -15.2958   11.8245  -27.0424 C   0  0  0  0  0  0  0  0  0  0  0  0
  -16.0156   10.6162  -27.0209 C   0  0  0  0  0  0  0  0  0  0  0  0
  -17.2609   10.5511  -26.3825 C   0  0  0  0  0  0  0  0  0  0  0  0
  -17.8005   11.6813  -25.7490 C   0  0  0  0  0  0  0  0  0  0  0  0
  -17.0965   12.8949  -25.7997 C   0  0  0  0  0  0  0  0  0  0  0  0
  -15.8547   12.9666  -26.4470 C   0  0  0  0  0  0  0  0  0  0  0  0
  -19.0194   11.6253  -25.0283 O   0  0  0  0  0  0  0  0  0  0  0  0
  -19.1630   11.3280  -23.6341 C   0  0  0  0  0  0  0  0  0  0  0  0
  -19.2171    9.8326  -23.4352 C   0  0  0  0  0  0  0  0  0  0  0  0
  -20.2659    9.2010  -23.7527 O   0  0  0  0  0  0  0  0  0  0  0  0
  -18.0830    9.1065  -22.9056 N   0  0  0  0  0  0  0  0  0  0  0  0
  -17.6423    7.8737  -23.5711 C   0  0  0  0  0  0  0  0  0  0  0  0
  -17.3636    6.7906  -22.5395 C   0  0  0  0  0  0  0  0  0  0  0  0
  -16.4098    7.2697  -21.6238 O   0  0  0  0  0  0  0  0  0  0  0  0
  -16.9809    8.2371  -20.7728 C   0  0  0  0  0  0  0  0  0  0  0  0
  -17.7880    9.3567  -21.4849 C   0  0  0  0  0  0  0  0  0  0  0  0
 15 16  2  0
 16 17  1  0
 17 18  1  0
 16  9  1  0
  9 10  2  0
 10 11  1  0
 11 12  2  0
 12 13  1  0
 13 14  2  0
 14  8  1  0
  8  1  1  0
  1  2  2  0
  2  3  1  0
  3 19  1  0
 19 20  1  0
 20 21  2  0
 21 22  1  0
 22 23  2  0
 23 26  1  0
 26 27  1  0
 27 28  1  0
 28 29  2  0
 28 30  1  0
 30 31  1  0
 31 32  1  0
 32 33  1  0
 33 34  1  0
 34 35  1  0
 23 24  1  0
 24 25  2  0
  3  4  2  0
  4  5  1  0
  5  6  2  0
  6  7  1  0
 14  9  1  0
  6  1  1  0
 25 20  1  0
 35 30  1  0
M  END
$$$$
CHEMBL4858409_smina_5
     RDKit          3D

 35 38  0  0  0  0  0  0  0  0999 V2000
  -12.6660   15.6097  -27.0725 C   0  0  0  0  0  0  0  0  0  0  0  0
  -13.2487   14.3992  -26.8789 N   0  0  0  0  0  0  0  0  0  0  0  0
  -13.1999   13.4094  -27.8063 C   0  0  0  0  0  0  0  0  0  0  0  0
  -12.5236   13.6107  -28.9671 N   0  0  0  0  0  0  0  0  0  0  0  0
  -11.9123   14.7910  -29.2231 C   0  0  0  0  0  0  0  0  0  0  0  0
  -11.9578   15.8332  -28.2874 C   0  0  0  0  0  0  0  0  0  0  0  0
  -11.1727   17.3436  -28.7690 Cl  0  0  0  0  0  0  0  0  0  0  0  0
  -12.8446   16.6091  -26.0410 N   0  0  0  0  0  0  0  0  0  0  0  0
  -13.4013   18.9165  -25.3000 C   0  0  0  0  0  0  0  0  0  0  0  0
  -14.1041   20.1136  -25.5503 C   0  0  0  0  0  0  0  0  0  0  0  0
  -15.0334   20.1907  -26.5979 C   0  0  0  0  0  0  0  0  0  0  0  0
  -15.2616   19.0804  -27.4148 C   0  0  0  0  0  0  0  0  0  0  0  0
  -14.5592   17.8954  -27.1982 C   0  0  0  0  0  0  0  0  0  0  0  0
  -13.5942   17.8199  -26.1815 C   0  0  0  0  0  0  0  0  0  0  0  0
  -12.5360   17.7519  -23.4109 O   0  0  0  0  0  0  0  0  0  0  0  0
  -12.5300   18.8085  -24.0994 C   0  0  0  0  0  0  0  0  0  0  0  0
  -11.7508   19.9276  -23.6631 N   0  0  0  0  0  0  0  0  0  0  0  0
  -12.1985   20.7072  -22.6494 O   0  0  0  0  0  0  0  0  0  0  0  0
  -13.8625   12.1688  -27.5519 N   0  0  0  0  0  0  0  0  0  0  0  0
  -15.1598   12.0380  -26.9310 C   0  0  0  0  0  0  0  0  0  0  0  0
  -15.8811   10.8308  -26.9635 C   0  0  0  0  0  0  0  0  0  0  0  0
  -17.1689   10.7665  -26.4158 C   0  0  0  0  0  0  0  0  0  0  0  0
  -17.7507   11.8963  -25.8201 C   0  0  0  0  0  0  0  0  0  0  0  0
  -17.0431   13.1089  -25.8179 C   0  0  0  0  0  0  0  0  0  0  0  0
  -15.7581   13.1799  -26.3747 C   0  0  0  0  0  0  0  0  0  0  0  0
  -19.0180   11.8409  -25.1883 O   0  0  0  0  0  0  0  0  0  0  0  0
  -19.2551   11.7245  -23.7802 C   0  0  0  0  0  0  0  0  0  0  0  0
  -19.7030   10.3204  -23.4534 C   0  0  0  0  0  0  0  0  0  0  0  0
  -20.8805   10.1253  -23.0351 O   0  0  0  0  0  0  0  0  0  0  0  0
  -18.8148    9.1916  -23.6290 N   0  0  0  0  0  0  0  0  0  0  0  0
  -19.3060    7.9877  -24.3117 C   0  0  0  0  0  0  0  0  0  0  0  0
  -18.8829    6.7413  -23.5486 C   0  0  0  0  0  0  0  0  0  0  0  0
  -17.4828    6.7428  -23.4165 O   0  0  0  0  0  0  0  0  0  0  0  0
  -17.0732    7.7168  -22.4840 C   0  0  0  0  0  0  0  0  0  0  0  0
  -17.6883    9.1289  -22.6829 C   0  0  0  0  0  0  0  0  0  0  0  0
 15 16  2  0
 16 17  1  0
 17 18  1  0
 16  9  1  0
  9 10  2  0
 10 11  1  0
 11 12  2  0
 12 13  1  0
 13 14  2  0
 14  8  1  0
  8  1  1  0
  1  2  2  0
  2  3  1  0
  3 19  1  0
 19 20  1  0
 20 21  2  0
 21 22  1  0
 22 23  2  0
 23 26  1  0
 26 27  1  0
 27 28  1  0
 28 29  2  0
 28 30  1  0
 30 31  1  0
 31 32  1  0
 32 33  1  0
 33 34  1  0
 34 35  1  0
 23 24  1  0
 24 25  2  0
  3  4  2  0
  4  5  1  0
  5  6  2  0
  6  7  1  0
 14  9  1  0
  6  1  1  0
 25 20  1  0
 35 30  1  0
M  END
$$$$
CHEMBL4858409_smina_6
     RDKit          3D

 35 38  0  0  0  0  0  0  0  0999 V2000
  -17.0994   11.2290  -26.0678 C   0  0  0  0  0  0  0  0  0  0  0  0
  -15.9689   11.9527  -26.2690 N   0  0  0  0  0  0  0  0  0  0  0  0
  -15.0714   11.6489  -27.2408 C   0  0  0  0  0  0  0  0  0  0  0  0
  -15.3105   10.6002  -28.0705 N   0  0  0  0  0  0  0  0  0  0  0  0
  -16.4219    9.8399  -27.9320 C   0  0  0  0  0  0  0  0  0  0  0  0
  -17.3582   10.1250  -26.9292 C   0  0  0  0  0  0  0  0  0  0  0  0
  -18.7345    9.0193  -26.8152 Cl  0  0  0  0  0  0  0  0  0  0  0  0
  -17.9454   11.6075  -24.9563 N   0  0  0  0  0  0  0  0  0  0  0  0
  -17.1211   12.5984  -22.8298 C   0  0  0  0  0  0  0  0  0  0  0  0
  -16.8873   12.4348  -21.4485 C   0  0  0  0  0  0  0  0  0  0  0  0
  -17.0456   11.1808  -20.8409 C   0  0  0  0  0  0  0  0  0  0  0  0
  -17.4518   10.0807  -21.6005 C   0  0  0  0  0  0  0  0  0  0  0  0
  -17.7109   10.2275  -22.9627 C   0  0  0  0  0  0  0  0  0  0  0  0
  -17.5993   11.4868  -23.5730 C   0  0  0  0  0  0  0  0  0  0  0  0
  -15.6758   14.4270  -23.3215 O   0  0  0  0  0  0  0  0  0  0  0  0
  -16.8090   13.8976  -23.4833 C   0  0  0  0  0  0  0  0  0  0  0  0
  -17.8146   14.6007  -24.2212 N   0  0  0  0  0  0  0  0  0  0  0  0
  -18.4847   15.6253  -23.6408 O   0  0  0  0  0  0  0  0  0  0  0  0
  -13.8848   12.4338  -27.3777 N   0  0  0  0  0  0  0  0  0  0  0  0
  -13.8314   13.8736  -27.2784 C   0  0  0  0  0  0  0  0  0  0  0  0
  -14.8619   14.6158  -26.6737 C   0  0  0  0  0  0  0  0  0  0  0  0
  -14.8082   16.0156  -26.6653 C   0  0  0  0  0  0  0  0  0  0  0  0
  -13.7261   16.6940  -27.2472 C   0  0  0  0  0  0  0  0  0  0  0  0
  -12.7149   15.9532  -27.8795 C   0  0  0  0  0  0  0  0  0  0  0  0
  -12.7705   14.5522  -27.8992 C   0  0  0  0  0  0  0  0  0  0  0  0
  -13.6054   18.1046  -27.1845 O   0  0  0  0  0  0  0  0  0  0  0  0
  -14.6827   19.0387  -27.0450 C   0  0  0  0  0  0  0  0  0  0  0  0
  -14.9208   19.3269  -25.5824 C   0  0  0  0  0  0  0  0  0  0  0  0
  -16.0627   19.1096  -25.0841 O   0  0  0  0  0  0  0  0  0  0  0  0
  -13.8598   19.8290  -24.7362 N   0  0  0  0  0  0  0  0  0  0  0  0
  -13.6316   19.2110  -23.4237 C   0  0  0  0  0  0  0  0  0  0  0  0
  -13.4302   20.2852  -22.3650 C   0  0  0  0  0  0  0  0  0  0  0  0
  -12.3623   21.1130  -22.7550 O   0  0  0  0  0  0  0  0  0  0  0  0
  -12.7423   21.9391  -23.8317 C   0  0  0  0  0  0  0  0  0  0  0  0
  -13.4400   21.2128  -25.0139 C   0  0  0  0  0  0  0  0  0  0  0  0
 15 16  2  0
 16 17  1  0
 17 18  1  0
 16  9  1  0
  9 10  2  0
 10 11  1  0
 11 12  2  0
 12 13  1  0
 13 14  2  0
 14  8  1  0
  8  1  1  0
  1  2  2  0
  2  3  1  0
  3 19  1  0
 19 20  1  0
 20 21  2  0
 21 22  1  0
 22 23  2  0
 23 26  1  0
 26 27  1  0
 27 28  1  0
 28 29  2  0
 28 30  1  0
 30 31  1  0
 31 32  1  0
 32 33  1  0
 33 34  1  0
 34 35  1  0
 23 24  1  0
 24 25  2  0
  3  4  2  0
  4  5  1  0
  5  6  2  0
  6  7  1  0
 14  9  1  0
  6  1  1  0
 25 20  1  0
 35 30  1  0
M  END
$$$$
CHEMBL4858409_smina_7
     RDKit          3D

 35 38  0  0  0  0  0  0  0  0999 V2000
  -13.9614   16.9108  -26.1762 C   0  0  0  0  0  0  0  0  0  0  0  0
  -14.4107   15.8784  -25.4182 N   0  0  0  0  0  0  0  0  0  0  0  0
  -15.3836   16.0287  -24.4839 C   0  0  0  0  0  0  0  0  0  0  0  0
  -15.9600   17.2458  -24.3056 N   0  0  0  0  0  0  0  0  0  0  0  0
  -15.5663   18.3177  -25.0324 C   0  0  0  0  0  0  0  0  0  0  0  0
  -14.5557   18.1920  -25.9949 C   0  0  0  0  0  0  0  0  0  0  0  0
  -14.0913   19.6798  -26.8319 Cl  0  0  0  0  0  0  0  0  0  0  0  0
  -12.8721   16.6429  -27.0907 N   0  0  0  0  0  0  0  0  0  0  0  0
  -11.6652   15.2824  -28.7866 C   0  0  0  0  0  0  0  0  0  0  0  0
  -11.4178   14.0081  -29.3383 C   0  0  0  0  0  0  0  0  0  0  0  0
  -12.1732   12.8969  -28.9367 C   0  0  0  0  0  0  0  0  0  0  0  0
  -13.1732   13.0415  -27.9716 C   0  0  0  0  0  0  0  0  0  0  0  0
  -13.4168   14.2885  -27.3971 C   0  0  0  0  0  0  0  0  0  0  0  0
  -12.6375   15.3989  -27.7580 C   0  0  0  0  0  0  0  0  0  0  0  0
  -10.9764   17.5607  -28.6908 O   0  0  0  0  0  0  0  0  0  0  0  0
  -10.9556   16.4723  -29.3277 C   0  0  0  0  0  0  0  0  0  0  0  0
  -10.3243   16.4210  -30.6118 N   0  0  0  0  0  0  0  0  0  0  0  0
  -10.9580   16.9302  -31.6958 O   0  0  0  0  0  0  0  0  0  0  0  0
  -15.7879   14.9059  -23.6973 N   0  0  0  0  0  0  0  0  0  0  0  0
  -16.6623   13.8507  -24.1528 C   0  0  0  0  0  0  0  0  0  0  0  0
  -16.8372   13.5684  -25.5197 C   0  0  0  0  0  0  0  0  0  0  0  0
  -17.7522   12.5874  -25.9234 C   0  0  0  0  0  0  0  0  0  0  0  0
  -18.4956   11.8682  -24.9747 C   0  0  0  0  0  0  0  0  0  0  0  0
  -18.3444   12.1739  -23.6129 C   0  0  0  0  0  0  0  0  0  0  0  0
  -17.4373   13.1626  -23.2056 C   0  0  0  0  0  0  0  0  0  0  0  0
  -19.3693   10.8169  -25.3485 O   0  0  0  0  0  0  0  0  0  0  0  0
  -19.4181   10.1744  -26.6282 C   0  0  0  0  0  0  0  0  0  0  0  0
  -18.5997    8.9065  -26.5932 C   0  0  0  0  0  0  0  0  0  0  0  0
  -18.3998    8.3262  -25.4873 O   0  0  0  0  0  0  0  0  0  0  0  0
  -18.0561    8.3329  -27.8054 N   0  0  0  0  0  0  0  0  0  0  0  0
  -18.2128    6.8941  -28.0548 C   0  0  0  0  0  0  0  0  0  0  0  0
  -16.9008    6.3000  -28.5456 C   0  0  0  0  0  0  0  0  0  0  0  0
  -16.4887    6.9965  -29.6958 O   0  0  0  0  0  0  0  0  0  0  0  0
  -16.0295    8.2852  -29.3577 C   0  0  0  0  0  0  0  0  0  0  0  0
  -16.9670    9.1035  -28.4284 C   0  0  0  0  0  0  0  0  0  0  0  0
 15 16  2  0
 16 17  1  0
 17 18  1  0
 16  9  1  0
  9 10  2  0
 10 11  1  0
 11 12  2  0
 12 13  1  0
 13 14  2  0
 14  8  1  0
  8  1  1  0
  1  2  2  0
  2  3  1  0
  3 19  1  0
 19 20  1  0
 20 21  2  0
 21 22  1  0
 22 23  2  0
 23 26  1  0
 26 27  1  0
 27 28  1  0
 28 29  2  0
 28 30  1  0
 30 31  1  0
 31 32  1  0
 32 33  1  0
 33 34  1  0
 34 35  1  0
 23 24  1  0
 24 25  2  0
  3  4  2  0
  4  5  1  0
  5  6  2  0
  6  7  1  0
 14  9  1  0
  6  1  1  0
 25 20  1  0
 35 30  1  0
M  END
$$$$
CHEMBL4858409_smina_8
     RDKit          3D

 35 38  0  0  0  0  0  0  0  0999 V2000
  -17.1188    9.9992  -25.0711 C   0  0  0  0  0  0  0  0  0  0  0  0
  -16.0927   10.6482  -25.6778 N   0  0  0  0  0  0  0  0  0  0  0  0
  -15.8914   10.6018  -27.0192 C   0  0  0  0  0  0  0  0  0  0  0  0
  -16.7554    9.9062  -27.8034 N   0  0  0  0  0  0  0  0  0  0  0  0
  -17.8052    9.2415  -27.2662 C   0  0  0  0  0  0  0  0  0  0  0  0
  -18.0283    9.2635  -25.8830 C   0  0  0  0  0  0  0  0  0  0  0  0
  -19.3968    8.3046  -25.3021 Cl  0  0  0  0  0  0  0  0  0  0  0  0
  -17.1903   10.0659  -23.6272 N   0  0  0  0  0  0  0  0  0  0  0  0
  -17.8776   11.0666  -21.4571 C   0  0  0  0  0  0  0  0  0  0  0  0
  -18.4751   12.1488  -20.7777 C   0  0  0  0  0  0  0  0  0  0  0  0
  -19.1095   13.1768  -21.4901 C   0  0  0  0  0  0  0  0  0  0  0  0
  -19.1430   13.1440  -22.8865 C   0  0  0  0  0  0  0  0  0  0  0  0
  -18.5373   12.0949  -23.5770 C   0  0  0  0  0  0  0  0  0  0  0  0
  -17.8605   11.0836  -22.8770 C   0  0  0  0  0  0  0  0  0  0  0  0
  -17.8415    8.7688  -20.8303 O   0  0  0  0  0  0  0  0  0  0  0  0
  -17.3384    9.9160  -20.6841 C   0  0  0  0  0  0  0  0  0  0  0  0
  -16.3121   10.1141  -19.7056 N   0  0  0  0  0  0  0  0  0  0  0  0
  -16.6384   10.1973  -18.3931 O   0  0  0  0  0  0  0  0  0  0  0  0
  -14.7719   11.2827  -27.5902 N   0  0  0  0  0  0  0  0  0  0  0  0
  -14.3416   12.6126  -27.2271 C   0  0  0  0  0  0  0  0  0  0  0  0
  -15.1815   13.5021  -26.5329 C   0  0  0  0  0  0  0  0  0  0  0  0
  -14.7541   14.8093  -26.2664 C   0  0  0  0  0  0  0  0  0  0  0  0
  -13.4843   15.2448  -26.6762 C   0  0  0  0  0  0  0  0  0  0  0  0
  -12.6603   14.3666  -27.3978 C   0  0  0  0  0  0  0  0  0  0  0  0
  -13.0890   13.0608  -27.6758 C   0  0  0  0  0  0  0  0  0  0  0  0
  -12.9943   16.5344  -26.3521 O   0  0  0  0  0  0  0  0  0  0  0  0
  -13.2007   17.7315  -27.1117 C   0  0  0  0  0  0  0  0  0  0  0  0
  -14.5710   18.2920  -26.8167 C   0  0  0  0  0  0  0  0  0  0  0  0
  -15.5343   18.0168  -27.5886 O   0  0  0  0  0  0  0  0  0  0  0  0
  -14.8057   19.1228  -25.6554 N   0  0  0  0  0  0  0  0  0  0  0  0
  -15.9641   18.8485  -24.7955 C   0  0  0  0  0  0  0  0  0  0  0  0
  -16.6796   20.1456  -24.4482 C   0  0  0  0  0  0  0  0  0  0  0  0
  -15.7627   21.0216  -23.8402 O   0  0  0  0  0  0  0  0  0  0  0  0
  -14.8519   21.5248  -24.7907 C   0  0  0  0  0  0  0  0  0  0  0  0
  -14.1916   20.4601  -25.7085 C   0  0  0  0  0  0  0  0  0  0  0  0
 15 16  2  0
 16 17  1  0
 17 18  1  0
 16  9  1  0
  9 10  2  0
 10 11  1  0
 11 12  2  0
 12 13  1  0
 13 14  2  0
 14  8  1  0
  8  1  1  0
  1  2  2  0
  2  3  1  0
  3 19  1  0
 19 20  1  0
 20 21  2  0
 21 22  1  0
 22 23  2  0
 23 26  1  0
 26 27  1  0
 27 28  1  0
 28 29  2  0
 28 30  1  0
 30 31  1  0
 31 32  1  0
 32 33  1  0
 33 34  1  0
 34 35  1  0
 23 24  1  0
 24 25  2  0
  3  4  2  0
  4  5  1  0
  5  6  2  0
  6  7  1  0
 14  9  1  0
  6  1  1  0
 25 20  1  0
 35 30  1  0
M  END
$$$$
CHEMBL4858409_smina_9
     RDKit          3D

 35 38  0  0  0  0  0  0  0  0999 V2000
  -13.9515   17.0387  -25.3732 C   0  0  0  0  0  0  0  0  0  0  0  0
  -14.5329   16.2494  -24.4345 N   0  0  0  0  0  0  0  0  0  0  0  0
  -15.7701   16.4995  -23.9355 C   0  0  0  0  0  0  0  0  0  0  0  0
  -16.4792   17.5605  -24.4013 N   0  0  0  0  0  0  0  0  0  0  0  0
  -15.9640   18.3852  -25.3429 C   0  0  0  0  0  0  0  0  0  0  0  0
  -14.6841   18.1560  -25.8657 C   0  0  0  0  0  0  0  0  0  0  0  0
  -14.1031   19.3412  -27.0436 Cl  0  0  0  0  0  0  0  0  0  0  0  0
  -12.6012   16.7109  -25.7777 N   0  0  0  0  0  0  0  0  0  0  0  0
  -12.4187   14.9764  -27.5502 C   0  0  0  0  0  0  0  0  0  0  0  0
  -12.0913   14.6653  -28.8864 C   0  0  0  0  0  0  0  0  0  0  0  0
  -11.4929   15.6238  -29.7170 C   0  0  0  0  0  0  0  0  0  0  0  0
  -11.2274   16.9058  -29.2290 C   0  0  0  0  0  0  0  0  0  0  0  0
  -11.5655   17.2399  -27.9181 C   0  0  0  0  0  0  0  0  0  0  0  0
  -12.2056   16.3033  -27.0912 C   0  0  0  0  0  0  0  0  0  0  0  0
  -12.1259   13.0229  -26.2191 O   0  0  0  0  0  0  0  0  0  0  0  0
  -12.9176   13.9080  -26.6437 C   0  0  0  0  0  0  0  0  0  0  0  0
  -14.3095   13.8201  -26.3200 N   0  0  0  0  0  0  0  0  0  0  0  0
  -15.1003   12.9370  -26.9764 O   0  0  0  0  0  0  0  0  0  0  0  0
  -16.3107   15.6458  -22.9247 N   0  0  0  0  0  0  0  0  0  0  0  0
  -16.8199   14.3141  -23.1545 C   0  0  0  0  0  0  0  0  0  0  0  0
  -16.6743   13.2881  -22.2033 C   0  0  0  0  0  0  0  0  0  0  0  0
  -17.1145   11.9908  -22.4958 C   0  0  0  0  0  0  0  0  0  0  0  0
  -17.7141   11.6997  -23.7309 C   0  0  0  0  0  0  0  0  0  0  0  0
  -17.8288   12.7168  -24.6919 C   0  0  0  0  0  0  0  0  0  0  0  0
  -17.3795   14.0141  -24.4068 C   0  0  0  0  0  0  0  0  0  0  0  0
  -18.2401   10.4168  -24.0242 O   0  0  0  0  0  0  0  0  0  0  0  0
  -19.0630   10.0783  -25.1470 C   0  0  0  0  0  0  0  0  0  0  0  0
  -18.4284    8.9486  -25.9215 C   0  0  0  0  0  0  0  0  0  0  0  0
  -18.4080    7.7870  -25.4216 O   0  0  0  0  0  0  0  0  0  0  0  0
  -17.8603    9.1676  -27.2342 N   0  0  0  0  0  0  0  0  0  0  0  0
  -18.1855    8.2387  -28.3241 C   0  0  0  0  0  0  0  0  0  0  0  0
  -16.9264    7.8732  -29.0963 C   0  0  0  0  0  0  0  0  0  0  0  0
  -16.3233    9.0534  -29.5667 O   0  0  0  0  0  0  0  0  0  0  0  0
  -15.7275    9.7635  -28.5052 C   0  0  0  0  0  0  0  0  0  0  0  0
  -16.6264    9.9708  -27.2558 C   0  0  0  0  0  0  0  0  0  0  0  0
 15 16  2  0
 16 17  1  0
 17 18  1  0
 16  9  1  0
  9 10  2  0
 10 11  1  0
 11 12  2  0
 12 13  1  0
 13 14  2  0
 14  8  1  0
  8  1  1  0
  1  2  2  0
  2  3  1  0
  3 19  1  0
 19 20  1  0
 20 21  2  0
 21 22  1  0
 22 23  2  0
 23 26  1  0
 26 27  1  0
 27 28  1  0
 28 29  2  0
 28 30  1  0
 30 31  1  0
 31 32  1  0
 32 33  1  0
 33 34  1  0
 34 35  1  0
 23 24  1  0
 24 25  2  0
  3  4  2  0
  4  5  1  0
  5  6  2  0
  6  7  1  0
 14  9  1  0
  6  1  1  0
 25 20  1  0
 35 30  1  0
M  END
$$$$
CHEMBL4858409_smina_10
     RDKit          3D

 35 38  0  0  0  0  0  0  0  0999 V2000
  -14.1701   15.5381  -25.2106 C   0  0  0  0  0  0  0  0  0  0  0  0
  -15.3934   14.9502  -25.2013 N   0  0  0  0  0  0  0  0  0  0  0  0
  -16.4284   15.4312  -24.4668 C   0  0  0  0  0  0  0  0  0  0  0  0
  -16.2597   16.5584  -23.7277 N   0  0  0  0  0  0  0  0  0  0  0  0
  -15.0685   17.2007  -23.6965 C   0  0  0  0  0  0  0  0  0  0  0  0
  -13.9806   16.7180  -24.4362 C   0  0  0  0  0  0  0  0  0  0  0  0
  -12.4644   17.6125  -24.2607 Cl  0  0  0  0  0  0  0  0  0  0  0  0
  -13.1258   14.8941  -25.9781 N   0  0  0  0  0  0  0  0  0  0  0  0
  -12.1530   14.6275  -28.2510 C   0  0  0  0  0  0  0  0  0  0  0  0
  -11.6166   15.2458  -29.3997 C   0  0  0  0  0  0  0  0  0  0  0  0
  -11.3490   16.6224  -29.4110 C   0  0  0  0  0  0  0  0  0  0  0  0
  -11.6259   17.3990  -28.2831 C   0  0  0  0  0  0  0  0  0  0  0  0
  -12.1785   16.8105  -27.1461 C   0  0  0  0  0  0  0  0  0  0  0  0
  -12.4924   15.4422  -27.1385 C   0  0  0  0  0  0  0  0  0  0  0  0
  -11.8895   12.4474  -29.1739 O   0  0  0  0  0  0  0  0  0  0  0  0
  -12.2942   13.1475  -28.2062 C   0  0  0  0  0  0  0  0  0  0  0  0
  -12.9691   12.5141  -27.1138 N   0  0  0  0  0  0  0  0  0  0  0  0
  -14.2617   12.1314  -27.2502 O   0  0  0  0  0  0  0  0  0  0  0  0
  -17.6821   14.7448  -24.4776 N   0  0  0  0  0  0  0  0  0  0  0  0
  -17.8870   13.4077  -24.9833 C   0  0  0  0  0  0  0  0  0  0  0  0
  -16.8670   12.4393  -24.9588 C   0  0  0  0  0  0  0  0  0  0  0  0
  -17.0819   11.1776  -25.5284 C   0  0  0  0  0  0  0  0  0  0  0  0
  -18.3149   10.8592  -26.1186 C   0  0  0  0  0  0  0  0  0  0  0  0
  -19.3204   11.8375  -26.1718 C   0  0  0  0  0  0  0  0  0  0  0  0
  -19.1052   13.1052  -25.6122 C   0  0  0  0  0  0  0  0  0  0  0  0
  -18.5880    9.5667  -26.6315 O   0  0  0  0  0  0  0  0  0  0  0  0
  -18.2704    8.3221  -25.9969 C   0  0  0  0  0  0  0  0  0  0  0  0
  -19.0989    8.1626  -24.7451 C   0  0  0  0  0  0  0  0  0  0  0  0
  -20.3457    8.3692  -24.7947 O   0  0  0  0  0  0  0  0  0  0  0  0
  -18.4945    7.7584  -23.4940 N   0  0  0  0  0  0  0  0  0  0  0  0
  -19.1253    6.6970  -22.6989 C   0  0  0  0  0  0  0  0  0  0  0  0
  -19.1690    7.0955  -21.2311 C   0  0  0  0  0  0  0  0  0  0  0  0
  -17.8612    7.3776  -20.7977 O   0  0  0  0  0  0  0  0  0  0  0  0
  -17.4110    8.5980  -21.3399 C   0  0  0  0  0  0  0  0  0  0  0  0
  -17.6161    8.7623  -22.8705 C   0  0  0  0  0  0  0  0  0  0  0  0
 15 16  2  0
 16 17  1  0
 17 18  1  0
 16  9  1  0
  9 10  2  0
 10 11  1  0
 11 12  2  0
 12 13  1  0
 13 14  2  0
 14  8  1  0
  8  1  1  0
  1  2  2  0
  2  3  1  0
  3 19  1  0
 19 20  1  0
 20 21  2  0
 21 22  1  0
 22 23  2  0
 23 26  1  0
 26 27  1  0
 27 28  1  0
 28 29  2  0
 28 30  1  0
 30 31  1  0
 31 32  1  0
 32 33  1  0
 33 34  1  0
 34 35  1  0
 23 24  1  0
 24 25  2  0
  3  4  2  0
  4  5  1  0
  5  6  2  0
  6  7  1  0
 14  9  1  0
  6  1  1  0
 25 20  1  0
 35 30  1  0
M  END
$$$$
CHEMBL460721_diffdock_1
     RDKit          3D

 34 36  0  0  0  0  0  0  0  0999 V2000
  -15.3583   22.7220  -17.2038 C   0  0  0  0  0  0  0  0  0  0  0  0
  -15.7535   21.4730  -16.4891 C   0  0  0  0  0  0  0  0  0  0  0  0
  -16.5229   20.5895  -17.2618 N   0  0  0  0  0  0  0  0  0  0  0  0
  -16.8675   19.3705  -16.4730 C   0  0  0  0  0  0  0  0  0  0  0  0
  -18.3319   19.1844  -16.3054 C   0  0  0  0  0  0  0  0  0  0  0  0
  -16.1070   20.1882  -18.5555 C   0  0  0  0  0  0  0  0  0  0  0  0
  -17.0524   19.3180  -19.3204 C   0  0  0  0  0  0  0  0  0  0  0  0
  -16.7210   19.4689  -20.8004 C   0  0  0  0  0  0  0  0  0  0  0  0
  -15.9105   18.4443  -21.3408 N   0  0  0  0  0  0  0  0  0  0  0  0
  -16.0045   17.8515  -22.5848 C   0  0  0  0  0  0  0  0  0  0  0  0
  -17.2344   18.1141  -22.8546 O   0  0  0  0  0  0  0  0  0  0  0  0
  -15.4519   17.1299  -23.6622 C   0  0  0  0  0  0  0  0  0  0  0  0
  -15.7598   16.2090  -24.5396 C   0  0  0  0  0  0  0  0  0  0  0  0
  -14.6081   15.6437  -25.2330 C   0  0  0  0  0  0  0  0  0  0  0  0
  -13.3637   15.6038  -25.2807 O   0  0  0  0  0  0  0  0  0  0  0  0
  -14.9921   14.7359  -26.3394 C   0  0  0  0  0  0  0  0  0  0  0  0
  -13.7737   14.2979  -27.1313 C   0  0  0  0  0  0  0  0  0  0  0  0
  -12.8592   15.1532  -27.7429 C   0  0  0  0  0  0  0  0  0  0  0  0
  -11.8410   14.5098  -28.4435 C   0  0  0  0  0  0  0  0  0  0  0  0
  -10.9599   15.3885  -29.0358 C   0  0  0  0  0  0  0  0  0  0  0  0
  -10.9619   16.8157  -28.9816 N   0  0  0  0  0  0  0  0  0  0  0  0
  -10.0517   17.4013  -29.9159 C   0  0  0  0  0  0  0  0  0  0  0  0
   -9.1838   18.4150  -29.5561 C   0  0  0  0  0  0  0  0  0  0  0  0
   -8.2822   19.0382  -30.3863 C   0  0  0  0  0  0  0  0  0  0  0  0
   -8.2256   18.6221  -31.7112 C   0  0  0  0  0  0  0  0  0  0  0  0
   -9.0609   17.6159  -32.1395 C   0  0  0  0  0  0  0  0  0  0  0  0
   -8.9938   17.0352  -33.9579 Br  0  0  0  0  0  0  0  0  0  0  0  0
   -9.9389   17.0416  -31.2427 C   0  0  0  0  0  0  0  0  0  0  0  0
   -9.9352   14.8693  -29.7458 N   0  0  0  0  0  0  0  0  0  0  0  0
   -9.8295   13.5282  -29.8348 C   0  0  0  0  0  0  0  0  0  0  0  0
  -10.6912   12.6807  -29.2535 N   0  0  0  0  0  0  0  0  0  0  0  0
  -11.7179   13.1393  -28.5431 C   0  0  0  0  0  0  0  0  0  0  0  0
  -12.6761   12.3584  -27.8987 C   0  0  0  0  0  0  0  0  0  0  0  0
  -13.6790   12.9614  -27.2101 N   0  0  0  0  0  0  0  0  0  0  0  0
  1  2  1  0
  2  3  1  0
  3  4  1  0
  4  5  1  0
  3  6  1  0
  6  7  1  0
  7  8  1  0
  8  9  1  0
  9 10  1  0
 10 11  2  0
 10 12  1  0
 12 13  2  0
 13 14  1  0
 14 15  2  0
 14 16  1  0
 16 17  1  0
 17 18  2  0
 18 19  1  0
 19 20  2  0
 20 21  1  0
 21 22  1  0
 22 23  2  0
 23 24  1  0
 24 25  2  0
 25 26  1  0
 26 27  1  0
 26 28  2  0
 20 29  1  0
 29 30  2  0
 30 31  1  0
 31 32  2  0
 32 33  1  0
 33 34  2  0
 34 17  1  0
 32 19  1  0
 28 22  1  0
M  END
$$$$
CHEMBL460721_diffdock_2
     RDKit          3D

 34 36  0  0  0  0  0  0  0  0999 V2000
  -11.8857   23.6530  -23.2241 C   0  0  0  0  0  0  0  0  0  0  0  0
  -13.0454   23.6222  -22.2852 C   0  0  0  0  0  0  0  0  0  0  0  0
  -14.1359   22.8685  -22.7460 N   0  0  0  0  0  0  0  0  0  0  0  0
  -15.4209   23.5394  -22.3918 C   0  0  0  0  0  0  0  0  0  0  0  0
  -16.2379   23.8901  -23.5821 C   0  0  0  0  0  0  0  0  0  0  0  0
  -14.2522   21.4866  -22.4549 C   0  0  0  0  0  0  0  0  0  0  0  0
  -15.0418   20.6649  -23.4231 C   0  0  0  0  0  0  0  0  0  0  0  0
  -16.4051   20.3989  -22.7954 C   0  0  0  0  0  0  0  0  0  0  0  0
  -16.7777   19.0369  -22.7263 N   0  0  0  0  0  0  0  0  0  0  0  0
  -16.6972   18.0810  -23.7202 C   0  0  0  0  0  0  0  0  0  0  0  0
  -17.6751   18.4623  -24.4636 O   0  0  0  0  0  0  0  0  0  0  0  0
  -16.1068   16.9415  -24.3032 C   0  0  0  0  0  0  0  0  0  0  0  0
  -15.9770   16.3349  -25.4555 C   0  0  0  0  0  0  0  0  0  0  0  0
  -15.0891   15.1786  -25.4188 C   0  0  0  0  0  0  0  0  0  0  0  0
  -14.1956   14.5976  -24.7734 O   0  0  0  0  0  0  0  0  0  0  0  0
  -15.2633   14.2828  -26.5863 C   0  0  0  0  0  0  0  0  0  0  0  0
  -13.9508   14.0880  -27.3230 C   0  0  0  0  0  0  0  0  0  0  0  0
  -13.1367   15.1114  -27.8045 C   0  0  0  0  0  0  0  0  0  0  0  0
  -11.9974   14.6782  -28.4796 C   0  0  0  0  0  0  0  0  0  0  0  0
  -11.2207   15.7183  -28.9424 C   0  0  0  0  0  0  0  0  0  0  0  0
  -11.4331   17.1215  -28.7818 N   0  0  0  0  0  0  0  0  0  0  0  0
  -10.5792   17.9049  -29.6194 C   0  0  0  0  0  0  0  0  0  0  0  0
  -10.0438   19.1077  -29.1992 C   0  0  0  0  0  0  0  0  0  0  0  0
   -9.2213   19.9265  -29.9363 C   0  0  0  0  0  0  0  0  0  0  0  0
   -8.8881   19.5219  -31.2235 C   0  0  0  0  0  0  0  0  0  0  0  0
   -9.3849   18.3336  -31.7079 C   0  0  0  0  0  0  0  0  0  0  0  0
   -8.9352   17.7661  -33.4755 Br  0  0  0  0  0  0  0  0  0  0  0  0
  -10.2056   17.5687  -30.9039 C   0  0  0  0  0  0  0  0  0  0  0  0
  -10.0924   15.4094  -29.6171 N   0  0  0  0  0  0  0  0  0  0  0  0
   -9.7881   14.1086  -29.7988 C   0  0  0  0  0  0  0  0  0  0  0  0
  -10.5495   13.1029  -29.3432 N   0  0  0  0  0  0  0  0  0  0  0  0
  -11.6710   13.3518  -28.6728 C   0  0  0  0  0  0  0  0  0  0  0  0
  -12.5409   12.3929  -28.1561 C   0  0  0  0  0  0  0  0  0  0  0  0
  -13.6587   12.7894  -27.4949 N   0  0  0  0  0  0  0  0  0  0  0  0
  1  2  1  0
  2  3  1  0
  3  4  1  0
  4  5  1  0
  3  6  1  0
  6  7  1  0
  7  8  1  0
  8  9  1  0
  9 10  1  0
 10 11  2  0
 10 12  1  0
 12 13  2  0
 13 14  1  0
 14 15  2  0
 14 16  1  0
 16 17  1  0
 17 18  2  0
 18 19  1  0
 19 20  2  0
 20 21  1  0
 21 22  1  0
 22 23  2  0
 23 24  1  0
 24 25  2  0
 25 26  1  0
 26 27  1  0
 26 28  2  0
 20 29  1  0
 29 30  2  0
 30 31  1  0
 31 32  2  0
 32 33  1  0
 33 34  2  0
 34 17  1  0
 32 19  1  0
 28 22  1  0
M  END
$$$$
CHEMBL460721_diffdock_3
     RDKit          3D

 34 36  0  0  0  0  0  0  0  0999 V2000
  -18.1174   21.5880  -17.7118 C   0  0  0  0  0  0  0  0  0  0  0  0
  -17.9513   22.8160  -18.5434 C   0  0  0  0  0  0  0  0  0  0  0  0
  -17.0094   22.6860  -19.5757 N   0  0  0  0  0  0  0  0  0  0  0  0
  -17.3910   23.5369  -20.7407 C   0  0  0  0  0  0  0  0  0  0  0  0
  -16.6117   24.7995  -20.8149 C   0  0  0  0  0  0  0  0  0  0  0  0
  -16.6136   21.4130  -20.0561 C   0  0  0  0  0  0  0  0  0  0  0  0
  -16.9937   21.0834  -21.4643 C   0  0  0  0  0  0  0  0  0  0  0  0
  -17.1690   19.5719  -21.5514 C   0  0  0  0  0  0  0  0  0  0  0  0
  -15.9663   18.8318  -21.6181 N   0  0  0  0  0  0  0  0  0  0  0  0
  -15.6755   17.7515  -22.4282 C   0  0  0  0  0  0  0  0  0  0  0  0
  -15.6026   16.8282  -21.5357 O   0  0  0  0  0  0  0  0  0  0  0  0
  -15.4257   17.1772  -23.6910 C   0  0  0  0  0  0  0  0  0  0  0  0
  -14.7689   16.1956  -24.2547 C   0  0  0  0  0  0  0  0  0  0  0  0
  -15.0807   16.0092  -25.6671 C   0  0  0  0  0  0  0  0  0  0  0  0
  -15.3974   16.5825  -26.7270 O   0  0  0  0  0  0  0  0  0  0  0  0
  -15.0096   14.5905  -26.0890 C   0  0  0  0  0  0  0  0  0  0  0  0
  -13.8102   14.3496  -26.9873 C   0  0  0  0  0  0  0  0  0  0  0  0
  -12.9901   15.3420  -27.5207 C   0  0  0  0  0  0  0  0  0  0  0  0
  -11.9713   14.8714  -28.3467 C   0  0  0  0  0  0  0  0  0  0  0  0
  -11.1849   15.8818  -28.8564 C   0  0  0  0  0  0  0  0  0  0  0  0
  -11.2794   17.2860  -28.6127 N   0  0  0  0  0  0  0  0  0  0  0  0
  -10.3593   18.0430  -29.4031 C   0  0  0  0  0  0  0  0  0  0  0  0
   -9.6831   19.1358  -28.8946 C   0  0  0  0  0  0  0  0  0  0  0  0
   -8.7884   19.9223  -29.5811 C   0  0  0  0  0  0  0  0  0  0  0  0
   -8.5288   19.6022  -30.9084 C   0  0  0  0  0  0  0  0  0  0  0  0
   -9.1664   18.5254  -31.4806 C   0  0  0  0  0  0  0  0  0  0  0  0
   -8.8193   18.0751  -33.3042 Br  0  0  0  0  0  0  0  0  0  0  0  0
  -10.0520   17.7860  -30.7230 C   0  0  0  0  0  0  0  0  0  0  0  0
  -10.1685   15.5358  -29.6755 N   0  0  0  0  0  0  0  0  0  0  0  0
   -9.9784   14.2291  -29.9471 C   0  0  0  0  0  0  0  0  0  0  0  0
  -10.7482   13.2523  -29.4450 N   0  0  0  0  0  0  0  0  0  0  0  0
  -11.7625   13.5382  -28.6335 C   0  0  0  0  0  0  0  0  0  0  0  0
  -12.6293   12.6120  -28.0556 C   0  0  0  0  0  0  0  0  0  0  0  0
  -13.6309   13.0453  -27.2476 N   0  0  0  0  0  0  0  0  0  0  0  0
  1  2  1  0
  2  3  1  0
  3  4  1  0
  4  5  1  0
  3  6  1  0
  6  7  1  0
  7  8  1  0
  8  9  1  0
  9 10  1  0
 10 11  2  0
 10 12  1  0
 12 13  2  0
 13 14  1  0
 14 15  2  0
 14 16  1  0
 16 17  1  0
 17 18  2  0
 18 19  1  0
 19 20  2  0
 20 21  1  0
 21 22  1  0
 22 23  2  0
 23 24  1  0
 24 25  2  0
 25 26  1  0
 26 27  1  0
 26 28  2  0
 20 29  1  0
 29 30  2  0
 30 31  1  0
 31 32  2  0
 32 33  1  0
 33 34  2  0
 34 17  1  0
 32 19  1  0
 28 22  1  0
M  END
$$$$
CHEMBL460721_diffdock_4
     RDKit          3D

 34 36  0  0  0  0  0  0  0  0999 V2000
  -18.5080   23.2451  -23.1914 C   0  0  0  0  0  0  0  0  0  0  0  0
  -19.7000   22.9885  -22.3310 C   0  0  0  0  0  0  0  0  0  0  0  0
  -20.4509   21.8658  -22.7121 N   0  0  0  0  0  0  0  0  0  0  0  0
  -21.8478   21.9730  -22.1981 C   0  0  0  0  0  0  0  0  0  0  0  0
  -22.6445   23.0118  -22.9003 C   0  0  0  0  0  0  0  0  0  0  0  0
  -19.9816   20.5500  -22.4745 C   0  0  0  0  0  0  0  0  0  0  0  0
  -18.9206   20.0431  -23.3983 C   0  0  0  0  0  0  0  0  0  0  0  0
  -17.9342   19.2331  -22.5651 C   0  0  0  0  0  0  0  0  0  0  0  0
  -17.9272   17.8439  -22.8273 N   0  0  0  0  0  0  0  0  0  0  0  0
  -16.9494   17.1024  -23.4614 C   0  0  0  0  0  0  0  0  0  0  0  0
  -16.0227   17.1647  -22.5716 O   0  0  0  0  0  0  0  0  0  0  0  0
  -16.4759   16.3447  -24.5515 C   0  0  0  0  0  0  0  0  0  0  0  0
  -15.4395   15.6434  -24.9345 C   0  0  0  0  0  0  0  0  0  0  0  0
  -15.6586   14.8852  -26.1609 C   0  0  0  0  0  0  0  0  0  0  0  0
  -16.2424   14.8703  -27.2615 O   0  0  0  0  0  0  0  0  0  0  0  0
  -14.9170   13.6025  -26.1838 C   0  0  0  0  0  0  0  0  0  0  0  0
  -13.7591   13.6610  -27.1632 C   0  0  0  0  0  0  0  0  0  0  0  0
  -13.0325   14.8056  -27.4853 C   0  0  0  0  0  0  0  0  0  0  0  0
  -12.0366   14.6116  -28.4403 C   0  0  0  0  0  0  0  0  0  0  0  0
  -11.3434   15.7660  -28.7338 C   0  0  0  0  0  0  0  0  0  0  0  0
  -11.5082   17.0663  -28.1664 N   0  0  0  0  0  0  0  0  0  0  0  0
  -10.6508   18.0397  -28.7677 C   0  0  0  0  0  0  0  0  0  0  0  0
  -10.1150   19.0897  -28.0461 C   0  0  0  0  0  0  0  0  0  0  0  0
   -9.2894   20.0712  -28.5413 C   0  0  0  0  0  0  0  0  0  0  0  0
   -8.9529   20.0168  -29.8886 C   0  0  0  0  0  0  0  0  0  0  0  0
   -9.4499   18.9976  -30.6683 C   0  0  0  0  0  0  0  0  0  0  0  0
   -8.9959   18.9116  -32.5217 Br  0  0  0  0  0  0  0  0  0  0  0  0
  -10.2740   18.0507  -30.0945 C   0  0  0  0  0  0  0  0  0  0  0  0
  -10.3569   15.6911  -29.6531 N   0  0  0  0  0  0  0  0  0  0  0  0
  -10.1043   14.4986  -30.2289 C   0  0  0  0  0  0  0  0  0  0  0  0
  -10.7834   13.3798  -29.9357 N   0  0  0  0  0  0  0  0  0  0  0  0
  -11.7646   13.3983  -29.0379 C   0  0  0  0  0  0  0  0  0  0  0  0
  -12.5391   12.3042  -28.6553 C   0  0  0  0  0  0  0  0  0  0  0  0
  -13.5167   12.4674  -27.7270 N   0  0  0  0  0  0  0  0  0  0  0  0
  1  2  1  0
  2  3  1  0
  3  4  1  0
  4  5  1  0
  3  6  1  0
  6  7  1  0
  7  8  1  0
  8  9  1  0
  9 10  1  0
 10 11  2  0
 10 12  1  0
 12 13  2  0
 13 14  1  0
 14 15  2  0
 14 16  1  0
 16 17  1  0
 17 18  2  0
 18 19  1  0
 19 20  2  0
 20 21  1  0
 21 22  1  0
 22 23  2  0
 23 24  1  0
 24 25  2  0
 25 26  1  0
 26 27  1  0
 26 28  2  0
 20 29  1  0
 29 30  2  0
 30 31  1  0
 31 32  2  0
 32 33  1  0
 33 34  2  0
 34 17  1  0
 32 19  1  0
 28 22  1  0
M  END
$$$$
CHEMBL460721_diffdock_5
     RDKit          3D

 34 36  0  0  0  0  0  0  0  0999 V2000
  -18.6640   21.9866  -19.5304 C   0  0  0  0  0  0  0  0  0  0  0  0
  -17.1962   21.9543  -19.7981 C   0  0  0  0  0  0  0  0  0  0  0  0
  -16.7572   22.9319  -20.7043 N   0  0  0  0  0  0  0  0  0  0  0  0
  -17.2934   24.2722  -20.3266 C   0  0  0  0  0  0  0  0  0  0  0  0
  -16.7443   25.3715  -21.1615 C   0  0  0  0  0  0  0  0  0  0  0  0
  -16.9095   22.7617  -22.1028 C   0  0  0  0  0  0  0  0  0  0  0  0
  -16.6164   21.3994  -22.6451 C   0  0  0  0  0  0  0  0  0  0  0  0
  -15.2556   21.4599  -23.3291 C   0  0  0  0  0  0  0  0  0  0  0  0
  -14.5553   20.2328  -23.3801 N   0  0  0  0  0  0  0  0  0  0  0  0
  -14.7303   19.1892  -24.2678 C   0  0  0  0  0  0  0  0  0  0  0  0
  -14.7223   19.8454  -25.3740 O   0  0  0  0  0  0  0  0  0  0  0  0
  -14.9089   17.8213  -24.5576 C   0  0  0  0  0  0  0  0  0  0  0  0
  -15.1810   17.0150  -25.5518 C   0  0  0  0  0  0  0  0  0  0  0  0
  -15.3312   15.6190  -25.1574 C   0  0  0  0  0  0  0  0  0  0  0  0
  -15.3546   14.8266  -24.1963 O   0  0  0  0  0  0  0  0  0  0  0  0
  -15.5525   14.7163  -26.3115 C   0  0  0  0  0  0  0  0  0  0  0  0
  -14.2414   14.3793  -26.9977 C   0  0  0  0  0  0  0  0  0  0  0  0
  -13.3495   15.3068  -27.5327 C   0  0  0  0  0  0  0  0  0  0  0  0
  -12.2287   14.7489  -28.1441 C   0  0  0  0  0  0  0  0  0  0  0  0
  -11.3734   15.6969  -28.6628 C   0  0  0  0  0  0  0  0  0  0  0  0
  -11.4928   17.1193  -28.6123 N   0  0  0  0  0  0  0  0  0  0  0  0
  -10.3934   17.7845  -29.2394 C   0  0  0  0  0  0  0  0  0  0  0  0
  -10.2900   19.1624  -29.2668 C   0  0  0  0  0  0  0  0  0  0  0  0
   -9.2753   19.8842  -29.8497 C   0  0  0  0  0  0  0  0  0  0  0  0
   -8.2523   19.1787  -30.4721 C   0  0  0  0  0  0  0  0  0  0  0  0
   -8.2896   17.8033  -30.4827 C   0  0  0  0  0  0  0  0  0  0  0  0
   -6.8904   16.8215  -31.3353 Br  0  0  0  0  0  0  0  0  0  0  0  0
   -9.3446   17.1531  -29.8750 C   0  0  0  0  0  0  0  0  0  0  0  0
  -10.2551   15.2633  -29.2833 N   0  0  0  0  0  0  0  0  0  0  0  0
  -10.0366   13.9352  -29.3601 C   0  0  0  0  0  0  0  0  0  0  0  0
  -10.8742   13.0198  -28.8509 N   0  0  0  0  0  0  0  0  0  0  0  0
  -11.9897   13.3928  -28.2299 C   0  0  0  0  0  0  0  0  0  0  0  0
  -12.9336   12.5359  -27.6661 C   0  0  0  0  0  0  0  0  0  0  0  0
  -14.0351   13.0549  -27.0651 N   0  0  0  0  0  0  0  0  0  0  0  0
  1  2  1  0
  2  3  1  0
  3  4  1  0
  4  5  1  0
  3  6  1  0
  6  7  1  0
  7  8  1  0
  8  9  1  0
  9 10  1  0
 10 11  2  0
 10 12  1  0
 12 13  2  0
 13 14  1  0
 14 15  2  0
 14 16  1  0
 16 17  1  0
 17 18  2  0
 18 19  1  0
 19 20  2  0
 20 21  1  0
 21 22  1  0
 22 23  2  0
 23 24  1  0
 24 25  2  0
 25 26  1  0
 26 27  1  0
 26 28  2  0
 20 29  1  0
 29 30  2  0
 30 31  1  0
 31 32  2  0
 32 33  1  0
 33 34  2  0
 34 17  1  0
 32 19  1  0
 28 22  1  0
M  END
$$$$
CHEMBL460721_diffdock_6
     RDKit          3D

 34 36  0  0  0  0  0  0  0  0999 V2000
  -23.2091   10.7329  -17.3062 C   0  0  0  0  0  0  0  0  0  0  0  0
  -22.9490   11.2684  -18.6747 C   0  0  0  0  0  0  0  0  0  0  0  0
  -22.0585   12.3527  -18.7062 N   0  0  0  0  0  0  0  0  0  0  0  0
  -22.7439   13.6039  -18.2684 C   0  0  0  0  0  0  0  0  0  0  0  0
  -22.5867   13.8719  -16.8156 C   0  0  0  0  0  0  0  0  0  0  0  0
  -21.2873   12.6396  -19.8598 C   0  0  0  0  0  0  0  0  0  0  0  0
  -21.0919   14.0851  -20.1893 C   0  0  0  0  0  0  0  0  0  0  0  0
  -20.6856   14.1714  -21.6558 C   0  0  0  0  0  0  0  0  0  0  0  0
  -19.3132   14.4230  -21.8838 N   0  0  0  0  0  0  0  0  0  0  0  0
  -18.6481   14.4817  -23.0929 C   0  0  0  0  0  0  0  0  0  0  0  0
  -19.4343   15.2746  -23.7314 O   0  0  0  0  0  0  0  0  0  0  0  0
  -17.5844   14.1209  -23.9446 C   0  0  0  0  0  0  0  0  0  0  0  0
  -17.1302   14.3263  -25.1546 C   0  0  0  0  0  0  0  0  0  0  0  0
  -15.7247   13.9767  -25.3262 C   0  0  0  0  0  0  0  0  0  0  0  0
  -14.8905   13.0521  -25.2870 O   0  0  0  0  0  0  0  0  0  0  0  0
  -14.8857   15.1381  -25.7045 C   0  0  0  0  0  0  0  0  0  0  0  0
  -13.8104   14.7324  -26.6957 C   0  0  0  0  0  0  0  0  0  0  0  0
  -12.9211   15.6034  -27.3221 C   0  0  0  0  0  0  0  0  0  0  0  0
  -12.0471   14.9943  -28.2202 C   0  0  0  0  0  0  0  0  0  0  0  0
  -11.1868   15.8879  -28.8206 C   0  0  0  0  0  0  0  0  0  0  0  0
  -11.0803   17.2958  -28.6048 N   0  0  0  0  0  0  0  0  0  0  0  0
  -10.2608   17.9401  -29.5834 C   0  0  0  0  0  0  0  0  0  0  0  0
   -9.7131   19.1912  -29.3714 C   0  0  0  0  0  0  0  0  0  0  0  0
   -8.9214   19.8860  -30.2550 C   0  0  0  0  0  0  0  0  0  0  0  0
   -8.6361   19.2895  -31.4774 C   0  0  0  0  0  0  0  0  0  0  0  0
   -9.1477   18.0430  -31.7565 C   0  0  0  0  0  0  0  0  0  0  0  0
   -8.7638   17.2122  -33.4331 Br  0  0  0  0  0  0  0  0  0  0  0  0
   -9.9353   17.4116  -30.8152 C   0  0  0  0  0  0  0  0  0  0  0  0
  -10.2987   15.4026  -29.7147 N   0  0  0  0  0  0  0  0  0  0  0  0
  -10.3008   14.0787  -29.9688 C   0  0  0  0  0  0  0  0  0  0  0  0
  -11.1411   13.2161  -29.3784 N   0  0  0  0  0  0  0  0  0  0  0  0
  -12.0354   13.6414  -28.4904 C   0  0  0  0  0  0  0  0  0  0  0  0
  -12.9585   12.8426  -27.8175 C   0  0  0  0  0  0  0  0  0  0  0  0
  -13.8218   13.4123  -26.9377 N   0  0  0  0  0  0  0  0  0  0  0  0
  1  2  1  0
  2  3  1  0
  3  4  1  0
  4  5  1  0
  3  6  1  0
  6  7  1  0
  7  8  1  0
  8  9  1  0
  9 10  1  0
 10 11  2  0
 10 12  1  0
 12 13  2  0
 13 14  1  0
 14 15  2  0
 14 16  1  0
 16 17  1  0
 17 18  2  0
 18 19  1  0
 19 20  2  0
 20 21  1  0
 21 22  1  0
 22 23  2  0
 23 24  1  0
 24 25  2  0
 25 26  1  0
 26 27  1  0
 26 28  2  0
 20 29  1  0
 29 30  2  0
 30 31  1  0
 31 32  2  0
 32 33  1  0
 33 34  2  0
 34 17  1  0
 32 19  1  0
 28 22  1  0
M  END
$$$$
CHEMBL460721_diffdock_7
     RDKit          3D

 34 36  0  0  0  0  0  0  0  0999 V2000
  -19.3617   24.9208  -23.0531 C   0  0  0  0  0  0  0  0  0  0  0  0
  -18.9798   23.7467  -22.2147 C   0  0  0  0  0  0  0  0  0  0  0  0
  -19.6191   22.5512  -22.5774 N   0  0  0  0  0  0  0  0  0  0  0  0
  -21.0936   22.7574  -22.6780 C   0  0  0  0  0  0  0  0  0  0  0  0
  -21.8535   22.0191  -21.6366 C   0  0  0  0  0  0  0  0  0  0  0  0
  -19.3783   21.3443  -21.8751 C   0  0  0  0  0  0  0  0  0  0  0  0
  -19.8343   20.0840  -22.5382 C   0  0  0  0  0  0  0  0  0  0  0  0
  -18.9782   18.9445  -21.9979 C   0  0  0  0  0  0  0  0  0  0  0  0
  -17.6036   19.0232  -22.3189 N   0  0  0  0  0  0  0  0  0  0  0  0
  -16.8075   18.0534  -22.8963 C   0  0  0  0  0  0  0  0  0  0  0  0
  -16.3445   17.4959  -21.8336 O   0  0  0  0  0  0  0  0  0  0  0  0
  -16.2675   17.3965  -24.0205 C   0  0  0  0  0  0  0  0  0  0  0  0
  -15.1511   16.8731  -24.4590 C   0  0  0  0  0  0  0  0  0  0  0  0
  -15.2804   16.1934  -25.7428 C   0  0  0  0  0  0  0  0  0  0  0  0
  -15.6176   16.3199  -26.9356 O   0  0  0  0  0  0  0  0  0  0  0  0
  -14.8541   14.7753  -25.6878 C   0  0  0  0  0  0  0  0  0  0  0  0
  -13.7224   14.5093  -26.6635 C   0  0  0  0  0  0  0  0  0  0  0  0
  -12.9276   15.4851  -27.2620 C   0  0  0  0  0  0  0  0  0  0  0  0
  -11.9743   14.9927  -28.1509 C   0  0  0  0  0  0  0  0  0  0  0  0
  -11.2112   15.9873  -28.7235 C   0  0  0  0  0  0  0  0  0  0  0  0
  -11.2701   17.3948  -28.4882 N   0  0  0  0  0  0  0  0  0  0  0  0
  -10.4331   18.1354  -29.3801 C   0  0  0  0  0  0  0  0  0  0  0  0
   -9.7977   19.2995  -28.9915 C   0  0  0  0  0  0  0  0  0  0  0  0
   -8.9828   20.0763  -29.7807 C   0  0  0  0  0  0  0  0  0  0  0  0
   -8.7679   19.6670  -31.0914 C   0  0  0  0  0  0  0  0  0  0  0  0
   -9.3687   18.5158  -31.5467 C   0  0  0  0  0  0  0  0  0  0  0  0
   -9.0823   17.9425  -33.3461 Br  0  0  0  0  0  0  0  0  0  0  0  0
  -10.1738   17.7921  -30.6906 C   0  0  0  0  0  0  0  0  0  0  0  0
  -10.2581   15.6195  -29.6067 N   0  0  0  0  0  0  0  0  0  0  0  0
  -10.1045   14.3077  -29.8773 C   0  0  0  0  0  0  0  0  0  0  0  0
  -10.8510   13.3465  -29.3137 N   0  0  0  0  0  0  0  0  0  0  0  0
  -11.8034   13.6541  -28.4377 C   0  0  0  0  0  0  0  0  0  0  0  0
  -12.6408   12.7455  -27.7924 C   0  0  0  0  0  0  0  0  0  0  0  0
  -13.5787   13.2002  -26.9222 N   0  0  0  0  0  0  0  0  0  0  0  0
  1  2  1  0
  2  3  1  0
  3  4  1  0
  4  5  1  0
  3  6  1  0
  6  7  1  0
  7  8  1  0
  8  9  1  0
  9 10  1  0
 10 11  2  0
 10 12  1  0
 12 13  2  0
 13 14  1  0
 14 15  2  0
 14 16  1  0
 16 17  1  0
 17 18  2  0
 18 19  1  0
 19 20  2  0
 20 21  1  0
 21 22  1  0
 22 23  2  0
 23 24  1  0
 24 25  2  0
 25 26  1  0
 26 27  1  0
 26 28  2  0
 20 29  1  0
 29 30  2  0
 30 31  1  0
 31 32  2  0
 32 33  1  0
 33 34  2  0
 34 17  1  0
 32 19  1  0
 28 22  1  0
M  END
$$$$
CHEMBL460721_diffdock_8
     RDKit          3D

 34 36  0  0  0  0  0  0  0  0999 V2000
  -18.2278   18.0863  -17.1265 C   0  0  0  0  0  0  0  0  0  0  0  0
  -18.4759   18.9430  -18.3231 C   0  0  0  0  0  0  0  0  0  0  0  0
  -19.2186   18.3140  -19.3343 N   0  0  0  0  0  0  0  0  0  0  0  0
  -20.6759   18.5788  -19.1530 C   0  0  0  0  0  0  0  0  0  0  0  0
  -21.1210   18.4259  -17.7439 C   0  0  0  0  0  0  0  0  0  0  0  0
  -19.0423   16.9398  -19.6317 C   0  0  0  0  0  0  0  0  0  0  0  0
  -19.6825   16.4415  -20.8878 C   0  0  0  0  0  0  0  0  0  0  0  0
  -18.6032   15.7462  -21.7093 C   0  0  0  0  0  0  0  0  0  0  0  0
  -18.3835   16.2920  -22.9948 N   0  0  0  0  0  0  0  0  0  0  0  0
  -17.1938   16.3776  -23.6912 C   0  0  0  0  0  0  0  0  0  0  0  0
  -16.7399   17.4785  -23.2051 O   0  0  0  0  0  0  0  0  0  0  0  0
  -16.2664   15.8851  -24.6316 C   0  0  0  0  0  0  0  0  0  0  0  0
  -15.8905   14.7725  -25.2092 C   0  0  0  0  0  0  0  0  0  0  0  0
  -14.6590   14.8933  -25.9810 C   0  0  0  0  0  0  0  0  0  0  0  0
  -13.6932   15.6318  -26.2535 O   0  0  0  0  0  0  0  0  0  0  0  0
  -14.3690   13.6881  -26.7929 C   0  0  0  0  0  0  0  0  0  0  0  0
  -13.0768   13.8546  -27.5713 C   0  0  0  0  0  0  0  0  0  0  0  0
  -12.4782   15.0722  -27.8894 C   0  0  0  0  0  0  0  0  0  0  0  0
  -11.3115   14.9661  -28.6437 C   0  0  0  0  0  0  0  0  0  0  0  0
  -10.7518   16.1902  -28.9401 C   0  0  0  0  0  0  0  0  0  0  0  0
  -11.2011   17.4877  -28.5471 N   0  0  0  0  0  0  0  0  0  0  0  0
  -10.4270   18.5371  -29.1335 C   0  0  0  0  0  0  0  0  0  0  0  0
  -10.2764   19.7666  -28.5206 C   0  0  0  0  0  0  0  0  0  0  0  0
   -9.5583   20.8310  -29.0123 C   0  0  0  0  0  0  0  0  0  0  0  0
   -8.9192   20.6721  -30.2361 C   0  0  0  0  0  0  0  0  0  0  0  0
   -9.0252   19.4731  -30.9029 C   0  0  0  0  0  0  0  0  0  0  0  0
   -8.1523   19.2417  -32.5861 Br  0  0  0  0  0  0  0  0  0  0  0  0
   -9.7662   18.4530  -30.3413 C   0  0  0  0  0  0  0  0  0  0  0  0
   -9.6178   16.2026  -29.6733 N   0  0  0  0  0  0  0  0  0  0  0  0
   -9.0972   15.0246  -30.0717 C   0  0  0  0  0  0  0  0  0  0  0  0
   -9.6482   13.8379  -29.7770 N   0  0  0  0  0  0  0  0  0  0  0  0
  -10.7650   13.7690  -29.0580 C   0  0  0  0  0  0  0  0  0  0  0  0
  -11.4283   12.5983  -28.6936 C   0  0  0  0  0  0  0  0  0  0  0  0
  -12.5680   12.6749  -27.9594 N   0  0  0  0  0  0  0  0  0  0  0  0
  1  2  1  0
  2  3  1  0
  3  4  1  0
  4  5  1  0
  3  6  1  0
  6  7  1  0
  7  8  1  0
  8  9  1  0
  9 10  1  0
 10 11  2  0
 10 12  1  0
 12 13  2  0
 13 14  1  0
 14 15  2  0
 14 16  1  0
 16 17  1  0
 17 18  2  0
 18 19  1  0
 19 20  2  0
 20 21  1  0
 21 22  1  0
 22 23  2  0
 23 24  1  0
 24 25  2  0
 25 26  1  0
 26 27  1  0
 26 28  2  0
 20 29  1  0
 29 30  2  0
 30 31  1  0
 31 32  2  0
 32 33  1  0
 33 34  2  0
 34 17  1  0
 32 19  1  0
 28 22  1  0
M  END
$$$$
CHEMBL460721_diffdock_9
     RDKit          3D

 34 36  0  0  0  0  0  0  0  0999 V2000
  -25.4476   18.9944  -23.1119 C   0  0  0  0  0  0  0  0  0  0  0  0
  -23.9727   18.7751  -23.1721 C   0  0  0  0  0  0  0  0  0  0  0  0
  -23.5914   17.6403  -23.9047 N   0  0  0  0  0  0  0  0  0  0  0  0
  -24.7658   17.0634  -24.6222 C   0  0  0  0  0  0  0  0  0  0  0  0
  -25.5297   16.0936  -23.7957 C   0  0  0  0  0  0  0  0  0  0  0  0
  -22.8663   16.5830  -23.3012 C   0  0  0  0  0  0  0  0  0  0  0  0
  -21.5214   16.2804  -23.8806 C   0  0  0  0  0  0  0  0  0  0  0  0
  -21.7044   15.1763  -24.9152 C   0  0  0  0  0  0  0  0  0  0  0  0
  -20.9981   13.9812  -24.6478 N   0  0  0  0  0  0  0  0  0  0  0  0
  -19.6320   13.7779  -24.6646 C   0  0  0  0  0  0  0  0  0  0  0  0
  -19.5772   12.6420  -24.0636 O   0  0  0  0  0  0  0  0  0  0  0  0
  -18.3206   14.1762  -24.9940 C   0  0  0  0  0  0  0  0  0  0  0  0
  -17.0806   13.7628  -24.9280 C   0  0  0  0  0  0  0  0  0  0  0  0
  -16.1368   14.6049  -25.6539 C   0  0  0  0  0  0  0  0  0  0  0  0
  -16.0118   15.4557  -26.5554 O   0  0  0  0  0  0  0  0  0  0  0  0
  -14.7411   14.4414  -25.1835 C   0  0  0  0  0  0  0  0  0  0  0  0
  -13.7956   14.2246  -26.3507 C   0  0  0  0  0  0  0  0  0  0  0  0
  -13.0917   15.2271  -27.0152 C   0  0  0  0  0  0  0  0  0  0  0  0
  -12.3122   14.7809  -28.0805 C   0  0  0  0  0  0  0  0  0  0  0  0
  -11.6349   15.8009  -28.7130 C   0  0  0  0  0  0  0  0  0  0  0  0
  -11.6226   17.1913  -28.3869 N   0  0  0  0  0  0  0  0  0  0  0  0
  -10.6786   17.9293  -29.1669 C   0  0  0  0  0  0  0  0  0  0  0  0
   -9.8330   18.8648  -28.6013 C   0  0  0  0  0  0  0  0  0  0  0  0
   -8.9021   19.6218  -29.2727 C   0  0  0  0  0  0  0  0  0  0  0  0
   -8.7883   19.4416  -30.6461 C   0  0  0  0  0  0  0  0  0  0  0  0
   -9.5985   18.5253  -31.2765 C   0  0  0  0  0  0  0  0  0  0  0  0
   -9.4528   18.2683  -33.1636 Br  0  0  0  0  0  0  0  0  0  0  0  0
  -10.5089   17.8048  -30.5301 C   0  0  0  0  0  0  0  0  0  0  0  0
  -10.8520   15.4787  -29.7651 N   0  0  0  0  0  0  0  0  0  0  0  0
  -10.7747   14.1849  -30.1363 C   0  0  0  0  0  0  0  0  0  0  0  0
  -11.4365   13.1987  -29.5134 N   0  0  0  0  0  0  0  0  0  0  0  0
  -12.2212   13.4612  -28.4721 C   0  0  0  0  0  0  0  0  0  0  0  0
  -12.9578   12.5233  -27.7503 C   0  0  0  0  0  0  0  0  0  0  0  0
  -13.7260   12.9329  -26.7082 N   0  0  0  0  0  0  0  0  0  0  0  0
  1  2  1  0
  2  3  1  0
  3  4  1  0
  4  5  1  0
  3  6  1  0
  6  7  1  0
  7  8  1  0
  8  9  1  0
  9 10  1  0
 10 11  2  0
 10 12  1  0
 12 13  2  0
 13 14  1  0
 14 15  2  0
 14 16  1  0
 16 17  1  0
 17 18  2  0
 18 19  1  0
 19 20  2  0
 20 21  1  0
 21 22  1  0
 22 23  2  0
 23 24  1  0
 24 25  2  0
 25 26  1  0
 26 27  1  0
 26 28  2  0
 20 29  1  0
 29 30  2  0
 30 31  1  0
 31 32  2  0
 32 33  1  0
 33 34  2  0
 34 17  1  0
 32 19  1  0
 28 22  1  0
M  END
$$$$
CHEMBL460721_diffdock_10
     RDKit          3D

 34 36  0  0  0  0  0  0  0  0999 V2000
  -25.0629   11.4336  -21.7101 C   0  0  0  0  0  0  0  0  0  0  0  0
  -24.0043   12.4855  -21.7122 C   0  0  0  0  0  0  0  0  0  0  0  0
  -24.1677   13.4611  -22.7078 N   0  0  0  0  0  0  0  0  0  0  0  0
  -25.3524   13.1454  -23.5585 C   0  0  0  0  0  0  0  0  0  0  0  0
  -25.8524   14.3228  -24.3140 C   0  0  0  0  0  0  0  0  0  0  0  0
  -23.0939   13.8404  -23.5510 C   0  0  0  0  0  0  0  0  0  0  0  0
  -22.3124   12.7297  -24.1768 C   0  0  0  0  0  0  0  0  0  0  0  0
  -20.8912   12.8033  -23.6311 C   0  0  0  0  0  0  0  0  0  0  0  0
  -19.9852   11.8734  -24.1909 N   0  0  0  0  0  0  0  0  0  0  0  0
  -18.6759   12.0867  -24.5758 C   0  0  0  0  0  0  0  0  0  0  0  0
  -18.2342   10.8806  -24.5096 O   0  0  0  0  0  0  0  0  0  0  0  0
  -17.6229   12.9295  -24.9855 C   0  0  0  0  0  0  0  0  0  0  0  0
  -16.7948   13.8294  -24.5197 C   0  0  0  0  0  0  0  0  0  0  0  0
  -16.0306   14.5207  -25.5517 C   0  0  0  0  0  0  0  0  0  0  0  0
  -16.0690   15.0026  -26.7000 O   0  0  0  0  0  0  0  0  0  0  0  0
  -14.6348   14.8025  -25.1416 C   0  0  0  0  0  0  0  0  0  0  0  0
  -13.6685   14.5339  -26.2806 C   0  0  0  0  0  0  0  0  0  0  0  0
  -12.9419   15.5045  -26.9675 C   0  0  0  0  0  0  0  0  0  0  0  0
  -12.1458   15.0120  -27.9995 C   0  0  0  0  0  0  0  0  0  0  0  0
  -11.4462   16.0016  -28.6558 C   0  0  0  0  0  0  0  0  0  0  0  0
  -11.4270   17.4031  -28.3813 N   0  0  0  0  0  0  0  0  0  0  0  0
  -10.4939   18.1100  -29.2022 C   0  0  0  0  0  0  0  0  0  0  0  0
  -10.7601   19.3747  -29.6917 C   0  0  0  0  0  0  0  0  0  0  0  0
   -9.9272   20.1232  -30.4895 C   0  0  0  0  0  0  0  0  0  0  0  0
   -8.7018   19.5721  -30.8448 C   0  0  0  0  0  0  0  0  0  0  0  0
   -8.3695   18.3158  -30.3924 C   0  0  0  0  0  0  0  0  0  0  0  0
   -6.6888   17.5465  -30.8740 Br  0  0  0  0  0  0  0  0  0  0  0  0
   -9.2623   17.6288  -29.5951 C   0  0  0  0  0  0  0  0  0  0  0  0
  -10.6457   15.6334  -29.6792 N   0  0  0  0  0  0  0  0  0  0  0  0
  -10.5736   14.3260  -30.0003 C   0  0  0  0  0  0  0  0  0  0  0  0
  -11.2571   13.3696  -29.3548 N   0  0  0  0  0  0  0  0  0  0  0  0
  -12.0597   13.6778  -28.3399 C   0  0  0  0  0  0  0  0  0  0  0  0
  -12.8195   12.7741  -27.5989 C   0  0  0  0  0  0  0  0  0  0  0  0
  -13.6042   13.2291  -26.5884 N   0  0  0  0  0  0  0  0  0  0  0  0
  1  2  1  0
  2  3  1  0
  3  4  1  0
  4  5  1  0
  3  6  1  0
  6  7  1  0
  7  8  1  0
  8  9  1  0
  9 10  1  0
 10 11  2  0
 10 12  1  0
 12 13  2  0
 13 14  1  0
 14 15  2  0
 14 16  1  0
 16 17  1  0
 17 18  2  0
 18 19  1  0
 19 20  2  0
 20 21  1  0
 21 22  1  0
 22 23  2  0
 23 24  1  0
 24 25  2  0
 25 26  1  0
 26 27  1  0
 26 28  2  0
 20 29  1  0
 29 30  2  0
 30 31  1  0
 31 32  2  0
 32 33  1  0
 33 34  2  0
 34 17  1  0
 32 19  1  0
 28 22  1  0
M  END
$$$$
CHEMBL3133894_diffdock_1
     RDKit          3D

 22 24  0  0  0  0  0  0  0  0999 V2000
   -8.6401   20.6504  -28.5732 C   0  0  0  0  0  0  0  0  0  0  0  0
   -9.1373   19.7808  -29.4353 C   0  0  0  0  0  0  0  0  0  0  0  0
   -9.6917   18.4585  -29.1677 C   0  0  0  0  0  0  0  0  0  0  0  0
  -10.5710   18.3508  -28.2736 O   0  0  0  0  0  0  0  0  0  0  0  0
   -9.2146   17.3523  -29.9280 N   0  0  0  0  0  0  0  0  0  0  0  0
   -9.8347   16.1127  -29.5606 C   0  0  0  0  0  0  0  0  0  0  0  0
   -9.3813   14.8534  -29.8936 C   0  0  0  0  0  0  0  0  0  0  0  0
  -10.0680   13.7304  -29.4797 C   0  0  0  0  0  0  0  0  0  0  0  0
  -11.2162   13.8944  -28.7267 C   0  0  0  0  0  0  0  0  0  0  0  0
  -11.8592   12.7613  -28.3417 N   0  0  0  0  0  0  0  0  0  0  0  0
  -12.9996   12.8507  -27.5960 C   0  0  0  0  0  0  0  0  0  0  0  0
  -13.4954   14.0670  -27.2366 N   0  0  0  0  0  0  0  0  0  0  0  0
  -12.8529   15.2000  -27.6213 C   0  0  0  0  0  0  0  0  0  0  0  0
  -13.3367   16.4935  -27.2679 N   0  0  0  0  0  4  0  0  0  0  0  0
  -14.1213   16.4542  -26.0479 C   0  0  0  0  0  0  0  0  0  0  0  0
  -14.6920   17.8320  -25.7825 C   0  0  0  0  0  0  0  0  0  0  0  0
  -15.6227   17.7406  -24.5672 C   0  0  0  0  0  0  0  0  0  0  0  0
  -14.8841   17.2277  -23.3580 C   0  0  0  0  0  0  0  0  0  0  0  0
  -13.4300   16.9819  -23.6755 C   0  0  0  0  0  0  0  0  0  0  0  0
  -13.2241   16.1011  -24.8839 C   0  0  0  0  0  0  0  0  0  0  0  0
  -11.6956   15.1402  -28.3771 C   0  0  0  0  0  0  0  0  0  0  0  0
  -10.9857   16.2434  -28.8067 C   0  0  0  0  0  0  0  0  0  0  0  0
  1  2  2  0
  2  3  1  0
  3  4  2  0
  3  5  1  0
  5  6  1  0
  6  7  2  0
  7  8  1  0
  8  9  2  0
  9 10  1  0
 10 11  2  0
 11 12  1  0
 12 13  2  0
 13 14  1  0
 15 14  1  0
 15 16  1  0
 16 17  1  0
 17 18  1  0
 18 19  1  0
 19 20  1  0
 13 21  1  0
 21 22  2  0
 22  6  1  0
 21  9  1  0
 20 15  1  0
M  CHG  1  14   1
M  END
$$$$
CHEMBL3133894_diffdock_2
     RDKit          3D

 22 24  0  0  0  0  0  0  0  0999 V2000
  -18.8990   10.5043  -25.6854 C   0  0  0  0  0  0  0  0  0  0  0  0
  -18.0298   11.4527  -25.3829 C   0  0  0  0  0  0  0  0  0  0  0  0
  -16.7044   11.6780  -25.9486 C   0  0  0  0  0  0  0  0  0  0  0  0
  -16.1882   10.7622  -26.6407 O   0  0  0  0  0  0  0  0  0  0  0  0
  -16.0561   12.9206  -25.6931 N   0  0  0  0  0  0  0  0  0  0  0  0
  -14.8848   13.1155  -26.4971 C   0  0  0  0  0  0  0  0  0  0  0  0
  -14.1664   12.1233  -27.1308 C   0  0  0  0  0  0  0  0  0  0  0  0
  -13.0508   12.4369  -27.8800 C   0  0  0  0  0  0  0  0  0  0  0  0
  -12.6705   13.7626  -27.9812 C   0  0  0  0  0  0  0  0  0  0  0  0
  -11.5666   14.0242  -28.7286 N   0  0  0  0  0  0  0  0  0  0  0  0
  -11.1352   15.3120  -28.8705 C   0  0  0  0  0  0  0  0  0  0  0  0
  -11.8040   16.3340  -28.2682 N   0  0  0  0  0  0  0  0  0  0  0  0
  -12.9076   16.0728  -27.5209 C   0  0  0  0  0  0  0  0  0  0  0  0
  -13.6376   17.1116  -26.8728 N   0  0  0  0  0  4  0  0  0  0  0  0
  -12.8451   18.3204  -26.7451 C   0  0  0  0  0  0  0  0  0  0  0  0
  -12.1152   18.2952  -25.4181 C   0  0  0  0  0  0  0  0  0  0  0  0
  -11.1837   19.5120  -25.3589 C   0  0  0  0  0  0  0  0  0  0  0  0
  -11.9590   20.7945  -25.5164 C   0  0  0  0  0  0  0  0  0  0  0  0
  -13.4362   20.5211  -25.6531 C   0  0  0  0  0  0  0  0  0  0  0  0
  -13.7601   19.5235  -26.7386 C   0  0  0  0  0  0  0  0  0  0  0  0
  -13.3678   14.7781  -27.3595 C   0  0  0  0  0  0  0  0  0  0  0  0
  -14.4790   14.4312  -26.6175 C   0  0  0  0  0  0  0  0  0  0  0  0
  1  2  2  0
  2  3  1  0
  3  4  2  0
  3  5  1  0
  5  6  1  0
  6  7  2  0
  7  8  1  0
  8  9  2  0
  9 10  1  0
 10 11  2  0
 11 12  1  0
 12 13  2  0
 13 14  1  0
 15 14  1  0
 15 16  1  0
 16 17  1  0
 17 18  1  0
 18 19  1  0
 19 20  1  0
 13 21  1  0
 21 22  2  0
 22  6  1  0
 21  9  1  0
 20 15  1  0
M  CHG  1  14   1
M  END
$$$$
CHEMBL3133894_diffdock_3
     RDKit          3D

 22 24  0  0  0  0  0  0  0  0999 V2000
  -17.9300   10.8371  -24.1818 C   0  0  0  0  0  0  0  0  0  0  0  0
  -17.6593   11.9477  -24.8451 C   0  0  0  0  0  0  0  0  0  0  0  0
  -16.4058   12.3386  -25.4803 C   0  0  0  0  0  0  0  0  0  0  0  0
  -15.3727   12.4116  -24.7652 O   0  0  0  0  0  0  0  0  0  0  0  0
  -16.4076   12.6191  -26.8770 N   0  0  0  0  0  0  0  0  0  0  0  0
  -15.0992   12.8995  -27.3923 C   0  0  0  0  0  0  0  0  0  0  0  0
  -14.2238   11.9735  -27.9199 C   0  0  0  0  0  0  0  0  0  0  0  0
  -12.9861   12.3670  -28.3861 C   0  0  0  0  0  0  0  0  0  0  0  0
  -12.6439   13.7049  -28.3130 C   0  0  0  0  0  0  0  0  0  0  0  0
  -11.4160   14.0462  -28.7835 N   0  0  0  0  0  0  0  0  0  0  0  0
  -11.0139   15.3504  -28.7416 C   0  0  0  0  0  0  0  0  0  0  0  0
  -11.8352   16.3096  -28.2318 N   0  0  0  0  0  0  0  0  0  0  0  0
  -13.0629   15.9689  -27.7614 C   0  0  0  0  0  0  0  0  0  0  0  0
  -13.9544   16.9400  -27.2191 N   0  0  0  0  0  4  0  0  0  0  0  0
  -13.3004   18.2228  -27.0398 C   0  0  0  0  0  0  0  0  0  0  0  0
  -12.3429   18.1303  -25.8697 C   0  0  0  0  0  0  0  0  0  0  0  0
  -11.5666   19.4497  -25.7787 C   0  0  0  0  0  0  0  0  0  0  0  0
  -12.5037   20.6176  -25.6095 C   0  0  0  0  0  0  0  0  0  0  0  0
  -13.9382   20.1559  -25.5427 C   0  0  0  0  0  0  0  0  0  0  0  0
  -14.3345   19.2715  -26.7000 C   0  0  0  0  0  0  0  0  0  0  0  0
  -13.4971   14.6555  -27.7910 C   0  0  0  0  0  0  0  0  0  0  0  0
  -14.7277   14.2295  -27.3332 C   0  0  0  0  0  0  0  0  0  0  0  0
  1  2  2  0
  2  3  1  0
  3  4  2  0
  3  5  1  0
  5  6  1  0
  6  7  2  0
  7  8  1  0
  8  9  2  0
  9 10  1  0
 10 11  2  0
 11 12  1  0
 12 13  2  0
 13 14  1  0
 15 14  1  0
 15 16  1  0
 16 17  1  0
 17 18  1  0
 18 19  1  0
 19 20  1  0
 13 21  1  0
 21 22  2  0
 22  6  1  0
 21  9  1  0
 20 15  1  0
M  CHG  1  14   1
M  END
$$$$
CHEMBL3133894_diffdock_4
     RDKit          3D

 22 24  0  0  0  0  0  0  0  0999 V2000
   -7.9951   20.2404  -27.2791 C   0  0  0  0  0  0  0  0  0  0  0  0
   -8.2803   19.3675  -28.2296 C   0  0  0  0  0  0  0  0  0  0  0  0
   -9.4254   18.4682  -28.3171 C   0  0  0  0  0  0  0  0  0  0  0  0
  -10.1729   18.3555  -27.3108 O   0  0  0  0  0  0  0  0  0  0  0  0
   -9.6452   17.7604  -29.5337 N   0  0  0  0  0  0  0  0  0  0  0  0
  -10.2219   16.4636  -29.3294 C   0  0  0  0  0  0  0  0  0  0  0  0
   -9.8583   15.3060  -29.9851 C   0  0  0  0  0  0  0  0  0  0  0  0
  -10.4902   14.1127  -29.7007 C   0  0  0  0  0  0  0  0  0  0  0  0
  -11.4923   14.1029  -28.7477 C   0  0  0  0  0  0  0  0  0  0  0  0
  -12.0862   12.9063  -28.5007 N   0  0  0  0  0  0  0  0  0  0  0  0
  -13.0834   12.8251  -27.5714 C   0  0  0  0  0  0  0  0  0  0  0  0
  -13.4855   13.9347  -26.8919 N   0  0  0  0  0  0  0  0  0  0  0  0
  -12.8919   15.1311  -27.1387 C   0  0  0  0  0  0  0  0  0  0  0  0
  -13.2814   16.3176  -26.4511 N   0  0  0  0  0  4  0  0  0  0  0  0
  -14.6136   16.1952  -25.8893 C   0  0  0  0  0  0  0  0  0  0  0  0
  -14.5269   15.4625  -24.5664 C   0  0  0  0  0  0  0  0  0  0  0  0
  -15.9206   15.4594  -23.9266 C   0  0  0  0  0  0  0  0  0  0  0  0
  -16.9302   14.8045  -24.8335 C   0  0  0  0  0  0  0  0  0  0  0  0
  -16.2784   14.3060  -26.0992 C   0  0  0  0  0  0  0  0  0  0  0  0
  -15.4751   15.3657  -26.8136 C   0  0  0  0  0  0  0  0  0  0  0  0
  -11.8791   15.2436  -28.0745 C   0  0  0  0  0  0  0  0  0  0  0  0
  -11.2273   16.4210  -28.3820 C   0  0  0  0  0  0  0  0  0  0  0  0
  1  2  2  0
  2  3  1  0
  3  4  2  0
  3  5  1  0
  5  6  1  0
  6  7  2  0
  7  8  1  0
  8  9  2  0
  9 10  1  0
 10 11  2  0
 11 12  1  0
 12 13  2  0
 13 14  1  0
 15 14  1  0
 15 16  1  0
 16 17  1  0
 17 18  1  0
 18 19  1  0
 19 20  1  0
 13 21  1  0
 21 22  2  0
 22  6  1  0
 21  9  1  0
 20 15  1  0
M  CHG  1  14   1
M  END
$$$$
CHEMBL3133894_diffdock_5
     RDKit          3D

 22 24  0  0  0  0  0  0  0  0999 V2000
  -18.7654   15.0524  -24.8741 C   0  0  0  0  0  0  0  0  0  0  0  0
  -17.5062   14.7148  -24.6570 C   0  0  0  0  0  0  0  0  0  0  0  0
  -16.4981   14.3103  -25.6305 C   0  0  0  0  0  0  0  0  0  0  0  0
  -16.7455   13.3216  -26.3689 O   0  0  0  0  0  0  0  0  0  0  0  0
  -15.2828   15.0504  -25.7012 N   0  0  0  0  0  0  0  0  0  0  0  0
  -14.3447   14.4966  -26.6335 C   0  0  0  0  0  0  0  0  0  0  0  0
  -14.2704   13.1730  -27.0140 C   0  0  0  0  0  0  0  0  0  0  0  0
  -13.3191   12.7588  -27.9238 C   0  0  0  0  0  0  0  0  0  0  0  0
  -12.4453   13.6962  -28.4436 C   0  0  0  0  0  0  0  0  0  0  0  0
  -11.5259   13.2432  -29.3354 N   0  0  0  0  0  0  0  0  0  0  0  0
  -10.6322   14.1154  -29.8877 C   0  0  0  0  0  0  0  0  0  0  0  0
  -10.6571   15.4346  -29.5505 N   0  0  0  0  0  0  0  0  0  0  0  0
  -11.5760   15.8878  -28.6591 C   0  0  0  0  0  0  0  0  0  0  0  0
  -11.6377   17.2599  -28.2774 N   0  0  0  0  0  4  0  0  0  0  0  0
  -10.4549   17.9850  -28.7024 C   0  0  0  0  0  0  0  0  0  0  0  0
  -10.4374   19.3411  -28.0277 C   0  0  0  0  0  0  0  0  0  0  0  0
   -9.1185   20.0379  -28.3837 C   0  0  0  0  0  0  0  0  0  0  0  0
   -8.9697   20.1833  -29.8762 C   0  0  0  0  0  0  0  0  0  0  0  0
  -10.1756   19.6337  -30.5968 C   0  0  0  0  0  0  0  0  0  0  0  0
  -10.5177   18.2197  -30.1942 C   0  0  0  0  0  0  0  0  0  0  0  0
  -12.4938   15.0273  -28.0834 C   0  0  0  0  0  0  0  0  0  0  0  0
  -13.4570   15.4093  -27.1712 C   0  0  0  0  0  0  0  0  0  0  0  0
  1  2  2  0
  2  3  1  0
  3  4  2  0
  3  5  1  0
  5  6  1  0
  6  7  2  0
  7  8  1  0
  8  9  2  0
  9 10  1  0
 10 11  2  0
 11 12  1  0
 12 13  2  0
 13 14  1  0
 15 14  1  0
 15 16  1  0
 16 17  1  0
 17 18  1  0
 18 19  1  0
 19 20  1  0
 13 21  1  0
 21 22  2  0
 22  6  1  0
 21  9  1  0
 20 15  1  0
M  CHG  1  14   1
M  END
$$$$
CHEMBL3133894_diffdock_6
     RDKit          3D

 22 24  0  0  0  0  0  0  0  0999 V2000
  -18.2589   12.3123  -23.6236 C   0  0  0  0  0  0  0  0  0  0  0  0
  -17.5043   13.1612  -24.2995 C   0  0  0  0  0  0  0  0  0  0  0  0
  -16.4863   12.8659  -25.3014 C   0  0  0  0  0  0  0  0  0  0  0  0
  -16.0225   11.6970  -25.3533 O   0  0  0  0  0  0  0  0  0  0  0  0
  -16.0641   13.9105  -26.1732 N   0  0  0  0  0  0  0  0  0  0  0  0
  -14.8133   13.6308  -26.8159 C   0  0  0  0  0  0  0  0  0  0  0  0
  -14.3095   12.3767  -27.0906 C   0  0  0  0  0  0  0  0  0  0  0  0
  -13.0877   12.2349  -27.7162 C   0  0  0  0  0  0  0  0  0  0  0  0
  -12.3823   13.3734  -28.0604 C   0  0  0  0  0  0  0  0  0  0  0  0
  -11.1848   13.1858  -28.6742 N   0  0  0  0  0  0  0  0  0  0  0  0
  -10.4360   14.2669  -29.0412 C   0  0  0  0  0  0  0  0  0  0  0  0
  -10.8816   15.5302  -28.7961 N   0  0  0  0  0  0  0  0  0  0  0  0
  -12.0785   15.7182  -28.1826 C   0  0  0  0  0  0  0  0  0  0  0  0
  -12.5832   17.0225  -27.9064 N   0  0  0  0  0  4  0  0  0  0  0  0
  -11.5207   17.9368  -27.5314 C   0  0  0  0  0  0  0  0  0  0  0  0
  -11.1304   17.6770  -26.0910 C   0  0  0  0  0  0  0  0  0  0  0  0
   -9.9212   18.5582  -25.7545 C   0  0  0  0  0  0  0  0  0  0  0  0
  -10.2392   20.0159  -25.9659 C   0  0  0  0  0  0  0  0  0  0  0  0
  -11.6674   20.1991  -26.4155 C   0  0  0  0  0  0  0  0  0  0  0  0
  -12.0270   19.3584  -27.6165 C   0  0  0  0  0  0  0  0  0  0  0  0
  -12.8588   14.6418  -27.7995 C   0  0  0  0  0  0  0  0  0  0  0  0
  -14.0839   14.7494  -27.1726 C   0  0  0  0  0  0  0  0  0  0  0  0
  1  2  2  0
  2  3  1  0
  3  4  2  0
  3  5  1  0
  5  6  1  0
  6  7  2  0
  7  8  1  0
  8  9  2  0
  9 10  1  0
 10 11  2  0
 11 12  1  0
 12 13  2  0
 13 14  1  0
 15 14  1  0
 15 16  1  0
 16 17  1  0
 17 18  1  0
 18 19  1  0
 19 20  1  0
 13 21  1  0
 21 22  2  0
 22  6  1  0
 21  9  1  0
 20 15  1  0
M  CHG  1  14   1
M  END
$$$$
CHEMBL3133894_diffdock_7
     RDKit          3D

 22 24  0  0  0  0  0  0  0  0999 V2000
  -16.5272   13.4427  -22.3532 C   0  0  0  0  0  0  0  0  0  0  0  0
  -16.6900   13.7233  -23.6344 C   0  0  0  0  0  0  0  0  0  0  0  0
  -15.6662   13.9868  -24.6393 C   0  0  0  0  0  0  0  0  0  0  0  0
  -14.6109   14.5688  -24.2765 O   0  0  0  0  0  0  0  0  0  0  0  0
  -15.9062   13.5747  -25.9817 N   0  0  0  0  0  0  0  0  0  0  0  0
  -14.7100   13.5137  -26.7699 C   0  0  0  0  0  0  0  0  0  0  0  0
  -14.3217   12.4576  -27.5674 C   0  0  0  0  0  0  0  0  0  0  0  0
  -13.1425   12.5167  -28.2817 C   0  0  0  0  0  0  0  0  0  0  0  0
  -12.3617   13.6535  -28.1809 C   0  0  0  0  0  0  0  0  0  0  0  0
  -11.2100   13.6673  -28.9013 N   0  0  0  0  0  0  0  0  0  0  0  0
  -10.3915   14.7590  -28.8478 C   0  0  0  0  0  0  0  0  0  0  0  0
  -10.7224   15.8323  -28.0776 N   0  0  0  0  0  0  0  0  0  0  0  0
  -11.8736   15.8189  -27.3573 C   0  0  0  0  0  0  0  0  0  0  0  0
  -12.2586   16.9200  -26.5379 N   0  0  0  0  0  4  0  0  0  0  0  0
  -12.3881   18.1406  -27.3116 C   0  0  0  0  0  0  0  0  0  0  0  0
  -11.0226   18.7794  -27.4597 C   0  0  0  0  0  0  0  0  0  0  0  0
  -11.1577   19.9922  -28.3884 C   0  0  0  0  0  0  0  0  0  0  0  0
  -12.1532   20.9829  -27.8423 C   0  0  0  0  0  0  0  0  0  0  0  0
  -12.7098   20.5184  -26.5195 C   0  0  0  0  0  0  0  0  0  0  0  0
  -13.2692   19.1172  -26.5670 C   0  0  0  0  0  0  0  0  0  0  0  0
  -12.7222   14.7267  -27.3920 C   0  0  0  0  0  0  0  0  0  0  0  0
  -13.9075   14.6362  -26.6902 C   0  0  0  0  0  0  0  0  0  0  0  0
  1  2  2  0
  2  3  1  0
  3  4  2  0
  3  5  1  0
  5  6  1  0
  6  7  2  0
  7  8  1  0
  8  9  2  0
  9 10  1  0
 10 11  2  0
 11 12  1  0
 12 13  2  0
 13 14  1  0
 15 14  1  0
 15 16  1  0
 16 17  1  0
 17 18  1  0
 18 19  1  0
 19 20  1  0
 13 21  1  0
 21 22  2  0
 22  6  1  0
 21  9  1  0
 20 15  1  0
M  CHG  1  14   1
M  END
$$$$
CHEMBL3133894_diffdock_8
     RDKit          3D

 22 24  0  0  0  0  0  0  0  0999 V2000
  -17.6319   16.3000  -24.2904 C   0  0  0  0  0  0  0  0  0  0  0  0
  -17.1957   15.3669  -25.1185 C   0  0  0  0  0  0  0  0  0  0  0  0
  -15.9205   15.3089  -25.8242 C   0  0  0  0  0  0  0  0  0  0  0  0
  -15.6339   16.2452  -26.6150 O   0  0  0  0  0  0  0  0  0  0  0  0
  -15.0598   14.1988  -25.5872 N   0  0  0  0  0  0  0  0  0  0  0  0
  -14.1961   13.9146  -26.6960 C   0  0  0  0  0  0  0  0  0  0  0  0
  -14.2482   12.7897  -27.4922 C   0  0  0  0  0  0  0  0  0  0  0  0
  -13.3585   12.6284  -28.5346 C   0  0  0  0  0  0  0  0  0  0  0  0
  -12.4171   13.6154  -28.7625 C   0  0  0  0  0  0  0  0  0  0  0  0
  -11.5622   13.4142  -29.7990 N   0  0  0  0  0  0  0  0  0  0  0  0
  -10.6076   14.3492  -30.0799 C   0  0  0  0  0  0  0  0  0  0  0  0
  -10.5076   15.4805  -29.3285 N   0  0  0  0  0  0  0  0  0  0  0  0
  -11.3620   15.6820  -28.2922 C   0  0  0  0  0  0  0  0  0  0  0  0
  -11.2929   16.8512  -27.4796 N   0  0  0  0  0  4  0  0  0  0  0  0
  -11.3499   18.0605  -28.2795 C   0  0  0  0  0  0  0  0  0  0  0  0
   -9.9782   18.3339  -28.8608 C   0  0  0  0  0  0  0  0  0  0  0  0
  -10.0880   19.5362  -29.8064 C   0  0  0  0  0  0  0  0  0  0  0  0
  -10.6106   20.7489  -29.0805 C   0  0  0  0  0  0  0  0  0  0  0  0
  -10.8453   20.4473  -27.6213 C   0  0  0  0  0  0  0  0  0  0  0  0
  -11.7114   19.2319  -27.3953 C   0  0  0  0  0  0  0  0  0  0  0  0
  -12.3391   14.7521  -27.9842 C   0  0  0  0  0  0  0  0  0  0  0  0
  -13.2434   14.8833  -26.9495 C   0  0  0  0  0  0  0  0  0  0  0  0
  1  2  2  0
  2  3  1  0
  3  4  2  0
  3  5  1  0
  5  6  1  0
  6  7  2  0
  7  8  1  0
  8  9  2  0
  9 10  1  0
 10 11  2  0
 11 12  1  0
 12 13  2  0
 13 14  1  0
 15 14  1  0
 15 16  1  0
 16 17  1  0
 17 18  1  0
 18 19  1  0
 19 20  1  0
 13 21  1  0
 21 22  2  0
 22  6  1  0
 21  9  1  0
 20 15  1  0
M  CHG  1  14   1
M  END
$$$$
CHEMBL3133894_diffdock_9
     RDKit          3D

 22 24  0  0  0  0  0  0  0  0999 V2000
  -18.1339   14.3952  -24.3289 C   0  0  0  0  0  0  0  0  0  0  0  0
  -17.4132   15.2584  -25.0234 C   0  0  0  0  0  0  0  0  0  0  0  0
  -16.3037   14.9865  -25.9302 C   0  0  0  0  0  0  0  0  0  0  0  0
  -16.1184   15.7705  -26.8972 O   0  0  0  0  0  0  0  0  0  0  0  0
  -15.4824   13.8494  -25.6813 N   0  0  0  0  0  0  0  0  0  0  0  0
  -14.4643   13.6671  -26.6744 C   0  0  0  0  0  0  0  0  0  0  0  0
  -14.1301   12.4729  -27.2781 C   0  0  0  0  0  0  0  0  0  0  0  0
  -13.1270   12.4239  -28.2244 C   0  0  0  0  0  0  0  0  0  0  0  0
  -12.4667   13.5937  -28.5530 C   0  0  0  0  0  0  0  0  0  0  0  0
  -11.4868   13.4978  -29.4891 N   0  0  0  0  0  0  0  0  0  0  0  0
  -10.7944   14.6145  -29.8605 C   0  0  0  0  0  0  0  0  0  0  0  0
  -11.0798   15.8219  -29.2991 N   0  0  0  0  0  0  0  0  0  0  0  0
  -12.0594   15.9182  -28.3633 C   0  0  0  0  0  0  0  0  0  0  0  0
  -12.3909   17.1615  -27.7497 N   0  0  0  0  0  4  0  0  0  0  0  0
  -11.2028   17.8920  -27.3494 C   0  0  0  0  0  0  0  0  0  0  0  0
  -11.5942   18.9660  -26.3555 C   0  0  0  0  0  0  0  0  0  0  0  0
  -10.3137   19.6379  -25.8451 C   0  0  0  0  0  0  0  0  0  0  0  0
   -9.5224   20.2282  -26.9836 C   0  0  0  0  0  0  0  0  0  0  0  0
  -10.2302   20.0218  -28.2996 C   0  0  0  0  0  0  0  0  0  0  0  0
  -10.6069   18.5825  -28.5547 C   0  0  0  0  0  0  0  0  0  0  0  0
  -12.7775   14.8038  -27.9673 C   0  0  0  0  0  0  0  0  0  0  0  0
  -13.7857   14.8191  -27.0245 C   0  0  0  0  0  0  0  0  0  0  0  0
  1  2  2  0
  2  3  1  0
  3  4  2  0
  3  5  1  0
  5  6  1  0
  6  7  2  0
  7  8  1  0
  8  9  2  0
  9 10  1  0
 10 11  2  0
 11 12  1  0
 12 13  2  0
 13 14  1  0
 15 14  1  0
 15 16  1  0
 16 17  1  0
 17 18  1  0
 18 19  1  0
 19 20  1  0
 13 21  1  0
 21 22  2  0
 22  6  1  0
 21  9  1  0
 20 15  1  0
M  CHG  1  14   1
M  END
$$$$
CHEMBL3133894_diffdock_10
     RDKit          3D

 22 24  0  0  0  0  0  0  0  0999 V2000
  -18.1104   15.2868  -24.5163 C   0  0  0  0  0  0  0  0  0  0  0  0
  -17.4833   14.3974  -25.2663 C   0  0  0  0  0  0  0  0  0  0  0  0
  -16.1570   14.4945  -25.8655 C   0  0  0  0  0  0  0  0  0  0  0  0
  -15.8942   15.5030  -26.5711 O   0  0  0  0  0  0  0  0  0  0  0  0
  -15.2220   13.4467  -25.6256 N   0  0  0  0  0  0  0  0  0  0  0  0
  -14.1893   13.3813  -26.6181 C   0  0  0  0  0  0  0  0  0  0  0  0
  -13.8741   12.2782  -27.3837 C   0  0  0  0  0  0  0  0  0  0  0  0
  -12.8537   12.3383  -28.3107 C   0  0  0  0  0  0  0  0  0  0  0  0
  -12.1568   13.5239  -28.4548 C   0  0  0  0  0  0  0  0  0  0  0  0
  -11.1610   13.5367  -29.3789 N   0  0  0  0  0  0  0  0  0  0  0  0
  -10.4324   14.6752  -29.5727 C   0  0  0  0  0  0  0  0  0  0  0  0
  -10.6977   15.7962  -28.8462 N   0  0  0  0  0  0  0  0  0  0  0  0
  -11.6931   15.7837  -27.9224 C   0  0  0  0  0  0  0  0  0  0  0  0
  -12.0045   16.9338  -27.1398 N   0  0  0  0  0  4  0  0  0  0  0  0
  -10.9480   17.9262  -27.2068 C   0  0  0  0  0  0  0  0  0  0  0  0
  -10.9645   18.7524  -25.9373 C   0  0  0  0  0  0  0  0  0  0  0  0
   -9.7627   19.7044  -25.9679 C   0  0  0  0  0  0  0  0  0  0  0  0
   -9.8086   20.5940  -27.1833 C   0  0  0  0  0  0  0  0  0  0  0  0
  -11.0416   20.3207  -28.0083 C   0  0  0  0  0  0  0  0  0  0  0  0
  -11.2107   18.8634  -28.3632 C   0  0  0  0  0  0  0  0  0  0  0  0
  -12.4477   14.6448  -27.7044 C   0  0  0  0  0  0  0  0  0  0  0  0
  -13.4740   14.5520  -26.7859 C   0  0  0  0  0  0  0  0  0  0  0  0
  1  2  2  0
  2  3  1  0
  3  4  2  0
  3  5  1  0
  5  6  1  0
  6  7  2  0
  7  8  1  0
  8  9  2  0
  9 10  1  0
 10 11  2  0
 11 12  1  0
 12 13  2  0
 13 14  1  0
 15 14  1  0
 15 16  1  0
 16 17  1  0
 17 18  1  0
 18 19  1  0
 19 20  1  0
 13 21  1  0
 21 22  2  0
 22  6  1  0
 21  9  1  0
 20 15  1  0
M  CHG  1  14   1
M  END
$$$$
CHEMBL4858409_diffdock_1
     RDKit          3D

 35 38  0  0  0  0  0  0  0  0999 V2000
  -10.1202   18.7586  -27.9131 O   0  0  0  0  0  0  0  0  0  0  0  0
  -10.9459   18.8995  -26.9997 C   0  0  0  0  0  0  0  0  0  0  0  0
  -10.3279   19.6709  -25.9951 N   0  0  0  0  0  0  0  0  0  0  0  0
   -9.2217   20.4221  -26.1829 O   0  0  0  0  0  0  0  0  0  0  0  0
  -12.2933   18.4439  -26.8284 C   0  0  0  0  0  0  0  0  0  0  0  0
  -13.1250   19.0307  -25.9055 C   0  0  0  0  0  0  0  0  0  0  0  0
  -14.4318   18.6302  -25.7461 C   0  0  0  0  0  0  0  0  0  0  0  0
  -14.9888   17.6195  -26.4982 C   0  0  0  0  0  0  0  0  0  0  0  0
  -14.1174   17.0516  -27.4187 C   0  0  0  0  0  0  0  0  0  0  0  0
  -12.7818   17.4243  -27.6164 C   0  0  0  0  0  0  0  0  0  0  0  0
  -12.0519   16.7240  -28.6097 N   0  0  0  0  0  0  0  0  0  0  0  0
  -11.6627   15.3688  -28.7863 C   0  0  0  0  0  0  0  0  0  0  0  0
  -12.2912   14.3299  -28.2287 N   0  0  0  0  0  0  0  0  0  0  0  0
  -11.9547   13.0409  -28.3727 C   0  0  0  0  0  0  0  0  0  0  0  0
  -12.7441   12.0775  -27.7024 N   0  0  0  0  0  0  0  0  0  0  0  0
  -14.0159   12.2574  -27.1128 C   0  0  0  0  0  0  0  0  0  0  0  0
  -14.9959   11.3037  -26.9599 C   0  0  0  0  0  0  0  0  0  0  0  0
  -16.2251   11.4926  -26.3874 C   0  0  0  0  0  0  0  0  0  0  0  0
  -16.5473   12.7492  -25.9055 C   0  0  0  0  0  0  0  0  0  0  0  0
  -17.7883   12.9147  -25.3348 O   0  0  0  0  0  0  0  0  0  0  0  0
  -18.0224   12.8232  -23.9327 C   0  0  0  0  0  0  0  0  0  0  0  0
  -18.8100   11.6215  -23.6515 C   0  0  0  0  0  0  0  0  0  0  0  0
  -19.6096   11.3349  -24.5924 O   0  0  0  0  0  0  0  0  0  0  0  0
  -18.8710   10.7174  -22.5634 N   0  0  0  0  0  0  0  0  0  0  0  0
  -20.2051   10.2739  -22.2077 C   0  0  0  0  0  0  0  0  0  0  0  0
  -20.3308   10.3987  -20.6993 C   0  0  0  0  0  0  0  0  0  0  0  0
  -19.3209    9.7799  -20.0076 O   0  0  0  0  0  0  0  0  0  0  0  0
  -18.3289    9.2310  -20.7812 C   0  0  0  0  0  0  0  0  0  0  0  0
  -17.7559   10.2022  -21.7873 C   0  0  0  0  0  0  0  0  0  0  0  0
  -15.6050   13.7430  -26.0314 C   0  0  0  0  0  0  0  0  0  0  0  0
  -14.3889   13.4855  -26.6173 C   0  0  0  0  0  0  0  0  0  0  0  0
  -10.9011   12.7889  -29.1405 N   0  0  0  0  0  0  0  0  0  0  0  0
  -10.2367   13.7870  -29.7214 C   0  0  0  0  0  0  0  0  0  0  0  0
  -10.5721   15.1115  -29.5813 C   0  0  0  0  0  0  0  0  0  0  0  0
   -9.6290   16.3463  -30.3917 Cl  0  0  0  0  0  0  0  0  0  0  0  0
  1  2  2  0
  2  3  1  0
  3  4  1  0
  2  5  1  0
  5  6  2  0
  6  7  1  0
  7  8  2  0
  8  9  1  0
  9 10  2  0
 10 11  1  0
 11 12  1  0
 12 13  2  0
 13 14  1  0
 14 15  1  0
 15 16  1  0
 16 17  2  0
 17 18  1  0
 18 19  2  0
 19 20  1  0
 20 21  1  0
 21 22  1  0
 22 23  2  0
 22 24  1  0
 24 25  1  0
 25 26  1  0
 26 27  1  0
 27 28  1  0
 28 29  1  0
 19 30  1  0
 30 31  2  0
 14 32  2  0
 32 33  1  0
 33 34  2  0
 34 35  1  0
 10  5  1  0
 34 12  1  0
 31 16  1  0
 29 24  1  0
M  END
$$$$
CHEMBL4858409_diffdock_2
     RDKit          3D

 35 38  0  0  0  0  0  0  0  0999 V2000
   -9.8904   18.8584  -27.4949 O   0  0  0  0  0  0  0  0  0  0  0  0
  -10.7341   19.1043  -26.6212 C   0  0  0  0  0  0  0  0  0  0  0  0
  -10.1498   20.0208  -25.7240 N   0  0  0  0  0  0  0  0  0  0  0  0
   -8.9652   20.6362  -25.9270 O   0  0  0  0  0  0  0  0  0  0  0  0
  -12.0743   18.6453  -26.4072 C   0  0  0  0  0  0  0  0  0  0  0  0
  -12.8683   19.2111  -25.4391 C   0  0  0  0  0  0  0  0  0  0  0  0
  -14.1682   18.8074  -25.2375 C   0  0  0  0  0  0  0  0  0  0  0  0
  -14.7557   17.8144  -25.9899 C   0  0  0  0  0  0  0  0  0  0  0  0
  -13.9219   17.2675  -26.9568 C   0  0  0  0  0  0  0  0  0  0  0  0
  -12.5947   17.6442  -27.1984 C   0  0  0  0  0  0  0  0  0  0  0  0
  -11.9055   16.9666  -28.2355 N   0  0  0  0  0  0  0  0  0  0  0  0
  -11.5675   15.6085  -28.4818 C   0  0  0  0  0  0  0  0  0  0  0  0
  -12.1682   14.5687  -27.8958 N   0  0  0  0  0  0  0  0  0  0  0  0
  -11.8781   13.2771  -28.1031 C   0  0  0  0  0  0  0  0  0  0  0  0
  -12.6269   12.3132  -27.3883 N   0  0  0  0  0  0  0  0  0  0  0  0
  -13.9135   12.4606  -26.8223 C   0  0  0  0  0  0  0  0  0  0  0  0
  -14.8913   11.4964  -26.7358 C   0  0  0  0  0  0  0  0  0  0  0  0
  -16.1350   11.6538  -26.1854 C   0  0  0  0  0  0  0  0  0  0  0  0
  -16.4760   12.8861  -25.6559 C   0  0  0  0  0  0  0  0  0  0  0  0
  -17.7312   13.0201  -25.1087 O   0  0  0  0  0  0  0  0  0  0  0  0
  -17.9608   13.5012  -23.7878 C   0  0  0  0  0  0  0  0  0  0  0  0
  -19.1899   12.9038  -23.2625 C   0  0  0  0  0  0  0  0  0  0  0  0
  -19.7226   12.0939  -24.0793 O   0  0  0  0  0  0  0  0  0  0  0  0
  -19.9066   13.0347  -22.0483 N   0  0  0  0  0  0  0  0  0  0  0  0
  -20.9999   12.0975  -21.8766 C   0  0  0  0  0  0  0  0  0  0  0  0
  -22.2041   12.8958  -21.4084 C   0  0  0  0  0  0  0  0  0  0  0  0
  -21.9527   13.6851  -20.3153 O   0  0  0  0  0  0  0  0  0  0  0  0
  -20.6505   13.6914  -19.8816 C   0  0  0  0  0  0  0  0  0  0  0  0
  -19.6604   13.9917  -20.9832 C   0  0  0  0  0  0  0  0  0  0  0  0
  -15.5367   13.8890  -25.7146 C   0  0  0  0  0  0  0  0  0  0  0  0
  -14.3054   13.6636  -26.2818 C   0  0  0  0  0  0  0  0  0  0  0  0
  -10.9052   13.0232  -28.9703 N   0  0  0  0  0  0  0  0  0  0  0  0
  -10.2720   14.0220  -29.5837 C   0  0  0  0  0  0  0  0  0  0  0  0
  -10.5604   15.3491  -29.3796 C   0  0  0  0  0  0  0  0  0  0  0  0
   -9.6646   16.5848  -30.2409 Cl  0  0  0  0  0  0  0  0  0  0  0  0
  1  2  2  0
  2  3  1  0
  3  4  1  0
  2  5  1  0
  5  6  2  0
  6  7  1  0
  7  8  2  0
  8  9  1  0
  9 10  2  0
 10 11  1  0
 11 12  1  0
 12 13  2  0
 13 14  1  0
 14 15  1  0
 15 16  1  0
 16 17  2  0
 17 18  1  0
 18 19  2  0
 19 20  1  0
 20 21  1  0
 21 22  1  0
 22 23  2  0
 22 24  1  0
 24 25  1  0
 25 26  1  0
 26 27  1  0
 27 28  1  0
 28 29  1  0
 19 30  1  0
 30 31  2  0
 14 32  2  0
 32 33  1  0
 33 34  2  0
 34 35  1  0
 10  5  1  0
 34 12  1  0
 31 16  1  0
 29 24  1  0
M  END
$$$$
CHEMBL4858409_diffdock_3
     RDKit          3D

 35 38  0  0  0  0  0  0  0  0999 V2000
  -10.4586   19.2839  -28.0970 O   0  0  0  0  0  0  0  0  0  0  0  0
  -11.3286   19.4533  -27.2308 C   0  0  0  0  0  0  0  0  0  0  0  0
  -10.9135   20.5358  -26.4296 N   0  0  0  0  0  0  0  0  0  0  0  0
   -9.8431   21.3147  -26.6957 O   0  0  0  0  0  0  0  0  0  0  0  0
  -12.5640   18.7843  -26.9499 C   0  0  0  0  0  0  0  0  0  0  0  0
  -13.4807   19.3292  -26.0837 C   0  0  0  0  0  0  0  0  0  0  0  0
  -14.6867   18.7196  -25.8235 C   0  0  0  0  0  0  0  0  0  0  0  0
  -15.0518   17.5290  -26.4122 C   0  0  0  0  0  0  0  0  0  0  0  0
  -14.0995   17.0103  -27.2801 C   0  0  0  0  0  0  0  0  0  0  0  0
  -12.8605   17.5927  -27.5755 C   0  0  0  0  0  0  0  0  0  0  0  0
  -12.0231   16.9089  -28.4926 N   0  0  0  0  0  0  0  0  0  0  0  0
  -11.7166   15.5417  -28.7292 C   0  0  0  0  0  0  0  0  0  0  0  0
  -12.2912   14.5224  -28.0840 N   0  0  0  0  0  0  0  0  0  0  0  0
  -12.0293   13.2231  -28.2801 C   0  0  0  0  0  0  0  0  0  0  0  0
  -12.7427   12.2843  -27.4988 N   0  0  0  0  0  0  0  0  0  0  0  0
  -14.0056   12.4484  -26.8858 C   0  0  0  0  0  0  0  0  0  0  0  0
  -14.9254   11.4613  -26.6162 C   0  0  0  0  0  0  0  0  0  0  0  0
  -16.1468   11.6351  -26.0223 C   0  0  0  0  0  0  0  0  0  0  0  0
  -16.5256   12.9111  -25.6438 C   0  0  0  0  0  0  0  0  0  0  0  0
  -17.7574   13.0608  -25.0492 O   0  0  0  0  0  0  0  0  0  0  0  0
  -18.5647   11.9623  -24.6362 C   0  0  0  0  0  0  0  0  0  0  0  0
  -18.4799   11.8201  -23.1816 C   0  0  0  0  0  0  0  0  0  0  0  0
  -17.7679   12.7224  -22.6471 O   0  0  0  0  0  0  0  0  0  0  0  0
  -19.0173   10.8989  -22.2500 N   0  0  0  0  0  0  0  0  0  0  0  0
  -19.8220    9.8400  -22.8281 C   0  0  0  0  0  0  0  0  0  0  0  0
  -21.0958    9.7466  -22.0062 C   0  0  0  0  0  0  0  0  0  0  0  0
  -20.8757    9.6242  -20.6580 O   0  0  0  0  0  0  0  0  0  0  0  0
  -19.5615    9.6924  -20.2682 C   0  0  0  0  0  0  0  0  0  0  0  0
  -18.8457   10.9094  -20.8072 C   0  0  0  0  0  0  0  0  0  0  0  0
  -15.6449   13.9385  -25.8888 C   0  0  0  0  0  0  0  0  0  0  0  0
  -14.4331   13.6946  -26.4895 C   0  0  0  0  0  0  0  0  0  0  0  0
  -11.1156   12.9383  -29.2004 N   0  0  0  0  0  0  0  0  0  0  0  0
  -10.5107   13.9155  -29.8743 C   0  0  0  0  0  0  0  0  0  0  0  0
  -10.7707   15.2503  -29.6821 C   0  0  0  0  0  0  0  0  0  0  0  0
   -9.9167   16.4557  -30.6248 Cl  0  0  0  0  0  0  0  0  0  0  0  0
  1  2  2  0
  2  3  1  0
  3  4  1  0
  2  5  1  0
  5  6  2  0
  6  7  1  0
  7  8  2  0
  8  9  1  0
  9 10  2  0
 10 11  1  0
 11 12  1  0
 12 13  2  0
 13 14  1  0
 14 15  1  0
 15 16  1  0
 16 17  2  0
 17 18  1  0
 18 19  2  0
 19 20  1  0
 20 21  1  0
 21 22  1  0
 22 23  2  0
 22 24  1  0
 24 25  1  0
 25 26  1  0
 26 27  1  0
 27 28  1  0
 28 29  1  0
 19 30  1  0
 30 31  2  0
 14 32  2  0
 32 33  1  0
 33 34  2  0
 34 35  1  0
 10  5  1  0
 34 12  1  0
 31 16  1  0
 29 24  1  0
M  END
$$$$
CHEMBL4858409_diffdock_4
     RDKit          3D

 35 38  0  0  0  0  0  0  0  0999 V2000
  -10.1161   18.9094  -27.9167 O   0  0  0  0  0  0  0  0  0  0  0  0
  -10.9466   19.0812  -27.0131 C   0  0  0  0  0  0  0  0  0  0  0  0
  -10.3786   19.9835  -26.0914 N   0  0  0  0  0  0  0  0  0  0  0  0
   -9.2453   20.6842  -26.3103 O   0  0  0  0  0  0  0  0  0  0  0  0
  -12.2601   18.5557  -26.7870 C   0  0  0  0  0  0  0  0  0  0  0  0
  -13.0898   19.1109  -25.8430 C   0  0  0  0  0  0  0  0  0  0  0  0
  -14.3661   18.6424  -25.6312 C   0  0  0  0  0  0  0  0  0  0  0  0
  -14.8929   17.5912  -26.3487 C   0  0  0  0  0  0  0  0  0  0  0  0
  -14.0245   17.0571  -27.2920 C   0  0  0  0  0  0  0  0  0  0  0  0
  -12.7192   17.4987  -27.5428 C   0  0  0  0  0  0  0  0  0  0  0  0
  -11.9874   16.8236  -28.5520 N   0  0  0  0  0  0  0  0  0  0  0  0
  -11.6304   15.4675  -28.7817 C   0  0  0  0  0  0  0  0  0  0  0  0
  -12.2936   14.4225  -28.2782 N   0  0  0  0  0  0  0  0  0  0  0  0
  -11.9881   13.1325  -28.4732 C   0  0  0  0  0  0  0  0  0  0  0  0
  -12.8118   12.1623  -27.8561 N   0  0  0  0  0  0  0  0  0  0  0  0
  -13.9088   12.3798  -26.9919 C   0  0  0  0  0  0  0  0  0  0  0  0
  -14.2899   13.5760  -26.4287 C   0  0  0  0  0  0  0  0  0  0  0  0
  -15.3553   13.7719  -25.5915 C   0  0  0  0  0  0  0  0  0  0  0  0
  -16.1465   12.6866  -25.2581 C   0  0  0  0  0  0  0  0  0  0  0  0
  -17.2111   12.9082  -24.4151 O   0  0  0  0  0  0  0  0  0  0  0  0
  -18.5205   13.2265  -24.8766 C   0  0  0  0  0  0  0  0  0  0  0  0
  -18.9853   14.4443  -24.2098 C   0  0  0  0  0  0  0  0  0  0  0  0
  -18.5027   15.4953  -24.7286 O   0  0  0  0  0  0  0  0  0  0  0  0
  -19.8509   14.6993  -23.1185 N   0  0  0  0  0  0  0  0  0  0  0  0
  -20.4445   13.5207  -22.5172 C   0  0  0  0  0  0  0  0  0  0  0  0
  -21.9278   13.8017  -22.3517 C   0  0  0  0  0  0  0  0  0  0  0  0
  -22.1981   14.9747  -21.6945 O   0  0  0  0  0  0  0  0  0  0  0  0
  -21.1014   15.7355  -21.3744 C   0  0  0  0  0  0  0  0  0  0  0  0
  -20.1943   15.9939  -22.5552 C   0  0  0  0  0  0  0  0  0  0  0  0
  -15.8126   11.4641  -25.7925 C   0  0  0  0  0  0  0  0  0  0  0  0
  -14.7286   11.3367  -26.6274 C   0  0  0  0  0  0  0  0  0  0  0  0
  -10.9300   12.8861  -29.2366 N   0  0  0  0  0  0  0  0  0  0  0  0
  -10.2318   13.8904  -29.7646 C   0  0  0  0  0  0  0  0  0  0  0  0
  -10.5351   15.2160  -29.5720 C   0  0  0  0  0  0  0  0  0  0  0  0
   -9.5487   16.4593  -30.3151 Cl  0  0  0  0  0  0  0  0  0  0  0  0
  1  2  2  0
  2  3  1  0
  3  4  1  0
  2  5  1  0
  5  6  2  0
  6  7  1  0
  7  8  2  0
  8  9  1  0
  9 10  2  0
 10 11  1  0
 11 12  1  0
 12 13  2  0
 13 14  1  0
 14 15  1  0
 15 16  1  0
 16 17  2  0
 17 18  1  0
 18 19  2  0
 19 20  1  0
 20 21  1  0
 21 22  1  0
 22 23  2  0
 22 24  1  0
 24 25  1  0
 25 26  1  0
 26 27  1  0
 27 28  1  0
 28 29  1  0
 19 30  1  0
 30 31  2  0
 14 32  2  0
 32 33  1  0
 33 34  2  0
 34 35  1  0
 10  5  1  0
 34 12  1  0
 31 16  1  0
 29 24  1  0
M  END
$$$$
CHEMBL4858409_diffdock_5
     RDKit          3D

 35 38  0  0  0  0  0  0  0  0999 V2000
  -10.5614   19.0881  -28.0608 O   0  0  0  0  0  0  0  0  0  0  0  0
  -11.4023   19.2400  -27.1632 C   0  0  0  0  0  0  0  0  0  0  0  0
  -10.8297   20.0895  -26.1954 N   0  0  0  0  0  0  0  0  0  0  0  0
   -9.8113   20.9426  -26.4367 O   0  0  0  0  0  0  0  0  0  0  0  0
  -12.7304   18.7351  -26.9797 C   0  0  0  0  0  0  0  0  0  0  0  0
  -13.5693   19.2805  -26.0381 C   0  0  0  0  0  0  0  0  0  0  0  0
  -14.8588   18.8321  -25.8664 C   0  0  0  0  0  0  0  0  0  0  0  0
  -15.3905   17.8120  -26.6241 C   0  0  0  0  0  0  0  0  0  0  0  0
  -14.5126   17.2869  -27.5637 C   0  0  0  0  0  0  0  0  0  0  0  0
  -13.1938   17.7090  -27.7744 C   0  0  0  0  0  0  0  0  0  0  0  0
  -12.4537   17.0475  -28.7866 N   0  0  0  0  0  0  0  0  0  0  0  0
  -12.0522   15.7021  -29.0055 C   0  0  0  0  0  0  0  0  0  0  0  0
  -12.6196   14.6455  -28.4164 N   0  0  0  0  0  0  0  0  0  0  0  0
  -12.2696   13.3649  -28.5981 C   0  0  0  0  0  0  0  0  0  0  0  0
  -12.9909   12.3796  -27.8844 N   0  0  0  0  0  0  0  0  0  0  0  0
  -14.2367   12.5201  -27.2319 C   0  0  0  0  0  0  0  0  0  0  0  0
  -15.1762   11.5357  -27.0284 C   0  0  0  0  0  0  0  0  0  0  0  0
  -16.3806   11.6865  -26.3950 C   0  0  0  0  0  0  0  0  0  0  0  0
  -16.7188   12.9335  -25.8993 C   0  0  0  0  0  0  0  0  0  0  0  0
  -17.9342   13.0606  -25.2671 O   0  0  0  0  0  0  0  0  0  0  0  0
  -18.1313   12.7701  -23.8866 C   0  0  0  0  0  0  0  0  0  0  0  0
  -19.5606   12.5811  -23.6318 C   0  0  0  0  0  0  0  0  0  0  0  0
  -19.8445   11.3838  -23.3276 O   0  0  0  0  0  0  0  0  0  0  0  0
  -20.6858   13.4407  -23.6518 N   0  0  0  0  0  0  0  0  0  0  0  0
  -21.1697   13.7879  -24.9740 C   0  0  0  0  0  0  0  0  0  0  0  0
  -21.3864   15.2910  -24.9908 C   0  0  0  0  0  0  0  0  0  0  0  0
  -22.1666   15.7483  -23.9597 O   0  0  0  0  0  0  0  0  0  0  0  0
  -22.5475   14.7989  -23.0447 C   0  0  0  0  0  0  0  0  0  0  0  0
  -21.3864   13.9953  -22.5061 C   0  0  0  0  0  0  0  0  0  0  0  0
  -15.8167   13.9569  -26.0740 C   0  0  0  0  0  0  0  0  0  0  0  0
  -14.6239   13.7370  -26.7201 C   0  0  0  0  0  0  0  0  0  0  0  0
  -11.2685   13.1414  -29.4413 N   0  0  0  0  0  0  0  0  0  0  0  0
  -10.6663   14.1581  -30.0567 C   0  0  0  0  0  0  0  0  0  0  0  0
  -11.0161   15.4742  -29.8784 C   0  0  0  0  0  0  0  0  0  0  0  0
  -10.1566   16.7353  -30.7397 Cl  0  0  0  0  0  0  0  0  0  0  0  0
  1  2  2  0
  2  3  1  0
  3  4  1  0
  2  5  1  0
  5  6  2  0
  6  7  1  0
  7  8  2  0
  8  9  1  0
  9 10  2  0
 10 11  1  0
 11 12  1  0
 12 13  2  0
 13 14  1  0
 14 15  1  0
 15 16  1  0
 16 17  2  0
 17 18  1  0
 18 19  2  0
 19 20  1  0
 20 21  1  0
 21 22  1  0
 22 23  2  0
 22 24  1  0
 24 25  1  0
 25 26  1  0
 26 27  1  0
 27 28  1  0
 28 29  1  0
 19 30  1  0
 30 31  2  0
 14 32  2  0
 32 33  1  0
 33 34  2  0
 34 35  1  0
 10  5  1  0
 34 12  1  0
 31 16  1  0
 29 24  1  0
M  END
$$$$
CHEMBL4858409_diffdock_6
     RDKit          3D

 35 38  0  0  0  0  0  0  0  0999 V2000
  -11.3536   19.6872  -28.7106 O   0  0  0  0  0  0  0  0  0  0  0  0
  -12.2080   19.8519  -27.8281 C   0  0  0  0  0  0  0  0  0  0  0  0
  -12.2256   21.2263  -27.5168 N   0  0  0  0  0  0  0  0  0  0  0  0
  -11.3228   22.1222  -27.9701 O   0  0  0  0  0  0  0  0  0  0  0  0
  -13.0887   18.9501  -27.1472 C   0  0  0  0  0  0  0  0  0  0  0  0
  -14.0498   19.4187  -26.2845 C   0  0  0  0  0  0  0  0  0  0  0  0
  -14.9265   18.5731  -25.6442 C   0  0  0  0  0  0  0  0  0  0  0  0
  -14.8978   17.2080  -25.8258 C   0  0  0  0  0  0  0  0  0  0  0  0
  -13.9132   16.7735  -26.7038 C   0  0  0  0  0  0  0  0  0  0  0  0
  -12.9995   17.5942  -27.3772 C   0  0  0  0  0  0  0  0  0  0  0  0
  -12.0674   16.9603  -28.2368 N   0  0  0  0  0  0  0  0  0  0  0  0
  -11.7382   15.6074  -28.5207 C   0  0  0  0  0  0  0  0  0  0  0  0
  -12.4659   14.5598  -28.1229 N   0  0  0  0  0  0  0  0  0  0  0  0
  -12.1883   13.2728  -28.3717 C   0  0  0  0  0  0  0  0  0  0  0  0
  -13.0813   12.2991  -27.8668 N   0  0  0  0  0  0  0  0  0  0  0  0
  -14.2313   12.5070  -27.0719 C   0  0  0  0  0  0  0  0  0  0  0  0
  -14.7112   13.7134  -26.6163 C   0  0  0  0  0  0  0  0  0  0  0  0
  -15.8270   13.9001  -25.8452 C   0  0  0  0  0  0  0  0  0  0  0  0
  -16.5672   12.7930  -25.4691 C   0  0  0  0  0  0  0  0  0  0  0  0
  -17.6840   13.0055  -24.6941 O   0  0  0  0  0  0  0  0  0  0  0  0
  -18.9642   12.4622  -25.0021 C   0  0  0  0  0  0  0  0  0  0  0  0
  -19.0978   11.1497  -24.3672 C   0  0  0  0  0  0  0  0  0  0  0  0
  -18.6116   10.2173  -25.0750 O   0  0  0  0  0  0  0  0  0  0  0  0
  -19.6489   10.7006  -23.1426 N   0  0  0  0  0  0  0  0  0  0  0  0
  -20.3694    9.4443  -23.2176 C   0  0  0  0  0  0  0  0  0  0  0  0
  -21.6850    9.6385  -22.4841 C   0  0  0  0  0  0  0  0  0  0  0  0
  -21.5415   10.1387  -21.2151 O   0  0  0  0  0  0  0  0  0  0  0  0
  -20.2576   10.4593  -20.8512 C   0  0  0  0  0  0  0  0  0  0  0  0
  -19.5654   11.3582  -21.8496 C   0  0  0  0  0  0  0  0  0  0  0  0
  -16.1342   11.5594  -25.8961 C   0  0  0  0  0  0  0  0  0  0  0  0
  -15.0041   11.4424  -26.6692 C   0  0  0  0  0  0  0  0  0  0  0  0
  -11.0895   13.0325  -29.0773 N   0  0  0  0  0  0  0  0  0  0  0  0
  -10.3264   14.0396  -29.4997 C   0  0  0  0  0  0  0  0  0  0  0  0
  -10.6006   15.3622  -29.2510 C   0  0  0  0  0  0  0  0  0  0  0  0
   -9.5283   16.6097  -29.8551 Cl  0  0  0  0  0  0  0  0  0  0  0  0
  1  2  2  0
  2  3  1  0
  3  4  1  0
  2  5  1  0
  5  6  2  0
  6  7  1  0
  7  8  2  0
  8  9  1  0
  9 10  2  0
 10 11  1  0
 11 12  1  0
 12 13  2  0
 13 14  1  0
 14 15  1  0
 15 16  1  0
 16 17  2  0
 17 18  1  0
 18 19  2  0
 19 20  1  0
 20 21  1  0
 21 22  1  0
 22 23  2  0
 22 24  1  0
 24 25  1  0
 25 26  1  0
 26 27  1  0
 27 28  1  0
 28 29  1  0
 19 30  1  0
 30 31  2  0
 14 32  2  0
 32 33  1  0
 33 34  2  0
 34 35  1  0
 10  5  1  0
 34 12  1  0
 31 16  1  0
 29 24  1  0
M  END
$$$$
CHEMBL4858409_diffdock_7
     RDKit          3D

 35 38  0  0  0  0  0  0  0  0999 V2000
  -10.2228   19.2781  -28.1600 O   0  0  0  0  0  0  0  0  0  0  0  0
  -11.1268   19.4288  -27.3258 C   0  0  0  0  0  0  0  0  0  0  0  0
  -10.7040   20.4313  -26.4300 N   0  0  0  0  0  0  0  0  0  0  0  0
   -9.6453   21.2430  -26.6388 O   0  0  0  0  0  0  0  0  0  0  0  0
  -12.4038   18.8030  -27.1523 C   0  0  0  0  0  0  0  0  0  0  0  0
  -13.3723   19.3807  -26.3675 C   0  0  0  0  0  0  0  0  0  0  0  0
  -14.6162   18.8132  -26.2121 C   0  0  0  0  0  0  0  0  0  0  0  0
  -14.9700   17.6344  -26.8307 C   0  0  0  0  0  0  0  0  0  0  0  0
  -13.9651   17.0816  -27.6141 C   0  0  0  0  0  0  0  0  0  0  0  0
  -12.6861   17.6208  -27.8018 C   0  0  0  0  0  0  0  0  0  0  0  0
  -11.7971   16.9067  -28.6441 N   0  0  0  0  0  0  0  0  0  0  0  0
  -11.4184   15.5420  -28.7598 C   0  0  0  0  0  0  0  0  0  0  0  0
  -12.0764   14.5306  -28.1859 N   0  0  0  0  0  0  0  0  0  0  0  0
  -11.7507   13.2338  -28.2730 C   0  0  0  0  0  0  0  0  0  0  0  0
  -12.5721   12.3035  -27.5944 N   0  0  0  0  0  0  0  0  0  0  0  0
  -13.9130   12.4718  -27.1805 C   0  0  0  0  0  0  0  0  0  0  0  0
  -14.8706   11.4900  -27.0694 C   0  0  0  0  0  0  0  0  0  0  0  0
  -16.1675   11.6678  -26.6679 C   0  0  0  0  0  0  0  0  0  0  0  0
  -16.5906   12.9424  -26.3342 C   0  0  0  0  0  0  0  0  0  0  0  0
  -17.8980   13.0961  -25.9340 O   0  0  0  0  0  0  0  0  0  0  0  0
  -18.3032   14.0141  -24.9230 C   0  0  0  0  0  0  0  0  0  0  0  0
  -18.5233   13.2880  -23.6709 C   0  0  0  0  0  0  0  0  0  0  0  0
  -18.4621   12.0309  -23.8224 O   0  0  0  0  0  0  0  0  0  0  0  0
  -18.7880   13.6839  -22.3373 N   0  0  0  0  0  0  0  0  0  0  0  0
  -19.8967   14.6052  -22.1790 C   0  0  0  0  0  0  0  0  0  0  0  0
  -19.4235   15.7218  -21.2646 C   0  0  0  0  0  0  0  0  0  0  0  0
  -18.8783   15.2779  -20.0870 O   0  0  0  0  0  0  0  0  0  0  0  0
  -18.7712   13.9150  -19.9655 C   0  0  0  0  0  0  0  0  0  0  0  0
  -18.0760   13.2679  -21.1410 C   0  0  0  0  0  0  0  0  0  0  0  0
  -15.6751   13.9645  -26.4265 C   0  0  0  0  0  0  0  0  0  0  0  0
  -14.3872   13.7168  -26.8372 C   0  0  0  0  0  0  0  0  0  0  0  0
  -10.6764   12.9431  -28.9972 N   0  0  0  0  0  0  0  0  0  0  0  0
   -9.9823   13.9125  -29.5918 C   0  0  0  0  0  0  0  0  0  0  0  0
  -10.3063   15.2446  -29.5098 C   0  0  0  0  0  0  0  0  0  0  0  0
   -9.3236   16.4394  -30.3331 Cl  0  0  0  0  0  0  0  0  0  0  0  0
  1  2  2  0
  2  3  1  0
  3  4  1  0
  2  5  1  0
  5  6  2  0
  6  7  1  0
  7  8  2  0
  8  9  1  0
  9 10  2  0
 10 11  1  0
 11 12  1  0
 12 13  2  0
 13 14  1  0
 14 15  1  0
 15 16  1  0
 16 17  2  0
 17 18  1  0
 18 19  2  0
 19 20  1  0
 20 21  1  0
 21 22  1  0
 22 23  2  0
 22 24  1  0
 24 25  1  0
 25 26  1  0
 26 27  1  0
 27 28  1  0
 28 29  1  0
 19 30  1  0
 30 31  2  0
 14 32  2  0
 32 33  1  0
 33 34  2  0
 34 35  1  0
 10  5  1  0
 34 12  1  0
 31 16  1  0
 29 24  1  0
M  END
$$$$
CHEMBL4858409_diffdock_8
     RDKit          3D

 35 38  0  0  0  0  0  0  0  0999 V2000
  -10.2953   19.0830  -27.8032 O   0  0  0  0  0  0  0  0  0  0  0  0
  -11.0829   19.2521  -26.8615 C   0  0  0  0  0  0  0  0  0  0  0  0
  -10.4536   20.1152  -25.9421 N   0  0  0  0  0  0  0  0  0  0  0  0
   -9.6186   21.1186  -26.2871 O   0  0  0  0  0  0  0  0  0  0  0  0
  -12.3994   18.7544  -26.5938 C   0  0  0  0  0  0  0  0  0  0  0  0
  -13.1900   19.3319  -25.6299 C   0  0  0  0  0  0  0  0  0  0  0  0
  -14.4687   18.8903  -25.3779 C   0  0  0  0  0  0  0  0  0  0  0  0
  -15.0369   17.8454  -26.0726 C   0  0  0  0  0  0  0  0  0  0  0  0
  -14.2071   17.2882  -27.0370 C   0  0  0  0  0  0  0  0  0  0  0  0
  -12.9012   17.7021  -27.3286 C   0  0  0  0  0  0  0  0  0  0  0  0
  -12.2127   17.0062  -28.3540 N   0  0  0  0  0  0  0  0  0  0  0  0
  -11.7803   15.6635  -28.5262 C   0  0  0  0  0  0  0  0  0  0  0  0
  -12.3610   14.6091  -27.9463 N   0  0  0  0  0  0  0  0  0  0  0  0
  -11.9830   13.3312  -28.0853 C   0  0  0  0  0  0  0  0  0  0  0  0
  -12.7248   12.3478  -27.3901 N   0  0  0  0  0  0  0  0  0  0  0  0
  -13.9227   12.5207  -26.6603 C   0  0  0  0  0  0  0  0  0  0  0  0
  -14.8368   11.5456  -26.3334 C   0  0  0  0  0  0  0  0  0  0  0  0
  -15.9949   11.7280  -25.6261 C   0  0  0  0  0  0  0  0  0  0  0  0
  -16.3083   13.0005  -25.1818 C   0  0  0  0  0  0  0  0  0  0  0  0
  -17.4772   13.1590  -24.4735 O   0  0  0  0  0  0  0  0  0  0  0  0
  -17.5192   13.3075  -23.0575 C   0  0  0  0  0  0  0  0  0  0  0  0
  -18.8992   13.1468  -22.5953 C   0  0  0  0  0  0  0  0  0  0  0  0
  -19.4923   14.2569  -22.4451 O   0  0  0  0  0  0  0  0  0  0  0  0
  -19.7079   12.0274  -22.2822 N   0  0  0  0  0  0  0  0  0  0  0  0
  -21.0692   12.3427  -21.8944 C   0  0  0  0  0  0  0  0  0  0  0  0
  -21.3743   11.5415  -20.6408 C   0  0  0  0  0  0  0  0  0  0  0  0
  -21.1126   10.2009  -20.7644 O   0  0  0  0  0  0  0  0  0  0  0  0
  -20.5442    9.8201  -21.9543 C   0  0  0  0  0  0  0  0  0  0  0  0
  -19.3178   10.6280  -22.3108 C   0  0  0  0  0  0  0  0  0  0  0  0
  -15.4300   14.0160  -25.4796 C   0  0  0  0  0  0  0  0  0  0  0  0
  -14.2837   13.7640  -26.1946 C   0  0  0  0  0  0  0  0  0  0  0  0
  -10.9370   13.1081  -28.8722 N   0  0  0  0  0  0  0  0  0  0  0  0
  -10.3195   14.1227  -29.4758 C   0  0  0  0  0  0  0  0  0  0  0  0
  -10.6977   15.4361  -29.3410 C   0  0  0  0  0  0  0  0  0  0  0  0
   -9.8145   16.6947  -30.1818 Cl  0  0  0  0  0  0  0  0  0  0  0  0
  1  2  2  0
  2  3  1  0
  3  4  1  0
  2  5  1  0
  5  6  2  0
  6  7  1  0
  7  8  2  0
  8  9  1  0
  9 10  2  0
 10 11  1  0
 11 12  1  0
 12 13  2  0
 13 14  1  0
 14 15  1  0
 15 16  1  0
 16 17  2  0
 17 18  1  0
 18 19  2  0
 19 20  1  0
 20 21  1  0
 21 22  1  0
 22 23  2  0
 22 24  1  0
 24 25  1  0
 25 26  1  0
 26 27  1  0
 27 28  1  0
 28 29  1  0
 19 30  1  0
 30 31  2  0
 14 32  2  0
 32 33  1  0
 33 34  2  0
 34 35  1  0
 10  5  1  0
 34 12  1  0
 31 16  1  0
 29 24  1  0
M  END
$$$$
CHEMBL4858409_diffdock_9
     RDKit          3D

 35 38  0  0  0  0  0  0  0  0999 V2000
  -10.0617   18.7414  -27.9315 O   0  0  0  0  0  0  0  0  0  0  0  0
  -11.0337   19.2375  -27.3442 C   0  0  0  0  0  0  0  0  0  0  0  0
  -10.6162   20.4783  -26.8224 N   0  0  0  0  0  0  0  0  0  0  0  0
   -9.4130   21.0411  -27.0647 O   0  0  0  0  0  0  0  0  0  0  0  0
  -12.3778   18.7870  -27.1369 C   0  0  0  0  0  0  0  0  0  0  0  0
  -13.2221   19.4542  -26.2826 C   0  0  0  0  0  0  0  0  0  0  0  0
  -14.5260   19.0577  -26.0925 C   0  0  0  0  0  0  0  0  0  0  0  0
  -15.0674   17.9712  -26.7434 C   0  0  0  0  0  0  0  0  0  0  0  0
  -14.1835   17.3235  -27.5970 C   0  0  0  0  0  0  0  0  0  0  0  0
  -12.8503   17.6887  -27.8223 C   0  0  0  0  0  0  0  0  0  0  0  0
  -12.1061   16.9006  -28.7360 N   0  0  0  0  0  0  0  0  0  0  0  0
  -11.6998   15.5394  -28.7725 C   0  0  0  0  0  0  0  0  0  0  0  0
  -12.3403   14.5491  -28.1446 N   0  0  0  0  0  0  0  0  0  0  0  0
  -11.9884   13.2562  -28.1566 C   0  0  0  0  0  0  0  0  0  0  0  0
  -12.7945   12.3496  -27.4294 N   0  0  0  0  0  0  0  0  0  0  0  0
  -14.1181   12.5411  -26.9722 C   0  0  0  0  0  0  0  0  0  0  0  0
  -14.6639   13.7101  -26.4941 C   0  0  0  0  0  0  0  0  0  0  0  0
  -15.9488   13.8810  -26.0529 C   0  0  0  0  0  0  0  0  0  0  0  0
  -16.8084   12.7968  -26.0756 C   0  0  0  0  0  0  0  0  0  0  0  0
  -18.0943   12.9928  -25.6271 O   0  0  0  0  0  0  0  0  0  0  0  0
  -18.5534   14.2273  -25.0848 C   0  0  0  0  0  0  0  0  0  0  0  0
  -19.1033   13.9934  -23.7482 C   0  0  0  0  0  0  0  0  0  0  0  0
  -19.6630   12.8607  -23.6458 O   0  0  0  0  0  0  0  0  0  0  0  0
  -19.1447   14.7538  -22.5544 N   0  0  0  0  0  0  0  0  0  0  0  0
  -19.8658   14.1366  -21.4580 C   0  0  0  0  0  0  0  0  0  0  0  0
  -20.7877   15.1944  -20.8769 C   0  0  0  0  0  0  0  0  0  0  0  0
  -20.1506   16.3651  -20.5532 O   0  0  0  0  0  0  0  0  0  0  0  0
  -18.8194   16.4205  -20.8824 C   0  0  0  0  0  0  0  0  0  0  0  0
  -18.5500   16.0595  -22.3249 C   0  0  0  0  0  0  0  0  0  0  0  0
  -16.3168   11.6009  -26.5442 C   0  0  0  0  0  0  0  0  0  0  0  0
  -15.0151   11.4979  -26.9724 C   0  0  0  0  0  0  0  0  0  0  0  0
  -10.9050   12.9467  -28.8591 N   0  0  0  0  0  0  0  0  0  0  0  0
  -10.2274   13.8946  -29.5051 C   0  0  0  0  0  0  0  0  0  0  0  0
  -10.5783   15.2225  -29.5002 C   0  0  0  0  0  0  0  0  0  0  0  0
   -9.6156   16.3882  -30.3863 Cl  0  0  0  0  0  0  0  0  0  0  0  0
  1  2  2  0
  2  3  1  0
  3  4  1  0
  2  5  1  0
  5  6  2  0
  6  7  1  0
  7  8  2  0
  8  9  1  0
  9 10  2  0
 10 11  1  0
 11 12  1  0
 12 13  2  0
 13 14  1  0
 14 15  1  0
 15 16  1  0
 16 17  2  0
 17 18  1  0
 18 19  2  0
 19 20  1  0
 20 21  1  0
 21 22  1  0
 22 23  2  0
 22 24  1  0
 24 25  1  0
 25 26  1  0
 26 27  1  0
 27 28  1  0
 28 29  1  0
 19 30  1  0
 30 31  2  0
 14 32  2  0
 32 33  1  0
 33 34  2  0
 34 35  1  0
 10  5  1  0
 34 12  1  0
 31 16  1  0
 29 24  1  0
M  END
$$$$
CHEMBL4858409_diffdock_10
     RDKit          3D

 35 38  0  0  0  0  0  0  0  0999 V2000
  -10.1354   19.0674  -27.9574 O   0  0  0  0  0  0  0  0  0  0  0  0
  -10.9297   19.2043  -27.0160 C   0  0  0  0  0  0  0  0  0  0  0  0
  -10.3453   20.1081  -26.1060 N   0  0  0  0  0  0  0  0  0  0  0  0
   -9.2645   20.8707  -26.3770 O   0  0  0  0  0  0  0  0  0  0  0  0
  -12.2181   18.6412  -26.7413 C   0  0  0  0  0  0  0  0  0  0  0  0
  -13.0301   19.1764  -25.7708 C   0  0  0  0  0  0  0  0  0  0  0  0
  -14.2836   18.6711  -25.5119 C   0  0  0  0  0  0  0  0  0  0  0  0
  -14.8037   17.6009  -26.2058 C   0  0  0  0  0  0  0  0  0  0  0  0
  -13.9535   17.0880  -27.1770 C   0  0  0  0  0  0  0  0  0  0  0  0
  -12.6717   17.5669  -27.4758 C   0  0  0  0  0  0  0  0  0  0  0  0
  -11.9561   16.9086  -28.5074 N   0  0  0  0  0  0  0  0  0  0  0  0
  -11.6042   15.5563  -28.7657 C   0  0  0  0  0  0  0  0  0  0  0  0
  -12.1583   14.5073  -28.1509 N   0  0  0  0  0  0  0  0  0  0  0  0
  -11.8538   13.2207  -28.3683 C   0  0  0  0  0  0  0  0  0  0  0  0
  -12.5513   12.2452  -27.6182 N   0  0  0  0  0  0  0  0  0  0  0  0
  -13.8285   12.3589  -27.0237 C   0  0  0  0  0  0  0  0  0  0  0  0
  -14.7719   11.3650  -26.9010 C   0  0  0  0  0  0  0  0  0  0  0  0
  -16.0069   11.4898  -26.3231 C   0  0  0  0  0  0  0  0  0  0  0  0
  -16.3753   12.7178  -25.8022 C   0  0  0  0  0  0  0  0  0  0  0  0
  -17.6211   12.8189  -25.2269 O   0  0  0  0  0  0  0  0  0  0  0  0
  -17.9772   12.1636  -24.0133 C   0  0  0  0  0  0  0  0  0  0  0  0
  -19.0084   11.1617  -24.2894 C   0  0  0  0  0  0  0  0  0  0  0  0
  -18.5827   10.2163  -25.0186 O   0  0  0  0  0  0  0  0  0  0  0  0
  -20.3685   11.0223  -23.9208 N   0  0  0  0  0  0  0  0  0  0  0  0
  -20.8640   12.0340  -23.0076 C   0  0  0  0  0  0  0  0  0  0  0  0
  -21.6210   11.3114  -21.9070 C   0  0  0  0  0  0  0  0  0  0  0  0
  -22.5773   10.4448  -22.3713 O   0  0  0  0  0  0  0  0  0  0  0  0
  -22.6348   10.3087  -23.7359 C   0  0  0  0  0  0  0  0  0  0  0  0
  -21.2942    9.9907  -24.3568 C   0  0  0  0  0  0  0  0  0  0  0  0
  -15.4709   13.7496  -25.8967 C   0  0  0  0  0  0  0  0  0  0  0  0
  -14.2466   13.5561  -26.4901 C   0  0  0  0  0  0  0  0  0  0  0  0
  -10.9165   12.9823  -29.2780 N   0  0  0  0  0  0  0  0  0  0  0  0
  -10.3304   13.9908  -29.9217 C   0  0  0  0  0  0  0  0  0  0  0  0
  -10.6341   15.3130  -29.7076 C   0  0  0  0  0  0  0  0  0  0  0  0
   -9.8014   16.5624  -30.6113 Cl  0  0  0  0  0  0  0  0  0  0  0  0
  1  2  2  0
  2  3  1  0
  3  4  1  0
  2  5  1  0
  5  6  2  0
  6  7  1  0
  7  8  2  0
  8  9  1  0
  9 10  2  0
 10 11  1  0
 11 12  1  0
 12 13  2  0
 13 14  1  0
 14 15  1  0
 15 16  1  0
 16 17  2  0
 17 18  1  0
 18 19  2  0
 19 20  1  0
 20 21  1  0
 21 22  1  0
 22 23  2  0
 22 24  1  0
 24 25  1  0
 25 26  1  0
 26 27  1  0
 27 28  1  0
 28 29  1  0
 19 30  1  0
 30 31  2  0
 14 32  2  0
 32 33  1  0
 33 34  2  0
 34 35  1  0
 10  5  1  0
 34 12  1  0
 31 16  1  0
 29 24  1  0
M  END
$$$$
CHEMBL460721_plants_01
     RDKit          3D

 34 36  0  0  0  0  0  0  0  0999 V2000
  -17.3417   16.9138  -22.6372 C   0  0  0  0  0  0  0  0  0  0  0  0
  -15.9611   17.3065  -22.9738 C   0  0  0  0  0  0  0  0  0  0  0  0
  -15.4040   16.7705  -23.9681 O   0  0  0  0  0  0  0  0  0  0  0  0
  -15.2254   18.2069  -22.1300 N   0  0  0  0  0  0  0  0  0  0  0  0
  -13.8670   18.6578  -22.4341 C   0  0  0  0  0  0  0  0  0  0  0  0
  -13.8187   19.3545  -23.7969 C   0  0  0  0  0  0  0  0  0  0  0  0
  -13.3818   18.3999  -24.9165 C   0  0  0  0  0  0  0  0  0  0  0  0
  -13.9986   18.7970  -26.2000 N   0  0  0  0  0  0  0  0  0  0  0  0
  -14.0700   20.2661  -26.3802 C   0  0  0  0  0  0  0  0  0  0  0  0
  -15.3693   20.8972  -25.8511 C   0  0  0  0  0  0  0  0  0  0  0  0
  -15.2929   18.1222  -26.4597 C   0  0  0  0  0  0  0  0  0  0  0  0
  -15.0485   16.6498  -26.7639 C   0  0  0  0  0  0  0  0  0  0  0  0
  -17.8323   15.6681  -22.7226 C   0  0  0  0  0  0  0  0  0  0  0  0
  -17.0260   14.4470  -22.9361 C   0  0  0  0  0  0  0  0  0  0  0  0
  -15.7677   14.5053  -22.9742 O   0  0  0  0  0  0  0  0  0  0  0  0
  -17.6955   13.1031  -23.0091 C   0  0  0  0  0  0  0  0  0  0  0  0
  -17.2654   12.2718  -24.1932 C   0  0  0  0  0  0  0  0  0  0  0  0
  -17.9499   11.1247  -24.4590 N   0  0  0  0  0  0  0  0  0  0  0  0
  -17.6829   10.3559  -25.5462 C   0  0  0  0  0  0  0  0  0  0  0  0
  -16.6944   10.7438  -26.4524 C   0  0  0  0  0  0  0  0  0  0  0  0
  -16.4167    9.9695  -27.5328 N   0  0  0  0  0  0  0  0  0  0  0  0
  -15.4456   10.3234  -28.4117 C   0  0  0  0  0  0  0  0  0  0  0  0
  -14.7414   11.4687  -28.2255 N   0  0  0  0  0  0  0  0  0  0  0  0
  -14.9906   12.2982  -27.1782 C   0  0  0  0  0  0  0  0  0  0  0  0
  -14.1919   13.4835  -27.0399 N   0  0  0  0  0  0  0  0  0  0  0  0
  -13.0679   13.8054  -27.8793 C   0  0  0  0  0  0  0  0  0  0  0  0
  -12.3694   12.8109  -28.5908 C   0  0  0  0  0  0  0  0  0  0  0  0
  -11.3081   13.1605  -29.4310 C   0  0  0  0  0  0  0  0  0  0  0  0
  -10.9320   14.4988  -29.5675 C   0  0  0  0  0  0  0  0  0  0  0  0
  -11.6052   15.4906  -28.8460 C   0  0  0  0  0  0  0  0  0  0  0  0
  -11.0971   17.3219  -29.0388 Br  0  0  0  0  0  0  0  0  0  0  0  0
  -12.6654   15.1441  -28.0024 C   0  0  0  0  0  0  0  0  0  0  0  0
  -15.9791   11.9387  -26.2324 C   0  0  0  0  0  0  0  0  0  0  0  0
  -16.2632   12.6986  -25.0848 C   0  0  0  0  0  0  0  0  0  0  0  0
  1  2  1  0
  1 13  2  0
  2  3  2  0
  2  4  1  0
  4  5  1  0
  5  6  1  0
  6  7  1  0
  7  8  1  0
  8  9  1  0
  8 11  1  0
  9 10  1  0
 11 12  1  0
 13 14  1  0
 14 15  2  0
 14 16  1  0
 16 17  1  0
 17 18  2  0
 18 19  1  0
 19 20  2  0
 20 21  1  0
 21 22  2  0
 22 23  1  0
 23 24  2  0
 24 25  1  0
 24 33  1  0
 25 26  1  0
 26 27  2  0
 27 28  1  0
 28 29  2  0
 29 30  1  0
 30 31  1  0
 30 32  2  0
 32 26  1  0
 33 34  2  0
 33 20  1  0
 34 17  1  0
M  END
$$$$
CHEMBL460721_plants_02
     RDKit          3D

 34 36  0  0  0  0  0  0  0  0999 V2000
  -12.1282   17.2651  -25.5847 C   0  0  0  0  0  0  0  0  0  0  0  0
  -12.4429   16.4731  -26.7878 C   0  0  0  0  0  0  0  0  0  0  0  0
  -12.8436   17.0728  -27.8204 O   0  0  0  0  0  0  0  0  0  0  0  0
  -12.3917   15.0377  -26.7584 N   0  0  0  0  0  0  0  0  0  0  0  0
  -12.6592   14.2038  -27.9306 C   0  0  0  0  0  0  0  0  0  0  0  0
  -11.4870   14.2586  -28.9145 C   0  0  0  0  0  0  0  0  0  0  0  0
  -11.6323   15.4093  -29.9198 C   0  0  0  0  0  0  0  0  0  0  0  0
  -10.3635   16.1601  -30.0281 N   0  0  0  0  0  0  0  0  0  0  0  0
  -10.4568   17.5386  -29.4926 C   0  0  0  0  0  0  0  0  0  0  0  0
   -9.3914   18.4981  -30.0503 C   0  0  0  0  0  0  0  0  0  0  0  0
   -9.7687   16.1094  -31.3852 C   0  0  0  0  0  0  0  0  0  0  0  0
  -10.5933   16.9674  -32.3359 C   0  0  0  0  0  0  0  0  0  0  0  0
  -12.6872   18.4427  -25.2680 C   0  0  0  0  0  0  0  0  0  0  0  0
  -13.8702   19.0310  -25.9324 C   0  0  0  0  0  0  0  0  0  0  0  0
  -13.9333   20.2697  -26.1556 O   0  0  0  0  0  0  0  0  0  0  0  0
  -14.9700   18.1420  -26.4421 C   0  0  0  0  0  0  0  0  0  0  0  0
  -15.5256   17.2020  -25.4001 C   0  0  0  0  0  0  0  0  0  0  0  0
  -16.0021   17.7336  -24.2401 N   0  0  0  0  0  0  0  0  0  0  0  0
  -16.5895   16.9726  -23.2809 C   0  0  0  0  0  0  0  0  0  0  0  0
  -16.7456   15.5989  -23.4748 C   0  0  0  0  0  0  0  0  0  0  0  0
  -17.3204   14.8343  -22.5111 N   0  0  0  0  0  0  0  0  0  0  0  0
  -17.4614   13.4951  -22.6770 C   0  0  0  0  0  0  0  0  0  0  0  0
  -17.0349   12.9007  -23.8203 N   0  0  0  0  0  0  0  0  0  0  0  0
  -16.4756   13.6160  -24.8316 C   0  0  0  0  0  0  0  0  0  0  0  0
  -16.0341   12.9131  -26.0033 N   0  0  0  0  0  0  0  0  0  0  0  0
  -16.5701   11.6509  -26.4408 C   0  0  0  0  0  0  0  0  0  0  0  0
  -17.6931   11.0709  -25.8198 C   0  0  0  0  0  0  0  0  0  0  0  0
  -18.2157    9.8644  -26.2950 C   0  0  0  0  0  0  0  0  0  0  0  0
  -17.6248    9.2251  -27.3873 C   0  0  0  0  0  0  0  0  0  0  0  0
  -16.4945    9.7823  -27.9952 C   0  0  0  0  0  0  0  0  0  0  0  0
  -15.6911    8.9130  -29.4944 Br  0  0  0  0  0  0  0  0  0  0  0  0
  -15.9674   10.9875  -27.5205 C   0  0  0  0  0  0  0  0  0  0  0  0
  -16.2924   15.0096  -24.6728 C   0  0  0  0  0  0  0  0  0  0  0  0
  -15.6669   15.8213  -25.6346 C   0  0  0  0  0  0  0  0  0  0  0  0
  1  2  1  0
  1 13  2  0
  2  3  2  0
  2  4  1  0
  4  5  1  0
  5  6  1  0
  6  7  1  0
  7  8  1  0
  8  9  1  0
  8 11  1  0
  9 10  1  0
 11 12  1  0
 13 14  1  0
 14 15  2  0
 14 16  1  0
 16 17  1  0
 17 18  2  0
 18 19  1  0
 19 20  2  0
 20 21  1  0
 21 22  2  0
 22 23  1  0
 23 24  2  0
 24 25  1  0
 24 33  1  0
 25 26  1  0
 26 27  2  0
 27 28  1  0
 28 29  2  0
 29 30  1  0
 30 31  1  0
 30 32  2  0
 32 26  1  0
 33 34  2  0
 33 20  1  0
 34 17  1  0
M  END
$$$$
CHEMBL460721_plants_03
     RDKit          3D

 34 36  0  0  0  0  0  0  0  0999 V2000
  -16.2921   13.8536  -22.8966 C   0  0  0  0  0  0  0  0  0  0  0  0
  -15.7572   14.9766  -23.6881 C   0  0  0  0  0  0  0  0  0  0  0  0
  -16.5433   15.8923  -24.0489 O   0  0  0  0  0  0  0  0  0  0  0  0
  -14.3895   14.9818  -24.1276 N   0  0  0  0  0  0  0  0  0  0  0  0
  -13.7969   16.0853  -24.8842 C   0  0  0  0  0  0  0  0  0  0  0  0
  -13.8223   17.3795  -24.0660 C   0  0  0  0  0  0  0  0  0  0  0  0
  -13.1538   18.5440  -24.8096 C   0  0  0  0  0  0  0  0  0  0  0  0
  -14.1179   19.1893  -25.7259 N   0  0  0  0  0  0  0  0  0  0  0  0
  -14.2256   18.5015  -27.0340 C   0  0  0  0  0  0  0  0  0  0  0  0
  -15.3411   17.4438  -27.0928 C   0  0  0  0  0  0  0  0  0  0  0  0
  -13.9077   20.6507  -25.8602 C   0  0  0  0  0  0  0  0  0  0  0  0
  -13.5702   21.2448  -24.4988 C   0  0  0  0  0  0  0  0  0  0  0  0
  -17.5789   13.6965  -22.5517 C   0  0  0  0  0  0  0  0  0  0  0  0
  -18.7092   14.4797  -23.0958 C   0  0  0  0  0  0  0  0  0  0  0  0
  -19.0457   15.5744  -22.5701 O   0  0  0  0  0  0  0  0  0  0  0  0
  -19.4073   14.0278  -24.3481 C   0  0  0  0  0  0  0  0  0  0  0  0
  -18.6776   12.9360  -25.0921 C   0  0  0  0  0  0  0  0  0  0  0  0
  -19.3449   11.7786  -25.3571 N   0  0  0  0  0  0  0  0  0  0  0  0
  -18.7941   10.7745  -26.0869 C   0  0  0  0  0  0  0  0  0  0  0  0
  -17.5104   10.9166  -26.6166 C   0  0  0  0  0  0  0  0  0  0  0  0
  -16.9527    9.9083  -27.3351 N   0  0  0  0  0  0  0  0  0  0  0  0
  -15.6986   10.0241  -27.8398 C   0  0  0  0  0  0  0  0  0  0  0  0
  -14.9849   11.1609  -27.6392 N   0  0  0  0  0  0  0  0  0  0  0  0
  -15.4981   12.2146  -26.9511 C   0  0  0  0  0  0  0  0  0  0  0  0
  -14.6751   13.3767  -26.7665 N   0  0  0  0  0  0  0  0  0  0  0  0
  -13.5861   13.7440  -27.6331 C   0  0  0  0  0  0  0  0  0  0  0  0
  -12.9851   12.8104  -28.4993 C   0  0  0  0  0  0  0  0  0  0  0  0
  -11.9572   13.2082  -29.3594 C   0  0  0  0  0  0  0  0  0  0  0  0
  -11.5178   14.5341  -29.3624 C   0  0  0  0  0  0  0  0  0  0  0  0
  -12.0932   15.4626  -28.4882 C   0  0  0  0  0  0  0  0  0  0  0  0
  -11.4988   17.2780  -28.4978 Br  0  0  0  0  0  0  0  0  0  0  0  0
  -13.1196   15.0675  -27.6244 C   0  0  0  0  0  0  0  0  0  0  0  0
  -16.7929   12.1091  -26.3912 C   0  0  0  0  0  0  0  0  0  0  0  0
  -17.3821   13.1189  -25.6113 C   0  0  0  0  0  0  0  0  0  0  0  0
  1  2  1  0
  1 13  2  0
  2  3  2  0
  2  4  1  0
  4  5  1  0
  5  6  1  0
  6  7  1  0
  7  8  1  0
  8  9  1  0
  8 11  1  0
  9 10  1  0
 11 12  1  0
 13 14  1  0
 14 15  2  0
 14 16  1  0
 16 17  1  0
 17 18  2  0
 18 19  1  0
 19 20  2  0
 20 21  1  0
 21 22  2  0
 22 23  1  0
 23 24  2  0
 24 25  1  0
 24 33  1  0
 25 26  1  0
 26 27  2  0
 27 28  1  0
 28 29  2  0
 29 30  1  0
 30 31  1  0
 30 32  2  0
 32 26  1  0
 33 34  2  0
 33 20  1  0
 34 17  1  0
M  END
$$$$
CHEMBL460721_plants_04
     RDKit          3D

 34 36  0  0  0  0  0  0  0  0999 V2000
  -15.2115   19.1594  -26.7422 C   0  0  0  0  0  0  0  0  0  0  0  0
  -14.3519   18.0046  -27.0601 C   0  0  0  0  0  0  0  0  0  0  0  0
  -14.8605   17.0147  -27.6498 O   0  0  0  0  0  0  0  0  0  0  0  0
  -12.9850   17.9611  -26.6199 N   0  0  0  0  0  0  0  0  0  0  0  0
  -12.0776   16.8577  -26.9368 C   0  0  0  0  0  0  0  0  0  0  0  0
  -11.7101   16.8673  -28.4234 C   0  0  0  0  0  0  0  0  0  0  0  0
  -10.2596   17.3124  -28.6550 C   0  0  0  0  0  0  0  0  0  0  0  0
   -9.8293   16.9675  -30.0267 N   0  0  0  0  0  0  0  0  0  0  0  0
  -10.8772   17.2173  -31.0442 C   0  0  0  0  0  0  0  0  0  0  0  0
  -10.5140   16.7118  -32.4510 C   0  0  0  0  0  0  0  0  0  0  0  0
   -9.2389   15.6116  -30.1301 C   0  0  0  0  0  0  0  0  0  0  0  0
  -10.2842   14.5699  -29.7527 C   0  0  0  0  0  0  0  0  0  0  0  0
  -14.9716   20.0567  -25.7741 C   0  0  0  0  0  0  0  0  0  0  0  0
  -13.7033   20.1832  -25.0242 C   0  0  0  0  0  0  0  0  0  0  0  0
  -12.9948   21.2202  -25.1286 O   0  0  0  0  0  0  0  0  0  0  0  0
  -13.2938   19.1163  -24.0477 C   0  0  0  0  0  0  0  0  0  0  0  0
  -14.4204   18.1975  -23.6416 C   0  0  0  0  0  0  0  0  0  0  0  0
  -15.3156   18.6436  -22.7172 N   0  0  0  0  0  0  0  0  0  0  0  0
  -16.4023   17.9167  -22.3499 C   0  0  0  0  0  0  0  0  0  0  0  0
  -16.6480   16.6766  -22.9421 C   0  0  0  0  0  0  0  0  0  0  0  0
  -17.7265   15.9422  -22.5664 N   0  0  0  0  0  0  0  0  0  0  0  0
  -17.9677   14.7267  -23.1188 C   0  0  0  0  0  0  0  0  0  0  0  0
  -17.1330   14.2307  -24.0672 N   0  0  0  0  0  0  0  0  0  0  0  0
  -16.0520   14.9294  -24.5036 C   0  0  0  0  0  0  0  0  0  0  0  0
  -15.2068   14.3305  -25.4980 N   0  0  0  0  0  0  0  0  0  0  0  0
  -15.4877   13.0803  -26.1535 C   0  0  0  0  0  0  0  0  0  0  0  0
  -14.5818   12.5052  -27.0655 C   0  0  0  0  0  0  0  0  0  0  0  0
  -14.8644   11.2689  -27.6538 C   0  0  0  0  0  0  0  0  0  0  0  0
  -16.0492   10.5977  -27.3427 C   0  0  0  0  0  0  0  0  0  0  0  0
  -16.9657   11.1730  -26.4559 C   0  0  0  0  0  0  0  0  0  0  0  0
  -18.5822   10.2517  -26.0233 Br  0  0  0  0  0  0  0  0  0  0  0  0
  -16.6876   12.4109  -25.8678 C   0  0  0  0  0  0  0  0  0  0  0  0
  -15.7629   16.1871  -23.9244 C   0  0  0  0  0  0  0  0  0  0  0  0
  -14.6346   16.9532  -24.2640 C   0  0  0  0  0  0  0  0  0  0  0  0
  1  2  1  0
  1 13  2  0
  2  3  2  0
  2  4  1  0
  4  5  1  0
  5  6  1  0
  6  7  1  0
  7  8  1  0
  8  9  1  0
  8 11  1  0
  9 10  1  0
 11 12  1  0
 13 14  1  0
 14 15  2  0
 14 16  1  0
 16 17  1  0
 17 18  2  0
 18 19  1  0
 19 20  2  0
 20 21  1  0
 21 22  2  0
 22 23  1  0
 23 24  2  0
 24 25  1  0
 24 33  1  0
 25 26  1  0
 26 27  2  0
 27 28  1  0
 28 29  2  0
 29 30  1  0
 30 31  1  0
 30 32  2  0
 32 26  1  0
 33 34  2  0
 33 20  1  0
 34 17  1  0
M  END
$$$$
CHEMBL460721_plants_05
     RDKit          3D

 34 36  0  0  0  0  0  0  0  0999 V2000
  -13.8892   20.6696  -26.1545 C   0  0  0  0  0  0  0  0  0  0  0  0
  -14.1489   19.2964  -26.6241 C   0  0  0  0  0  0  0  0  0  0  0  0
  -15.3363   18.8766  -26.6425 O   0  0  0  0  0  0  0  0  0  0  0  0
  -13.0645   18.4159  -26.9602 N   0  0  0  0  0  0  0  0  0  0  0  0
  -13.2649   17.0570  -27.4644 C   0  0  0  0  0  0  0  0  0  0  0  0
  -11.9226   16.3954  -27.7895 C   0  0  0  0  0  0  0  0  0  0  0  0
  -11.0529   17.2741  -28.6991 C   0  0  0  0  0  0  0  0  0  0  0  0
  -10.9208   16.6569  -30.0359 N   0  0  0  0  0  0  0  0  0  0  0  0
  -10.2260   15.3484  -30.0054 C   0  0  0  0  0  0  0  0  0  0  0  0
   -8.6921   15.4551  -30.0544 C   0  0  0  0  0  0  0  0  0  0  0  0
  -10.3638   17.5802  -31.0532 C   0  0  0  0  0  0  0  0  0  0  0  0
  -10.5946   17.0053  -32.4448 C   0  0  0  0  0  0  0  0  0  0  0  0
  -14.5034   21.2599  -25.1181 C   0  0  0  0  0  0  0  0  0  0  0  0
  -15.3617   20.5707  -24.1307 C   0  0  0  0  0  0  0  0  0  0  0  0
  -15.0258   20.5097  -22.9176 O   0  0  0  0  0  0  0  0  0  0  0  0
  -16.6981   20.0212  -24.5451 C   0  0  0  0  0  0  0  0  0  0  0  0
  -16.9884   18.6460  -23.9948 C   0  0  0  0  0  0  0  0  0  0  0  0
  -18.0158   18.5082  -23.1112 N   0  0  0  0  0  0  0  0  0  0  0  0
  -18.3971   17.2989  -22.6249 C   0  0  0  0  0  0  0  0  0  0  0  0
  -17.7470   16.1378  -23.0470 C   0  0  0  0  0  0  0  0  0  0  0  0
  -18.1180   14.9292  -22.5516 N   0  0  0  0  0  0  0  0  0  0  0  0
  -17.4828   13.7940  -22.9375 C   0  0  0  0  0  0  0  0  0  0  0  0
  -16.4679   13.8523  -23.8368 N   0  0  0  0  0  0  0  0  0  0  0  0
  -16.0684   15.0287  -24.3878 C   0  0  0  0  0  0  0  0  0  0  0  0
  -14.9762   15.0110  -25.3199 N   0  0  0  0  0  0  0  0  0  0  0  0
  -14.6867   13.9158  -26.2078 C   0  0  0  0  0  0  0  0  0  0  0  0
  -15.5026   12.7690  -26.2555 C   0  0  0  0  0  0  0  0  0  0  0  0
  -15.2190   11.7403  -27.1588 C   0  0  0  0  0  0  0  0  0  0  0  0
  -14.1222   11.8426  -28.0177 C   0  0  0  0  0  0  0  0  0  0  0  0
  -13.2927   12.9678  -27.9604 C   0  0  0  0  0  0  0  0  0  0  0  0
  -11.7976   13.1123  -29.1406 Br  0  0  0  0  0  0  0  0  0  0  0  0
  -13.5717   13.9973  -27.0560 C   0  0  0  0  0  0  0  0  0  0  0  0
  -16.6959   16.2298  -23.9821 C   0  0  0  0  0  0  0  0  0  0  0  0
  -16.3098   17.4986  -24.4470 C   0  0  0  0  0  0  0  0  0  0  0  0
  1  2  1  0
  1 13  2  0
  2  3  2  0
  2  4  1  0
  4  5  1  0
  5  6  1  0
  6  7  1  0
  7  8  1  0
  8  9  1  0
  8 11  1  0
  9 10  1  0
 11 12  1  0
 13 14  1  0
 14 15  2  0
 14 16  1  0
 16 17  1  0
 17 18  2  0
 18 19  1  0
 19 20  2  0
 20 21  1  0
 21 22  2  0
 22 23  1  0
 23 24  2  0
 24 25  1  0
 24 33  1  0
 25 26  1  0
 26 27  2  0
 27 28  1  0
 28 29  2  0
 29 30  1  0
 30 31  1  0
 30 32  2  0
 32 26  1  0
 33 34  2  0
 33 20  1  0
 34 17  1  0
M  END
$$$$
CHEMBL460721_plants_06
     RDKit          3D

 34 36  0  0  0  0  0  0  0  0999 V2000
  -17.8483   18.6152  -22.8693 C   0  0  0  0  0  0  0  0  0  0  0  0
  -16.6478   19.3371  -23.3289 C   0  0  0  0  0  0  0  0  0  0  0  0
  -15.5336   19.0470  -22.8182 O   0  0  0  0  0  0  0  0  0  0  0  0
  -16.7541   20.4198  -24.2672 N   0  0  0  0  0  0  0  0  0  0  0  0
  -15.5941   21.1469  -24.7839 C   0  0  0  0  0  0  0  0  0  0  0  0
  -15.2931   20.7332  -26.2273 C   0  0  0  0  0  0  0  0  0  0  0  0
  -13.8569   20.2172  -26.3908 C   0  0  0  0  0  0  0  0  0  0  0  0
  -13.8457   18.7403  -26.4539 N   0  0  0  0  0  0  0  0  0  0  0  0
  -14.8887   18.1893  -27.3509 C   0  0  0  0  0  0  0  0  0  0  0  0
  -15.0799   16.6681  -27.2250 C   0  0  0  0  0  0  0  0  0  0  0  0
  -13.8391   18.0985  -25.1175 C   0  0  0  0  0  0  0  0  0  0  0  0
  -12.6368   18.5898  -24.3217 C   0  0  0  0  0  0  0  0  0  0  0  0
  -17.9789   17.2805  -22.8315 C   0  0  0  0  0  0  0  0  0  0  0  0
  -16.8775   16.3106  -23.0138 C   0  0  0  0  0  0  0  0  0  0  0  0
  -15.7727   16.6751  -23.4982 O   0  0  0  0  0  0  0  0  0  0  0  0
  -17.0288   14.8962  -22.5278 C   0  0  0  0  0  0  0  0  0  0  0  0
  -16.7829   13.8563  -23.5939 C   0  0  0  0  0  0  0  0  0  0  0  0
  -17.6179   12.7818  -23.6520 N   0  0  0  0  0  0  0  0  0  0  0  0
  -17.5194   11.8383  -24.6237 C   0  0  0  0  0  0  0  0  0  0  0  0
  -16.5539   11.9618  -25.6244 C   0  0  0  0  0  0  0  0  0  0  0  0
  -16.4450   11.0124  -26.5891 N   0  0  0  0  0  0  0  0  0  0  0  0
  -15.4991   11.1087  -27.5569 C   0  0  0  0  0  0  0  0  0  0  0  0
  -14.6502   12.1675  -27.5781 N   0  0  0  0  0  0  0  0  0  0  0  0
  -14.7263   13.1627  -26.6557 C   0  0  0  0  0  0  0  0  0  0  0  0
  -13.7821   14.2417  -26.7347 N   0  0  0  0  0  0  0  0  0  0  0  0
  -12.7376   14.3335  -27.7207 C   0  0  0  0  0  0  0  0  0  0  0  0
  -12.1592   13.1838  -28.2924 C   0  0  0  0  0  0  0  0  0  0  0  0
  -11.1759   13.3065  -29.2786 C   0  0  0  0  0  0  0  0  0  0  0  0
  -10.7588   14.5709  -29.7008 C   0  0  0  0  0  0  0  0  0  0  0  0
  -11.3111   15.7183  -29.1211 C   0  0  0  0  0  0  0  0  0  0  0  0
  -10.7473   17.4478  -29.7040 Br  0  0  0  0  0  0  0  0  0  0  0  0
  -12.2927   15.5992  -28.1323 C   0  0  0  0  0  0  0  0  0  0  0  0
  -15.6857   13.0727  -25.6202 C   0  0  0  0  0  0  0  0  0  0  0  0
  -15.7981   14.0183  -24.5865 C   0  0  0  0  0  0  0  0  0  0  0  0
  1  2  1  0
  1 13  2  0
  2  3  2  0
  2  4  1  0
  4  5  1  0
  5  6  1  0
  6  7  1  0
  7  8  1  0
  8  9  1  0
  8 11  1  0
  9 10  1  0
 11 12  1  0
 13 14  1  0
 14 15  2  0
 14 16  1  0
 16 17  1  0
 17 18  2  0
 18 19  1  0
 19 20  2  0
 20 21  1  0
 21 22  2  0
 22 23  1  0
 23 24  2  0
 24 25  1  0
 24 33  1  0
 25 26  1  0
 26 27  2  0
 27 28  1  0
 28 29  2  0
 29 30  1  0
 30 31  1  0
 30 32  2  0
 32 26  1  0
 33 34  2  0
 33 20  1  0
 34 17  1  0
M  END
$$$$
CHEMBL460721_plants_07
     RDKit          3D

 34 36  0  0  0  0  0  0  0  0999 V2000
  -15.0047   19.2461  -26.7138 C   0  0  0  0  0  0  0  0  0  0  0  0
  -14.2249   18.0385  -27.0411 C   0  0  0  0  0  0  0  0  0  0  0  0
  -14.8163   17.0600  -27.5695 O   0  0  0  0  0  0  0  0  0  0  0  0
  -12.8393   17.9355  -26.6757 N   0  0  0  0  0  0  0  0  0  0  0  0
  -12.0092   16.7768  -27.0062 C   0  0  0  0  0  0  0  0  0  0  0  0
  -11.8048   16.6698  -28.5201 C   0  0  0  0  0  0  0  0  0  0  0  0
  -12.2492   15.3060  -29.0662 C   0  0  0  0  0  0  0  0  0  0  0  0
  -11.3530   14.2385  -28.5731 N   0  0  0  0  0  0  0  0  0  0  0  0
  -10.2998   13.8683  -29.5475 C   0  0  0  0  0  0  0  0  0  0  0  0
   -9.3242   15.0114  -29.8762 C   0  0  0  0  0  0  0  0  0  0  0  0
  -12.0827   13.0630  -28.0405 C   0  0  0  0  0  0  0  0  0  0  0  0
  -13.2077   13.5318  -27.1270 C   0  0  0  0  0  0  0  0  0  0  0  0
  -14.8328   20.0027  -25.6194 C   0  0  0  0  0  0  0  0  0  0  0  0
  -13.6927   19.9009  -24.6831 C   0  0  0  0  0  0  0  0  0  0  0  0
  -12.9699   20.9036  -24.4377 O   0  0  0  0  0  0  0  0  0  0  0  0
  -13.4435   18.6222  -23.9330 C   0  0  0  0  0  0  0  0  0  0  0  0
  -14.7042   17.9218  -23.4876 C   0  0  0  0  0  0  0  0  0  0  0  0
  -15.5283   18.5683  -22.6170 N   0  0  0  0  0  0  0  0  0  0  0  0
  -16.7191   18.0479  -22.2229 C   0  0  0  0  0  0  0  0  0  0  0  0
  -17.1496   16.8208  -22.7309 C   0  0  0  0  0  0  0  0  0  0  0  0
  -18.3337   16.2925  -22.3276 N   0  0  0  0  0  0  0  0  0  0  0  0
  -18.7563   15.0919  -22.7976 C   0  0  0  0  0  0  0  0  0  0  0  0
  -17.9995   14.4040  -23.6899 N   0  0  0  0  0  0  0  0  0  0  0  0
  -16.8179   14.8924  -24.1510 C   0  0  0  0  0  0  0  0  0  0  0  0
  -16.0664   14.0980  -25.0817 N   0  0  0  0  0  0  0  0  0  0  0  0
  -16.3447   12.7172  -25.3777 C   0  0  0  0  0  0  0  0  0  0  0  0
  -17.1334   11.9235  -24.5226 C   0  0  0  0  0  0  0  0  0  0  0  0
  -17.4208   10.5974  -24.8590 C   0  0  0  0  0  0  0  0  0  0  0  0
  -16.9245   10.0504  -26.0447 C   0  0  0  0  0  0  0  0  0  0  0  0
  -16.1206   10.8247  -26.8882 C   0  0  0  0  0  0  0  0  0  0  0  0
  -15.4487   10.0801  -28.5140 Br  0  0  0  0  0  0  0  0  0  0  0  0
  -15.8287   12.1507  -26.5533 C   0  0  0  0  0  0  0  0  0  0  0  0
  -16.3417   16.1290  -23.6563 C   0  0  0  0  0  0  0  0  0  0  0  0
  -15.1039   16.6835  -24.0246 C   0  0  0  0  0  0  0  0  0  0  0  0
  1  2  1  0
  1 13  2  0
  2  3  2  0
  2  4  1  0
  4  5  1  0
  5  6  1  0
  6  7  1  0
  7  8  1  0
  8  9  1  0
  8 11  1  0
  9 10  1  0
 11 12  1  0
 13 14  1  0
 14 15  2  0
 14 16  1  0
 16 17  1  0
 17 18  2  0
 18 19  1  0
 19 20  2  0
 20 21  1  0
 21 22  2  0
 22 23  1  0
 23 24  2  0
 24 25  1  0
 24 33  1  0
 25 26  1  0
 26 27  2  0
 27 28  1  0
 28 29  2  0
 29 30  1  0
 30 31  1  0
 30 32  2  0
 32 26  1  0
 33 34  2  0
 33 20  1  0
 34 17  1  0
M  END
$$$$
CHEMBL460721_plants_08
     RDKit          3D

 34 36  0  0  0  0  0  0  0  0999 V2000
  -15.8092   19.3003  -24.0357 C   0  0  0  0  0  0  0  0  0  0  0  0
  -15.6885   17.8882  -23.6296 C   0  0  0  0  0  0  0  0  0  0  0  0
  -15.9258   17.5798  -22.4316 O   0  0  0  0  0  0  0  0  0  0  0  0
  -15.2131   16.8949  -24.5523 N   0  0  0  0  0  0  0  0  0  0  0  0
  -15.1073   15.4752  -24.2143 C   0  0  0  0  0  0  0  0  0  0  0  0
  -16.4942   14.8303  -24.1391 C   0  0  0  0  0  0  0  0  0  0  0  0
  -17.1911   15.1176  -22.8021 C   0  0  0  0  0  0  0  0  0  0  0  0
  -18.2574   14.1240  -22.5547 N   0  0  0  0  0  0  0  0  0  0  0  0
  -17.7468   12.7364  -22.4561 C   0  0  0  0  0  0  0  0  0  0  0  0
  -16.4698   12.6002  -21.6091 C   0  0  0  0  0  0  0  0  0  0  0  0
  -19.4019   14.2506  -23.4885 C   0  0  0  0  0  0  0  0  0  0  0  0
  -19.1410   13.4105  -24.7321 C   0  0  0  0  0  0  0  0  0  0  0  0
  -15.2002   19.8533  -25.0955 C   0  0  0  0  0  0  0  0  0  0  0  0
  -14.5032   19.1057  -26.1643 C   0  0  0  0  0  0  0  0  0  0  0  0
  -14.9299   19.1300  -27.3498 O   0  0  0  0  0  0  0  0  0  0  0  0
  -13.2160   18.3883  -25.8679 C   0  0  0  0  0  0  0  0  0  0  0  0
  -12.9141   17.2591  -26.8229 C   0  0  0  0  0  0  0  0  0  0  0  0
  -11.9381   17.4454  -27.7545 N   0  0  0  0  0  0  0  0  0  0  0  0
  -11.5470   16.4595  -28.6026 C   0  0  0  0  0  0  0  0  0  0  0  0
  -12.1316   15.1943  -28.5226 C   0  0  0  0  0  0  0  0  0  0  0  0
  -11.7514   14.2112  -29.3787 N   0  0  0  0  0  0  0  0  0  0  0  0
  -12.3241   12.9823  -29.3259 C   0  0  0  0  0  0  0  0  0  0  0  0
  -13.2841   12.7162  -28.4041 N   0  0  0  0  0  0  0  0  0  0  0  0
  -13.6883   13.6504  -27.5035 C   0  0  0  0  0  0  0  0  0  0  0  0
  -14.7209   13.2981  -26.5698 N   0  0  0  0  0  0  0  0  0  0  0  0
  -15.5938   12.1633  -26.7176 C   0  0  0  0  0  0  0  0  0  0  0  0
  -16.7728   12.0352  -25.9581 C   0  0  0  0  0  0  0  0  0  0  0  0
  -17.6217   10.9421  -26.1548 C   0  0  0  0  0  0  0  0  0  0  0  0
  -17.3039    9.9681  -27.1043 C   0  0  0  0  0  0  0  0  0  0  0  0
  -16.1227   10.0753  -27.8464 C   0  0  0  0  0  0  0  0  0  0  0  0
  -15.6916    8.7483  -29.1511 Br  0  0  0  0  0  0  0  0  0  0  0  0
  -15.2697   11.1660  -27.6501 C   0  0  0  0  0  0  0  0  0  0  0  0
  -13.1266   14.9476  -27.5548 C   0  0  0  0  0  0  0  0  0  0  0  0
  -13.5257   15.9965  -26.7087 C   0  0  0  0  0  0  0  0  0  0  0  0
  1  2  1  0
  1 13  2  0
  2  3  2  0
  2  4  1  0
  4  5  1  0
  5  6  1  0
  6  7  1  0
  7  8  1  0
  8  9  1  0
  8 11  1  0
  9 10  1  0
 11 12  1  0
 13 14  1  0
 14 15  2  0
 14 16  1  0
 16 17  1  0
 17 18  2  0
 18 19  1  0
 19 20  2  0
 20 21  1  0
 21 22  2  0
 22 23  1  0
 23 24  2  0
 24 25  1  0
 24 33  1  0
 25 26  1  0
 26 27  2  0
 27 28  1  0
 28 29  2  0
 29 30  1  0
 30 31  1  0
 30 32  2  0
 32 26  1  0
 33 34  2  0
 33 20  1  0
 34 17  1  0
M  END
$$$$
CHEMBL460721_plants_09
     RDKit          3D

 34 36  0  0  0  0  0  0  0  0999 V2000
  -13.3394   20.1931  -25.2948 C   0  0  0  0  0  0  0  0  0  0  0  0
  -13.9152   19.2596  -26.2800 C   0  0  0  0  0  0  0  0  0  0  0  0
  -15.0518   19.5113  -26.7610 O   0  0  0  0  0  0  0  0  0  0  0  0
  -13.2431   18.0345  -26.6136 N   0  0  0  0  0  0  0  0  0  0  0  0
  -13.7504   17.0896  -27.6090 C   0  0  0  0  0  0  0  0  0  0  0  0
  -12.7181   15.9950  -27.8939 C   0  0  0  0  0  0  0  0  0  0  0  0
  -11.5088   16.5322  -28.6715 C   0  0  0  0  0  0  0  0  0  0  0  0
  -11.1855   15.6358  -29.8018 N   0  0  0  0  0  0  0  0  0  0  0  0
  -10.8503   14.2577  -29.3725 C   0  0  0  0  0  0  0  0  0  0  0  0
  -12.0764   13.3494  -29.1771 C   0  0  0  0  0  0  0  0  0  0  0  0
  -10.1836   16.2078  -30.7329 C   0  0  0  0  0  0  0  0  0  0  0  0
  -10.8923   17.0239  -31.8062 C   0  0  0  0  0  0  0  0  0  0  0  0
  -13.8271   20.4149  -24.0649 C   0  0  0  0  0  0  0  0  0  0  0  0
  -14.8691   19.6017  -23.4016 C   0  0  0  0  0  0  0  0  0  0  0  0
  -14.8098   19.3640  -22.1654 O   0  0  0  0  0  0  0  0  0  0  0  0
  -16.0684   19.1328  -24.1770 C   0  0  0  0  0  0  0  0  0  0  0  0
  -16.6214   17.8107  -23.7030 C   0  0  0  0  0  0  0  0  0  0  0  0
  -17.5524   17.8199  -22.7089 N   0  0  0  0  0  0  0  0  0  0  0  0
  -18.1600   16.6861  -22.2735 C   0  0  0  0  0  0  0  0  0  0  0  0
  -17.8570   15.4581  -22.8643 C   0  0  0  0  0  0  0  0  0  0  0  0
  -18.4534   14.3215  -22.4213 N   0  0  0  0  0  0  0  0  0  0  0  0
  -18.1546   13.1183  -22.9724 C   0  0  0  0  0  0  0  0  0  0  0  0
  -17.2565   13.0367  -23.9867 N   0  0  0  0  0  0  0  0  0  0  0  0
  -16.6460   14.1414  -24.4909 C   0  0  0  0  0  0  0  0  0  0  0  0
  -15.6951   13.9720  -25.5534 N   0  0  0  0  0  0  0  0  0  0  0  0
  -15.6034   12.7963  -26.3787 C   0  0  0  0  0  0  0  0  0  0  0  0
  -14.4458   12.5086  -27.1274 C   0  0  0  0  0  0  0  0  0  0  0  0
  -14.3715   11.3369  -27.8864 C   0  0  0  0  0  0  0  0  0  0  0  0
  -15.4467   10.4456  -27.9091 C   0  0  0  0  0  0  0  0  0  0  0  0
  -16.6096   10.7354  -27.1871 C   0  0  0  0  0  0  0  0  0  0  0  0
  -18.0771    9.5128  -27.2108 Br  0  0  0  0  0  0  0  0  0  0  0  0
  -16.6885   11.9080  -26.4292 C   0  0  0  0  0  0  0  0  0  0  0  0
  -16.9195   15.4046  -23.9160 C   0  0  0  0  0  0  0  0  0  0  0  0
  -16.2907   16.5927  -24.3262 C   0  0  0  0  0  0  0  0  0  0  0  0
  1  2  1  0
  1 13  2  0
  2  3  2  0
  2  4  1  0
  4  5  1  0
  5  6  1  0
  6  7  1  0
  7  8  1  0
  8  9  1  0
  8 11  1  0
  9 10  1  0
 11 12  1  0
 13 14  1  0
 14 15  2  0
 14 16  1  0
 16 17  1  0
 17 18  2  0
 18 19  1  0
 19 20  2  0
 20 21  1  0
 21 22  2  0
 22 23  1  0
 23 24  2  0
 24 25  1  0
 24 33  1  0
 25 26  1  0
 26 27  2  0
 27 28  1  0
 28 29  2  0
 29 30  1  0
 30 31  1  0
 30 32  2  0
 32 26  1  0
 33 34  2  0
 33 20  1  0
 34 17  1  0
M  END
$$$$
CHEMBL460721_plants_10
     RDKit          3D

 34 36  0  0  0  0  0  0  0  0999 V2000
  -14.4637   11.1846  -29.0644 C   0  0  0  0  0  0  0  0  0  0  0  0
  -13.4609   12.1304  -28.5415 C   0  0  0  0  0  0  0  0  0  0  0  0
  -12.3690   12.2573  -29.1563 O   0  0  0  0  0  0  0  0  0  0  0  0
  -13.6778   12.8220  -27.3011 N   0  0  0  0  0  0  0  0  0  0  0  0
  -12.7340   13.7969  -26.7535 C   0  0  0  0  0  0  0  0  0  0  0  0
  -12.6304   15.0231  -27.6651 C   0  0  0  0  0  0  0  0  0  0  0  0
  -11.5504   14.8504  -28.7419 C   0  0  0  0  0  0  0  0  0  0  0  0
  -11.4837   16.0524  -29.5999 N   0  0  0  0  0  0  0  0  0  0  0  0
  -10.6794   15.8460  -30.8273 C   0  0  0  0  0  0  0  0  0  0  0  0
  -10.6822   17.0499  -31.7849 C   0  0  0  0  0  0  0  0  0  0  0  0
  -11.0991   17.2780  -28.8597 C   0  0  0  0  0  0  0  0  0  0  0  0
   -9.5820   17.4142  -28.8519 C   0  0  0  0  0  0  0  0  0  0  0  0
  -15.3898   10.5551  -28.3256 C   0  0  0  0  0  0  0  0  0  0  0  0
  -15.7194   10.8732  -26.9196 C   0  0  0  0  0  0  0  0  0  0  0  0
  -14.8317   10.8341  -26.0259 O   0  0  0  0  0  0  0  0  0  0  0  0
  -17.0988   11.3470  -26.5560 C   0  0  0  0  0  0  0  0  0  0  0  0
  -17.1165   12.3936  -25.4685 C   0  0  0  0  0  0  0  0  0  0  0  0
  -17.5747   12.0364  -24.2366 N   0  0  0  0  0  0  0  0  0  0  0  0
  -17.5548   12.8892  -23.1799 C   0  0  0  0  0  0  0  0  0  0  0  0
  -17.0296   14.1743  -23.3269 C   0  0  0  0  0  0  0  0  0  0  0  0
  -17.0213   15.0329  -22.2750 N   0  0  0  0  0  0  0  0  0  0  0  0
  -16.5319   16.2914  -22.4076 C   0  0  0  0  0  0  0  0  0  0  0  0
  -16.0327   16.7071  -23.5993 N   0  0  0  0  0  0  0  0  0  0  0  0
  -15.9896   15.8859  -24.6814 C   0  0  0  0  0  0  0  0  0  0  0  0
  -15.4616   16.4039  -25.9122 N   0  0  0  0  0  0  0  0  0  0  0  0
  -14.9134   17.7259  -26.0656 C   0  0  0  0  0  0  0  0  0  0  0  0
  -15.0926   18.4663  -27.2501 C   0  0  0  0  0  0  0  0  0  0  0  0
  -14.5838   19.7644  -27.3527 C   0  0  0  0  0  0  0  0  0  0  0  0
  -13.8914   20.3339  -26.2815 C   0  0  0  0  0  0  0  0  0  0  0  0
  -13.6883   19.5965  -25.1100 C   0  0  0  0  0  0  0  0  0  0  0  0
  -12.7490   20.3778  -23.6415 Br  0  0  0  0  0  0  0  0  0  0  0  0
  -14.1934   18.2967  -25.0050 C   0  0  0  0  0  0  0  0  0  0  0  0
  -16.5183   14.5780  -24.5772 C   0  0  0  0  0  0  0  0  0  0  0  0
  -16.5762   13.6798  -25.6566 C   0  0  0  0  0  0  0  0  0  0  0  0
  1  2  1  0
  1 13  2  0
  2  3  2  0
  2  4  1  0
  4  5  1  0
  5  6  1  0
  6  7  1  0
  7  8  1  0
  8  9  1  0
  8 11  1  0
  9 10  1  0
 11 12  1  0
 13 14  1  0
 14 15  2  0
 14 16  1  0
 16 17  1  0
 17 18  2  0
 18 19  1  0
 19 20  2  0
 20 21  1  0
 21 22  2  0
 22 23  1  0
 23 24  2  0
 24 25  1  0
 24 33  1  0
 25 26  1  0
 26 27  2  0
 27 28  1  0
 28 29  2  0
 29 30  1  0
 30 31  1  0
 30 32  2  0
 32 26  1  0
 33 34  2  0
 33 20  1  0
 34 17  1  0
M  END
$$$$
CHEMBL4858409_plants_01
     RDKit          3D

 35 38  0  0  0  0  0  0  0  0999 V2000
  -14.7063   21.1820  -24.8587 O   0  0  0  0  0  0  0  0  0  0  0  0
  -15.0791   19.9970  -24.6416 C   0  0  0  0  0  0  0  0  0  0  0  0
  -15.8319   19.7020  -23.4600 N   0  0  0  0  0  0  0  0  0  0  0  0
  -15.2030   19.6196  -22.2626 O   0  0  0  0  0  0  0  0  0  0  0  0
  -14.6554   18.9060  -25.5595 C   0  0  0  0  0  0  0  0  0  0  0  0
  -13.8907   19.2112  -26.7048 C   0  0  0  0  0  0  0  0  0  0  0  0
  -13.5970   18.2201  -27.6526 C   0  0  0  0  0  0  0  0  0  0  0  0
  -14.0505   16.9123  -27.4620 C   0  0  0  0  0  0  0  0  0  0  0  0
  -14.7876   16.5856  -26.3243 C   0  0  0  0  0  0  0  0  0  0  0  0
  -15.0496   17.5584  -25.3467 C   0  0  0  0  0  0  0  0  0  0  0  0
  -15.7458   17.1632  -24.1605 N   0  0  0  0  0  0  0  0  0  0  0  0
  -16.6282   16.0216  -24.0479 C   0  0  0  0  0  0  0  0  0  0  0  0
  -16.2954   14.9024  -24.7399 N   0  0  0  0  0  0  0  0  0  0  0  0
  -17.0145   13.7541  -24.6595 C   0  0  0  0  0  0  0  0  0  0  0  0
  -16.5902   12.6015  -25.3906 N   0  0  0  0  0  0  0  0  0  0  0  0
  -15.4789   12.5716  -26.3123 C   0  0  0  0  0  0  0  0  0  0  0  0
  -15.4006   11.6272  -27.3519 C   0  0  0  0  0  0  0  0  0  0  0  0
  -14.2697   11.5827  -28.1774 C   0  0  0  0  0  0  0  0  0  0  0  0
  -13.2090   12.4819  -27.9875 C   0  0  0  0  0  0  0  0  0  0  0  0
  -12.0889   12.5127  -28.8551 O   0  0  0  0  0  0  0  0  0  0  0  0
  -10.9940   13.4344  -28.7881 C   0  0  0  0  0  0  0  0  0  0  0  0
  -11.4787   14.8258  -29.1164 C   0  0  0  0  0  0  0  0  0  0  0  0
  -12.7123   15.0909  -29.0288 O   0  0  0  0  0  0  0  0  0  0  0  0
  -10.5542   15.8667  -29.5109 N   0  0  0  0  0  0  0  0  0  0  0  0
  -10.6526   17.1923  -28.8866 C   0  0  0  0  0  0  0  0  0  0  0  0
  -10.5459   18.2806  -29.9446 C   0  0  0  0  0  0  0  0  0  0  0  0
   -9.3398   18.1134  -30.6483 O   0  0  0  0  0  0  0  0  0  0  0  0
   -9.4125   16.9918  -31.4984 C   0  0  0  0  0  0  0  0  0  0  0  0
   -9.9419   15.6895  -30.8383 C   0  0  0  0  0  0  0  0  0  0  0  0
  -13.2737   13.4019  -26.9290 C   0  0  0  0  0  0  0  0  0  0  0  0
  -14.3994   13.4424  -26.0939 C   0  0  0  0  0  0  0  0  0  0  0  0
  -18.1282   13.7131  -23.8827 N   0  0  0  0  0  0  0  0  0  0  0  0
  -18.5230   14.7949  -23.1711 C   0  0  0  0  0  0  0  0  0  0  0  0
  -17.7914   15.9888  -23.2273 C   0  0  0  0  0  0  0  0  0  0  0  0
  -18.3774   17.3071  -22.2033 Cl  0  0  0  0  0  0  0  0  0  0  0  0
  1  2  2  0
  2  3  1  0
  2  5  1  0
  3  4  1  0
  5  6  2  0
  6  7  1  0
  7  8  2  0
  8  9  1  0
  9 10  2  0
 10 11  1  0
 10  5  1  0
 11 12  1  0
 12 13  2  0
 13 14  1  0
 14 15  1  0
 14 32  2  0
 15 16  1  0
 16 17  2  0
 17 18  1  0
 18 19  2  0
 19 20  1  0
 19 30  1  0
 20 21  1  0
 21 22  1  0
 22 23  2  0
 22 24  1  0
 24 25  1  0
 25 26  1  0
 26 27  1  0
 27 28  1  0
 28 29  1  0
 29 24  1  0
 30 31  2  0
 31 16  1  0
 32 33  1  0
 33 34  2  0
 34 35  1  0
 34 12  1  0
M  END
$$$$
CHEMBL4858409_plants_02
     RDKit          3D

 35 38  0  0  0  0  0  0  0  0999 V2000
  -11.7176   18.2121  -24.1779 O   0  0  0  0  0  0  0  0  0  0  0  0
  -12.5337   19.1535  -24.3737 C   0  0  0  0  0  0  0  0  0  0  0  0
  -12.6278   20.2131  -23.4154 N   0  0  0  0  0  0  0  0  0  0  0  0
  -13.2900   20.0122  -22.2504 O   0  0  0  0  0  0  0  0  0  0  0  0
  -13.4532   19.1074  -25.5419 C   0  0  0  0  0  0  0  0  0  0  0  0
  -14.4306   20.1112  -25.7043 C   0  0  0  0  0  0  0  0  0  0  0  0
  -15.3928   20.0136  -26.7199 C   0  0  0  0  0  0  0  0  0  0  0  0
  -15.3824   18.9222  -27.5922 C   0  0  0  0  0  0  0  0  0  0  0  0
  -14.4096   17.9316  -27.4627 C   0  0  0  0  0  0  0  0  0  0  0  0
  -13.4143   18.0408  -26.4787 C   0  0  0  0  0  0  0  0  0  0  0  0
  -12.3925   17.0402  -26.4280 N   0  0  0  0  0  0  0  0  0  0  0  0
  -12.1985   15.9904  -27.4051 C   0  0  0  0  0  0  0  0  0  0  0  0
  -12.8661   14.8244  -27.2122 N   0  0  0  0  0  0  0  0  0  0  0  0
  -12.8084   13.7959  -28.0960 C   0  0  0  0  0  0  0  0  0  0  0  0
  -13.5620   12.6071  -27.8474 N   0  0  0  0  0  0  0  0  0  0  0  0
  -14.7365   12.5340  -27.0104 C   0  0  0  0  0  0  0  0  0  0  0  0
  -15.3903   11.3158  -26.7516 C   0  0  0  0  0  0  0  0  0  0  0  0
  -16.5704   11.2978  -25.9969 C   0  0  0  0  0  0  0  0  0  0  0  0
  -17.1087   12.4871  -25.4816 C   0  0  0  0  0  0  0  0  0  0  0  0
  -18.2559   12.4910  -24.6495 O   0  0  0  0  0  0  0  0  0  0  0  0
  -18.8577   13.6430  -24.0466 C   0  0  0  0  0  0  0  0  0  0  0  0
  -17.8454   14.3512  -23.1791 C   0  0  0  0  0  0  0  0  0  0  0  0
  -17.2675   13.7140  -22.2520 O   0  0  0  0  0  0  0  0  0  0  0  0
  -17.5106   15.7412  -23.4023 N   0  0  0  0  0  0  0  0  0  0  0  0
  -16.0993   16.1460  -23.4346 C   0  0  0  0  0  0  0  0  0  0  0  0
  -15.8978   17.4147  -22.6191 C   0  0  0  0  0  0  0  0  0  0  0  0
  -16.7490   18.4163  -23.1191 O   0  0  0  0  0  0  0  0  0  0  0  0
  -18.0885   18.1474  -22.7733 C   0  0  0  0  0  0  0  0  0  0  0  0
  -18.5750   16.7024  -23.0689 C   0  0  0  0  0  0  0  0  0  0  0  0
  -16.4735   13.7058  -25.7685 C   0  0  0  0  0  0  0  0  0  0  0  0
  -15.2979   13.7289  -26.5325 C   0  0  0  0  0  0  0  0  0  0  0  0
  -12.0368   13.9098  -29.2082 N   0  0  0  0  0  0  0  0  0  0  0  0
  -11.3380   15.0414  -29.4600 C   0  0  0  0  0  0  0  0  0  0  0  0
  -11.3899   16.1223  -28.5697 C   0  0  0  0  0  0  0  0  0  0  0  0
  -10.4812   17.5639  -29.0451 Cl  0  0  0  0  0  0  0  0  0  0  0  0
  1  2  2  0
  2  3  1  0
  2  5  1  0
  3  4  1  0
  5  6  2  0
  6  7  1  0
  7  8  2  0
  8  9  1  0
  9 10  2  0
 10 11  1  0
 10  5  1  0
 11 12  1  0
 12 13  2  0
 13 14  1  0
 14 15  1  0
 14 32  2  0
 15 16  1  0
 16 17  2  0
 17 18  1  0
 18 19  2  0
 19 20  1  0
 19 30  1  0
 20 21  1  0
 21 22  1  0
 22 23  2  0
 22 24  1  0
 24 25  1  0
 25 26  1  0
 26 27  1  0
 27 28  1  0
 28 29  1  0
 29 24  1  0
 30 31  2  0
 31 16  1  0
 32 33  1  0
 33 34  2  0
 34 35  1  0
 34 12  1  0
M  END
$$$$
CHEMBL4858409_plants_03
     RDKit          3D

 35 38  0  0  0  0  0  0  0  0999 V2000
  -13.8657   19.4118  -27.6511 O   0  0  0  0  0  0  0  0  0  0  0  0
  -14.6742   19.1018  -26.7342 C   0  0  0  0  0  0  0  0  0  0  0  0
  -15.5104   20.1136  -26.1624 N   0  0  0  0  0  0  0  0  0  0  0  0
  -14.9915   20.9943  -25.2729 O   0  0  0  0  0  0  0  0  0  0  0  0
  -14.6854   17.7169  -26.1918 C   0  0  0  0  0  0  0  0  0  0  0  0
  -15.6152   17.3635  -25.1917 C   0  0  0  0  0  0  0  0  0  0  0  0
  -15.5543   16.1072  -24.5715 C   0  0  0  0  0  0  0  0  0  0  0  0
  -14.5752   15.1854  -24.9510 C   0  0  0  0  0  0  0  0  0  0  0  0
  -13.6619   15.5072  -25.9544 C   0  0  0  0  0  0  0  0  0  0  0  0
  -13.7408   16.7441  -26.6137 C   0  0  0  0  0  0  0  0  0  0  0  0
  -12.8307   17.0042  -27.6870 N   0  0  0  0  0  0  0  0  0  0  0  0
  -12.0368   16.0071  -28.3726 C   0  0  0  0  0  0  0  0  0  0  0  0
  -12.4467   14.7158  -28.2910 N   0  0  0  0  0  0  0  0  0  0  0  0
  -11.8159   13.7074  -28.9447 C   0  0  0  0  0  0  0  0  0  0  0  0
  -12.3193   12.3737  -28.8410 N   0  0  0  0  0  0  0  0  0  0  0  0
  -13.5926   12.0146  -28.2620 C   0  0  0  0  0  0  0  0  0  0  0  0
  -14.1968   12.7897  -27.2557 C   0  0  0  0  0  0  0  0  0  0  0  0
  -15.3951   12.3663  -26.6665 C   0  0  0  0  0  0  0  0  0  0  0  0
  -16.0129   11.1748  -27.0770 C   0  0  0  0  0  0  0  0  0  0  0  0
  -17.2643   10.7619  -26.5558 O   0  0  0  0  0  0  0  0  0  0  0  0
  -17.4715   10.0056  -25.3568 C   0  0  0  0  0  0  0  0  0  0  0  0
  -17.2987   10.9007  -24.1536 C   0  0  0  0  0  0  0  0  0  0  0  0
  -16.8921   10.4049  -23.0635 O   0  0  0  0  0  0  0  0  0  0  0  0
  -17.5716   12.3197  -24.2312 N   0  0  0  0  0  0  0  0  0  0  0  0
  -16.6004   13.2715  -23.6764 C   0  0  0  0  0  0  0  0  0  0  0  0
  -17.3171   14.3401  -22.8643 C   0  0  0  0  0  0  0  0  0  0  0  0
  -18.2700   14.9709  -23.6839 O   0  0  0  0  0  0  0  0  0  0  0  0
  -19.3624   14.1138  -23.9252 C   0  0  0  0  0  0  0  0  0  0  0  0
  -18.9922   12.6762  -24.3818 C   0  0  0  0  0  0  0  0  0  0  0  0
  -15.3918   10.3855  -28.0580 C   0  0  0  0  0  0  0  0  0  0  0  0
  -14.1867   10.8007  -28.6425 C   0  0  0  0  0  0  0  0  0  0  0  0
  -10.7144   13.9783  -29.6921 N   0  0  0  0  0  0  0  0  0  0  0  0
  -10.2456   15.2425  -29.8116 C   0  0  0  0  0  0  0  0  0  0  0  0
  -10.8856   16.3032  -29.1567 C   0  0  0  0  0  0  0  0  0  0  0  0
  -10.2110   17.9132  -29.4440 Cl  0  0  0  0  0  0  0  0  0  0  0  0
  1  2  2  0
  2  3  1  0
  2  5  1  0
  3  4  1  0
  5  6  2  0
  6  7  1  0
  7  8  2  0
  8  9  1  0
  9 10  2  0
 10 11  1  0
 10  5  1  0
 11 12  1  0
 12 13  2  0
 13 14  1  0
 14 15  1  0
 14 32  2  0
 15 16  1  0
 16 17  2  0
 17 18  1  0
 18 19  2  0
 19 20  1  0
 19 30  1  0
 20 21  1  0
 21 22  1  0
 22 23  2  0
 22 24  1  0
 24 25  1  0
 25 26  1  0
 26 27  1  0
 27 28  1  0
 28 29  1  0
 29 24  1  0
 30 31  2  0
 31 16  1  0
 32 33  1  0
 33 34  2  0
 34 35  1  0
 34 12  1  0
M  END
$$$$
CHEMBL4858409_plants_04
     RDKit          3D

 35 38  0  0  0  0  0  0  0  0999 V2000
  -12.0907   12.2085  -29.0911 O   0  0  0  0  0  0  0  0  0  0  0  0
  -11.9698   13.4636  -29.1159 C   0  0  0  0  0  0  0  0  0  0  0  0
  -10.9281   14.0542  -29.9008 N   0  0  0  0  0  0  0  0  0  0  0  0
   -9.6510   14.0382  -29.4484 O   0  0  0  0  0  0  0  0  0  0  0  0
  -12.8438   14.3102  -28.2605 C   0  0  0  0  0  0  0  0  0  0  0  0
  -12.6750   15.7106  -28.2555 C   0  0  0  0  0  0  0  0  0  0  0  0
  -13.3937   16.5135  -27.3581 C   0  0  0  0  0  0  0  0  0  0  0  0
  -14.2978   15.9309  -26.4663 C   0  0  0  0  0  0  0  0  0  0  0  0
  -14.4962   14.5507  -26.4721 C   0  0  0  0  0  0  0  0  0  0  0  0
  -13.8161   13.7414  -27.3958 C   0  0  0  0  0  0  0  0  0  0  0  0
  -14.1041   12.3397  -27.4165 N   0  0  0  0  0  0  0  0  0  0  0  0
  -15.3671   11.7383  -27.0455 C   0  0  0  0  0  0  0  0  0  0  0  0
  -16.1148   12.3785  -26.1109 N   0  0  0  0  0  0  0  0  0  0  0  0
  -17.3422   11.9396  -25.7328 C   0  0  0  0  0  0  0  0  0  0  0  0
  -18.0906   12.6795  -24.7657 N   0  0  0  0  0  0  0  0  0  0  0  0
  -17.6370   13.8889  -24.1198 C   0  0  0  0  0  0  0  0  0  0  0  0
  -16.2720   14.2170  -24.0306 C   0  0  0  0  0  0  0  0  0  0  0  0
  -15.8684   15.3607  -23.3295 C   0  0  0  0  0  0  0  0  0  0  0  0
  -16.8154   16.1973  -22.7187 C   0  0  0  0  0  0  0  0  0  0  0  0
  -16.4434   17.4017  -22.0711 O   0  0  0  0  0  0  0  0  0  0  0  0
  -17.1912   18.6237  -22.0668 C   0  0  0  0  0  0  0  0  0  0  0  0
  -17.2071   19.2161  -23.4552 C   0  0  0  0  0  0  0  0  0  0  0  0
  -18.3112   19.3698  -24.0526 O   0  0  0  0  0  0  0  0  0  0  0  0
  -15.9828   19.6291  -24.1068 N   0  0  0  0  0  0  0  0  0  0  0  0
  -15.9232   20.9417  -24.7627 C   0  0  0  0  0  0  0  0  0  0  0  0
  -15.2605   20.8178  -26.1267 C   0  0  0  0  0  0  0  0  0  0  0  0
  -13.9853   20.2480  -25.9623 O   0  0  0  0  0  0  0  0  0  0  0  0
  -14.0906   18.8783  -25.6478 C   0  0  0  0  0  0  0  0  0  0  0  0
  -15.0867   18.5318  -24.5078 C   0  0  0  0  0  0  0  0  0  0  0  0
  -18.1745   15.8509  -22.7803 C   0  0  0  0  0  0  0  0  0  0  0  0
  -18.5815   14.7011  -23.4721 C   0  0  0  0  0  0  0  0  0  0  0  0
  -17.8461   10.8030  -26.2801 N   0  0  0  0  0  0  0  0  0  0  0  0
  -17.1514   10.1097  -27.2124 C   0  0  0  0  0  0  0  0  0  0  0  0
  -15.8872   10.5480  -27.6289 C   0  0  0  0  0  0  0  0  0  0  0  0
  -15.1115    9.5881  -28.8964 Cl  0  0  0  0  0  0  0  0  0  0  0  0
  1  2  2  0
  2  3  1  0
  2  5  1  0
  3  4  1  0
  5  6  2  0
  6  7  1  0
  7  8  2  0
  8  9  1  0
  9 10  2  0
 10 11  1  0
 10  5  1  0
 11 12  1  0
 12 13  2  0
 13 14  1  0
 14 15  1  0
 14 32  2  0
 15 16  1  0
 16 17  2  0
 17 18  1  0
 18 19  2  0
 19 20  1  0
 19 30  1  0
 20 21  1  0
 21 22  1  0
 22 23  2  0
 22 24  1  0
 24 25  1  0
 25 26  1  0
 26 27  1  0
 27 28  1  0
 28 29  1  0
 29 24  1  0
 30 31  2  0
 31 16  1  0
 32 33  1  0
 33 34  2  0
 34 35  1  0
 34 12  1  0
M  END
$$$$
CHEMBL4858409_plants_05
     RDKit          3D

 35 38  0  0  0  0  0  0  0  0999 V2000
  -12.3990   17.7771  -28.2040 O   0  0  0  0  0  0  0  0  0  0  0  0
  -12.1712   16.5382  -28.1433 C   0  0  0  0  0  0  0  0  0  0  0  0
  -11.0762   15.9876  -28.8834 N   0  0  0  0  0  0  0  0  0  0  0  0
  -11.1916   15.8014  -30.2205 O   0  0  0  0  0  0  0  0  0  0  0  0
  -13.0928   15.6507  -27.3847 C   0  0  0  0  0  0  0  0  0  0  0  0
  -12.8411   14.2640  -27.3274 C   0  0  0  0  0  0  0  0  0  0  0  0
  -13.7674   13.3938  -26.7346 C   0  0  0  0  0  0  0  0  0  0  0  0
  -14.9469   13.8979  -26.1807 C   0  0  0  0  0  0  0  0  0  0  0  0
  -15.2027   15.2684  -26.2063 C   0  0  0  0  0  0  0  0  0  0  0  0
  -14.2627   16.1540  -26.7567 C   0  0  0  0  0  0  0  0  0  0  0  0
  -14.5317   17.5583  -26.6962 N   0  0  0  0  0  0  0  0  0  0  0  0
  -15.2138   18.2350  -25.6140 C   0  0  0  0  0  0  0  0  0  0  0  0
  -16.0800   17.5050  -24.8663 N   0  0  0  0  0  0  0  0  0  0  0  0
  -16.7268   18.0190  -23.7894 C   0  0  0  0  0  0  0  0  0  0  0  0
  -17.6019   17.1856  -23.0262 N   0  0  0  0  0  0  0  0  0  0  0  0
  -17.6307   15.7431  -23.0883 C   0  0  0  0  0  0  0  0  0  0  0  0
  -18.7640   15.0048  -22.7021 C   0  0  0  0  0  0  0  0  0  0  0  0
  -18.7252   13.6045  -22.7049 C   0  0  0  0  0  0  0  0  0  0  0  0
  -17.5651   12.9213  -23.1014 C   0  0  0  0  0  0  0  0  0  0  0  0
  -17.5220   11.5076  -23.1900 O   0  0  0  0  0  0  0  0  0  0  0  0
  -17.9707   10.7169  -24.2973 C   0  0  0  0  0  0  0  0  0  0  0  0
  -17.4046   11.2719  -25.5820 C   0  0  0  0  0  0  0  0  0  0  0  0
  -17.5539   12.4994  -25.8477 O   0  0  0  0  0  0  0  0  0  0  0  0
  -16.6773   10.4280  -26.5055 N   0  0  0  0  0  0  0  0  0  0  0  0
  -15.3972   10.8951  -27.0530 C   0  0  0  0  0  0  0  0  0  0  0  0
  -15.3382   10.6305  -28.5502 C   0  0  0  0  0  0  0  0  0  0  0  0
  -15.5437    9.2579  -28.7775 O   0  0  0  0  0  0  0  0  0  0  0  0
  -16.8911    8.9134  -28.5499 C   0  0  0  0  0  0  0  0  0  0  0  0
  -17.4929    9.4272  -27.2135 C   0  0  0  0  0  0  0  0  0  0  0  0
  -16.4242   13.6591  -23.4548 C   0  0  0  0  0  0  0  0  0  0  0  0
  -16.4558   15.0610  -23.4429 C   0  0  0  0  0  0  0  0  0  0  0  0
  -16.5326   19.3194  -23.4481 N   0  0  0  0  0  0  0  0  0  0  0  0
  -15.6885   20.1078  -24.1541 C   0  0  0  0  0  0  0  0  0  0  0  0
  -14.9995   19.5982  -25.2629 C   0  0  0  0  0  0  0  0  0  0  0  0
  -13.8810   20.7126  -26.0610 Cl  0  0  0  0  0  0  0  0  0  0  0  0
  1  2  2  0
  2  3  1  0
  2  5  1  0
  3  4  1  0
  5  6  2  0
  6  7  1  0
  7  8  2  0
  8  9  1  0
  9 10  2  0
 10 11  1  0
 10  5  1  0
 11 12  1  0
 12 13  2  0
 13 14  1  0
 14 15  1  0
 14 32  2  0
 15 16  1  0
 16 17  2  0
 17 18  1  0
 18 19  2  0
 19 20  1  0
 19 30  1  0
 20 21  1  0
 21 22  1  0
 22 23  2  0
 22 24  1  0
 24 25  1  0
 25 26  1  0
 26 27  1  0
 27 28  1  0
 28 29  1  0
 29 24  1  0
 30 31  2  0
 31 16  1  0
 32 33  1  0
 33 34  2  0
 34 35  1  0
 34 12  1  0
M  END
$$$$
CHEMBL4858409_plants_06
     RDKit          3D

 35 38  0  0  0  0  0  0  0  0999 V2000
  -15.2174   18.1646  -27.6136 O   0  0  0  0  0  0  0  0  0  0  0  0
  -14.8644   18.5804  -26.4766 C   0  0  0  0  0  0  0  0  0  0  0  0
  -15.6931   19.5196  -25.7829 N   0  0  0  0  0  0  0  0  0  0  0  0
  -15.6902   20.8233  -26.1523 O   0  0  0  0  0  0  0  0  0  0  0  0
  -13.5522   18.1682  -25.9103 C   0  0  0  0  0  0  0  0  0  0  0  0
  -13.1076   18.7264  -24.6937 C   0  0  0  0  0  0  0  0  0  0  0  0
  -11.8184   18.4556  -24.2125 C   0  0  0  0  0  0  0  0  0  0  0  0
  -10.9646   17.6152  -24.9314 C   0  0  0  0  0  0  0  0  0  0  0  0
  -11.3944   17.0348  -26.1242 C   0  0  0  0  0  0  0  0  0  0  0  0
  -12.6979   17.2623  -26.5931 C   0  0  0  0  0  0  0  0  0  0  0  0
  -13.1223   16.5888  -27.7823 N   0  0  0  0  0  0  0  0  0  0  0  0
  -12.6211   15.3132  -28.2470 C   0  0  0  0  0  0  0  0  0  0  0  0
  -13.3550   14.2088  -27.9570 N   0  0  0  0  0  0  0  0  0  0  0  0
  -13.0140   12.9704  -28.3953 C   0  0  0  0  0  0  0  0  0  0  0  0
  -13.8491   11.8541  -28.0801 N   0  0  0  0  0  0  0  0  0  0  0  0
  -15.0257   11.9131  -27.2449 C   0  0  0  0  0  0  0  0  0  0  0  0
  -15.2745   12.9996  -26.3869 C   0  0  0  0  0  0  0  0  0  0  0  0
  -16.3879   12.9833  -25.5369 C   0  0  0  0  0  0  0  0  0  0  0  0
  -17.2727   11.8938  -25.5368 C   0  0  0  0  0  0  0  0  0  0  0  0
  -18.4489   11.8844  -24.7465 O   0  0  0  0  0  0  0  0  0  0  0  0
  -18.5081   11.7399  -23.3223 C   0  0  0  0  0  0  0  0  0  0  0  0
  -17.6886   12.8245  -22.6659 C   0  0  0  0  0  0  0  0  0  0  0  0
  -16.8667   12.5171  -21.7551 O   0  0  0  0  0  0  0  0  0  0  0  0
  -17.8130   14.2072  -23.0741 N   0  0  0  0  0  0  0  0  0  0  0  0
  -16.6001   14.9969  -23.3228 C   0  0  0  0  0  0  0  0  0  0  0  0
  -16.7247   16.3689  -22.6768 C   0  0  0  0  0  0  0  0  0  0  0  0
  -17.8801   17.0005  -23.1709 O   0  0  0  0  0  0  0  0  0  0  0  0
  -19.0393   16.4035  -22.6361 C   0  0  0  0  0  0  0  0  0  0  0  0
  -19.0866   14.8532  -22.7153 C   0  0  0  0  0  0  0  0  0  0  0  0
  -17.0050   10.7956  -26.3695 C   0  0  0  0  0  0  0  0  0  0  0  0
  -15.8855   10.8036  -27.2139 C   0  0  0  0  0  0  0  0  0  0  0  0
  -11.8837   12.8069  -29.1309 N   0  0  0  0  0  0  0  0  0  0  0  0
  -11.1003   13.8634  -29.4509 C   0  0  0  0  0  0  0  0  0  0  0  0
  -11.4364   15.1541  -29.0209 C   0  0  0  0  0  0  0  0  0  0  0  0
  -10.3645   16.4550  -29.5580 Cl  0  0  0  0  0  0  0  0  0  0  0  0
  1  2  2  0
  2  3  1  0
  2  5  1  0
  3  4  1  0
  5  6  2  0
  6  7  1  0
  7  8  2  0
  8  9  1  0
  9 10  2  0
 10 11  1  0
 10  5  1  0
 11 12  1  0
 12 13  2  0
 13 14  1  0
 14 15  1  0
 14 32  2  0
 15 16  1  0
 16 17  2  0
 17 18  1  0
 18 19  2  0
 19 20  1  0
 19 30  1  0
 20 21  1  0
 21 22  1  0
 22 23  2  0
 22 24  1  0
 24 25  1  0
 25 26  1  0
 26 27  1  0
 27 28  1  0
 28 29  1  0
 29 24  1  0
 30 31  2  0
 31 16  1  0
 32 33  1  0
 33 34  2  0
 34 35  1  0
 34 12  1  0
M  END
$$$$
CHEMBL4858409_plants_07
     RDKit          3D

 35 38  0  0  0  0  0  0  0  0999 V2000
  -13.0051   12.1846  -28.6418 O   0  0  0  0  0  0  0  0  0  0  0  0
  -14.0184   12.4185  -27.9284 C   0  0  0  0  0  0  0  0  0  0  0  0
  -14.0714   13.6225  -27.1554 N   0  0  0  0  0  0  0  0  0  0  0  0
  -13.3613   13.7176  -26.0053 O   0  0  0  0  0  0  0  0  0  0  0  0
  -15.1010   11.4041  -27.8220 C   0  0  0  0  0  0  0  0  0  0  0  0
  -15.1503   10.3331  -28.7386 C   0  0  0  0  0  0  0  0  0  0  0  0
  -16.2353    9.4446  -28.7414 C   0  0  0  0  0  0  0  0  0  0  0  0
  -17.2751    9.6060  -27.8221 C   0  0  0  0  0  0  0  0  0  0  0  0
  -17.2330   10.6444  -26.8924 C   0  0  0  0  0  0  0  0  0  0  0  0
  -16.1309   11.5130  -26.8504 C   0  0  0  0  0  0  0  0  0  0  0  0
  -16.0937   12.5191  -25.8333 N   0  0  0  0  0  0  0  0  0  0  0  0
  -16.8932   12.5209  -24.6269 C   0  0  0  0  0  0  0  0  0  0  0  0
  -17.3482   13.7187  -24.1793 N   0  0  0  0  0  0  0  0  0  0  0  0
  -18.1571   13.8330  -23.0954 C   0  0  0  0  0  0  0  0  0  0  0  0
  -18.6265   15.1227  -22.6964 N   0  0  0  0  0  0  0  0  0  0  0  0
  -18.0196   16.3765  -23.0776 C   0  0  0  0  0  0  0  0  0  0  0  0
  -16.7668   16.4325  -23.7149 C   0  0  0  0  0  0  0  0  0  0  0  0
  -16.1779   17.6713  -23.9996 C   0  0  0  0  0  0  0  0  0  0  0  0
  -16.8305   18.8680  -23.6651 C   0  0  0  0  0  0  0  0  0  0  0  0
  -16.2965   20.1342  -24.0114 O   0  0  0  0  0  0  0  0  0  0  0  0
  -15.9423   20.5693  -25.3297 C   0  0  0  0  0  0  0  0  0  0  0  0
  -14.5875   20.0172  -25.7015 C   0  0  0  0  0  0  0  0  0  0  0  0
  -13.6053   20.8057  -25.8164 O   0  0  0  0  0  0  0  0  0  0  0  0
  -14.3887   18.5991  -25.9098 N   0  0  0  0  0  0  0  0  0  0  0  0
  -13.2422   17.9321  -25.2794 C   0  0  0  0  0  0  0  0  0  0  0  0
  -12.5552   17.0123  -26.2779 C   0  0  0  0  0  0  0  0  0  0  0  0
  -13.4980   16.0934  -26.7725 O   0  0  0  0  0  0  0  0  0  0  0  0
  -14.3990   16.7300  -27.6493 C   0  0  0  0  0  0  0  0  0  0  0  0
  -15.0240   18.0492  -27.1190 C   0  0  0  0  0  0  0  0  0  0  0  0
  -18.0652   18.8105  -22.9995 C   0  0  0  0  0  0  0  0  0  0  0  0
  -18.6529   17.5723  -22.7032 C   0  0  0  0  0  0  0  0  0  0  0  0
  -18.5133   12.7193  -22.4039 N   0  0  0  0  0  0  0  0  0  0  0  0
  -18.0896   11.4929  -22.7896 C   0  0  0  0  0  0  0  0  0  0  0  0
  -17.2636   11.3464  -23.9121 C   0  0  0  0  0  0  0  0  0  0  0  0
  -16.8311    9.6868  -24.3463 Cl  0  0  0  0  0  0  0  0  0  0  0  0
  1  2  2  0
  2  3  1  0
  2  5  1  0
  3  4  1  0
  5  6  2  0
  6  7  1  0
  7  8  2  0
  8  9  1  0
  9 10  2  0
 10 11  1  0
 10  5  1  0
 11 12  1  0
 12 13  2  0
 13 14  1  0
 14 15  1  0
 14 32  2  0
 15 16  1  0
 16 17  2  0
 17 18  1  0
 18 19  2  0
 19 20  1  0
 19 30  1  0
 20 21  1  0
 21 22  1  0
 22 23  2  0
 22 24  1  0
 24 25  1  0
 25 26  1  0
 26 27  1  0
 27 28  1  0
 28 29  1  0
 29 24  1  0
 30 31  2  0
 31 16  1  0
 32 33  1  0
 33 34  2  0
 34 35  1  0
 34 12  1  0
M  END
$$$$
CHEMBL4858409_plants_08
     RDKit          3D

 35 38  0  0  0  0  0  0  0  0999 V2000
  -13.1746   16.7890  -23.5540 O   0  0  0  0  0  0  0  0  0  0  0  0
  -13.5368   17.9886  -23.6955 C   0  0  0  0  0  0  0  0  0  0  0  0
  -13.5984   18.8444  -22.5493 N   0  0  0  0  0  0  0  0  0  0  0  0
  -14.6337   18.7368  -21.6819 O   0  0  0  0  0  0  0  0  0  0  0  0
  -13.9857   18.4759  -25.0273 C   0  0  0  0  0  0  0  0  0  0  0  0
  -14.4489   19.8006  -25.1691 C   0  0  0  0  0  0  0  0  0  0  0  0
  -15.0024   20.2379  -26.3811 C   0  0  0  0  0  0  0  0  0  0  0  0
  -15.0873   19.3641  -27.4680 C   0  0  0  0  0  0  0  0  0  0  0  0
  -14.6130   18.0577  -27.3550 C   0  0  0  0  0  0  0  0  0  0  0  0
  -14.0161   17.6219  -26.1614 C   0  0  0  0  0  0  0  0  0  0  0  0
  -13.4766   16.2973  -26.1126 N   0  0  0  0  0  0  0  0  0  0  0  0
  -12.8504   15.6063  -27.2193 C   0  0  0  0  0  0  0  0  0  0  0  0
  -13.1245   14.2853  -27.3682 N   0  0  0  0  0  0  0  0  0  0  0  0
  -12.6435   13.5527  -28.4046 C   0  0  0  0  0  0  0  0  0  0  0  0
  -12.9971   12.1726  -28.5191 N   0  0  0  0  0  0  0  0  0  0  0  0
  -14.2194   11.5892  -28.0180 C   0  0  0  0  0  0  0  0  0  0  0  0
  -14.8427   10.5037  -28.6597 C   0  0  0  0  0  0  0  0  0  0  0  0
  -16.0673   10.0158  -28.1856 C   0  0  0  0  0  0  0  0  0  0  0  0
  -16.6815   10.5926  -27.0632 C   0  0  0  0  0  0  0  0  0  0  0  0
  -17.8791   10.0707  -26.5139 O   0  0  0  0  0  0  0  0  0  0  0  0
  -18.8703   10.8120  -25.7924 C   0  0  0  0  0  0  0  0  0  0  0  0
  -18.2997   11.2767  -24.4745 C   0  0  0  0  0  0  0  0  0  0  0  0
  -18.0768   10.4309  -23.5610 O   0  0  0  0  0  0  0  0  0  0  0  0
  -17.9850   12.6704  -24.2450 N   0  0  0  0  0  0  0  0  0  0  0  0
  -16.6901   13.0284  -23.6518 C   0  0  0  0  0  0  0  0  0  0  0  0
  -16.8818   14.0759  -22.5649 C   0  0  0  0  0  0  0  0  0  0  0  0
  -17.5385   15.1897  -23.1180 O   0  0  0  0  0  0  0  0  0  0  0  0
  -18.8922   14.8918  -23.3724 C   0  0  0  0  0  0  0  0  0  0  0  0
  -19.1494   13.5652  -24.1379 C   0  0  0  0  0  0  0  0  0  0  0  0
  -16.0750   11.6970  -26.4439 C   0  0  0  0  0  0  0  0  0  0  0  0
  -14.8544   12.1949  -26.9220 C   0  0  0  0  0  0  0  0  0  0  0  0
  -11.8334   14.1410  -29.3228 N   0  0  0  0  0  0  0  0  0  0  0  0
  -11.5124   15.4529  -29.2318 C   0  0  0  0  0  0  0  0  0  0  0  0
  -12.0056   16.2342  -28.1782 C   0  0  0  0  0  0  0  0  0  0  0  0
  -11.5627   17.9468  -28.2084 Cl  0  0  0  0  0  0  0  0  0  0  0  0
  1  2  2  0
  2  3  1  0
  2  5  1  0
  3  4  1  0
  5  6  2  0
  6  7  1  0
  7  8  2  0
  8  9  1  0
  9 10  2  0
 10 11  1  0
 10  5  1  0
 11 12  1  0
 12 13  2  0
 13 14  1  0
 14 15  1  0
 14 32  2  0
 15 16  1  0
 16 17  2  0
 17 18  1  0
 18 19  2  0
 19 20  1  0
 19 30  1  0
 20 21  1  0
 21 22  1  0
 22 23  2  0
 22 24  1  0
 24 25  1  0
 25 26  1  0
 26 27  1  0
 27 28  1  0
 28 29  1  0
 29 24  1  0
 30 31  2  0
 31 16  1  0
 32 33  1  0
 33 34  2  0
 34 35  1  0
 34 12  1  0
M  END
$$$$
CHEMBL4858409_plants_09
     RDKit          3D

 35 38  0  0  0  0  0  0  0  0999 V2000
  -16.4627    9.1835  -28.2610 O   0  0  0  0  0  0  0  0  0  0  0  0
  -16.4434   10.0743  -27.3685 C   0  0  0  0  0  0  0  0  0  0  0  0
  -17.4226   10.0447  -26.3243 N   0  0  0  0  0  0  0  0  0  0  0  0
  -18.6878   10.4605  -26.5740 O   0  0  0  0  0  0  0  0  0  0  0  0
  -15.4699   11.1951  -27.4599 C   0  0  0  0  0  0  0  0  0  0  0  0
  -14.4832   11.1858  -28.4678 C   0  0  0  0  0  0  0  0  0  0  0  0
  -13.4744   12.1598  -28.4888 C   0  0  0  0  0  0  0  0  0  0  0  0
  -13.4465   13.1606  -27.5142 C   0  0  0  0  0  0  0  0  0  0  0  0
  -14.4270   13.2006  -26.5234 C   0  0  0  0  0  0  0  0  0  0  0  0
  -15.4673   12.2581  -26.5182 C   0  0  0  0  0  0  0  0  0  0  0  0
  -16.4930   12.3798  -25.5277 N   0  0  0  0  0  0  0  0  0  0  0  0
  -16.6719   13.5096  -24.6412 C   0  0  0  0  0  0  0  0  0  0  0  0
  -16.2568   14.7240  -25.0831 N   0  0  0  0  0  0  0  0  0  0  0  0
  -16.4314   15.8611  -24.3630 C   0  0  0  0  0  0  0  0  0  0  0  0
  -15.9989   17.1125  -24.9015 N   0  0  0  0  0  0  0  0  0  0  0  0
  -14.8484   17.2899  -25.7562 C   0  0  0  0  0  0  0  0  0  0  0  0
  -14.5197   18.5404  -26.3100 C   0  0  0  0  0  0  0  0  0  0  0  0
  -13.4398   18.6552  -27.1951 C   0  0  0  0  0  0  0  0  0  0  0  0
  -12.6677   17.5325  -27.5317 C   0  0  0  0  0  0  0  0  0  0  0  0
  -11.5229   17.6323  -28.3610 O   0  0  0  0  0  0  0  0  0  0  0  0
  -11.4903   18.1506  -29.6963 C   0  0  0  0  0  0  0  0  0  0  0  0
  -10.5820   17.2999  -30.5508 C   0  0  0  0  0  0  0  0  0  0  0  0
  -10.3975   17.6114  -31.7626 O   0  0  0  0  0  0  0  0  0  0  0  0
   -9.9034   16.1455  -30.0024 N   0  0  0  0  0  0  0  0  0  0  0  0
   -8.4713   15.9580  -30.2680 C   0  0  0  0  0  0  0  0  0  0  0  0
   -8.1926   14.5119  -30.6502 C   0  0  0  0  0  0  0  0  0  0  0  0
   -8.6561   13.6726  -29.6214 O   0  0  0  0  0  0  0  0  0  0  0  0
  -10.0646   13.6269  -29.6147 C   0  0  0  0  0  0  0  0  0  0  0  0
  -10.7755   15.0066  -29.6699 C   0  0  0  0  0  0  0  0  0  0  0  0
  -13.0172   16.2793  -27.0042 C   0  0  0  0  0  0  0  0  0  0  0  0
  -14.1039   16.1586  -26.1263 C   0  0  0  0  0  0  0  0  0  0  0  0
  -17.0178   15.7968  -23.1393 N   0  0  0  0  0  0  0  0  0  0  0  0
  -17.4490   14.6177  -22.6331 C   0  0  0  0  0  0  0  0  0  0  0  0
  -17.2916   13.4309  -23.3616 C   0  0  0  0  0  0  0  0  0  0  0  0
  -17.9528   11.9691  -22.6162 Cl  0  0  0  0  0  0  0  0  0  0  0  0
  1  2  2  0
  2  3  1  0
  2  5  1  0
  3  4  1  0
  5  6  2  0
  6  7  1  0
  7  8  2  0
  8  9  1  0
  9 10  2  0
 10 11  1  0
 10  5  1  0
 11 12  1  0
 12 13  2  0
 13 14  1  0
 14 15  1  0
 14 32  2  0
 15 16  1  0
 16 17  2  0
 17 18  1  0
 18 19  2  0
 19 20  1  0
 19 30  1  0
 20 21  1  0
 21 22  1  0
 22 23  2  0
 22 24  1  0
 24 25  1  0
 25 26  1  0
 26 27  1  0
 27 28  1  0
 28 29  1  0
 29 24  1  0
 30 31  2  0
 31 16  1  0
 32 33  1  0
 33 34  2  0
 34 35  1  0
 34 12  1  0
M  END
$$$$
CHEMBL4858409_plants_10
     RDKit          3D

 35 38  0  0  0  0  0  0  0  0999 V2000
  -15.7141    9.7681  -28.1524 O   0  0  0  0  0  0  0  0  0  0  0  0
  -15.9826   10.5768  -27.2226 C   0  0  0  0  0  0  0  0  0  0  0  0
  -17.0724   10.2944  -26.3381 N   0  0  0  0  0  0  0  0  0  0  0  0
  -18.3467   10.4986  -26.7511 O   0  0  0  0  0  0  0  0  0  0  0  0
  -15.2309   11.8554  -27.1113 C   0  0  0  0  0  0  0  0  0  0  0  0
  -13.9760   11.9877  -27.7416 C   0  0  0  0  0  0  0  0  0  0  0  0
  -13.1912   13.1319  -27.5376 C   0  0  0  0  0  0  0  0  0  0  0  0
  -13.6547   14.1616  -26.7147 C   0  0  0  0  0  0  0  0  0  0  0  0
  -14.9030   14.0599  -26.1017 C   0  0  0  0  0  0  0  0  0  0  0  0
  -15.7169   12.9400  -26.3340 C   0  0  0  0  0  0  0  0  0  0  0  0
  -17.0205   12.9099  -25.7442 N   0  0  0  0  0  0  0  0  0  0  0  0
  -17.4101   13.6062  -24.5368 C   0  0  0  0  0  0  0  0  0  0  0  0
  -16.8361   14.8125  -24.2968 N   0  0  0  0  0  0  0  0  0  0  0  0
  -17.1721   15.5809  -23.2297 C   0  0  0  0  0  0  0  0  0  0  0  0
  -16.5514   16.8563  -23.0535 N   0  0  0  0  0  0  0  0  0  0  0  0
  -15.7704   17.5402  -24.0575 C   0  0  0  0  0  0  0  0  0  0  0  0
  -15.3682   18.8791  -23.9019 C   0  0  0  0  0  0  0  0  0  0  0  0
  -14.6770   19.5296  -24.9322 C   0  0  0  0  0  0  0  0  0  0  0  0
  -14.3678   18.8554  -26.1238 C   0  0  0  0  0  0  0  0  0  0  0  0
  -13.6017   19.4620  -27.1502 O   0  0  0  0  0  0  0  0  0  0  0  0
  -13.1882   18.8418  -28.3737 C   0  0  0  0  0  0  0  0  0  0  0  0
  -12.2500   17.6979  -28.0732 C   0  0  0  0  0  0  0  0  0  0  0  0
  -12.1207   17.2972  -26.8806 O   0  0  0  0  0  0  0  0  0  0  0  0
  -11.5109   17.0392  -29.1285 N   0  0  0  0  0  0  0  0  0  0  0  0
  -11.4845   15.5718  -29.1820 C   0  0  0  0  0  0  0  0  0  0  0  0
  -10.0688   15.0811  -29.4466 C   0  0  0  0  0  0  0  0  0  0  0  0
   -9.6010   15.6642  -30.6377 O   0  0  0  0  0  0  0  0  0  0  0  0
   -9.3231   17.0323  -30.4448 C   0  0  0  0  0  0  0  0  0  0  0  0
  -10.4440   17.8467  -29.7432 C   0  0  0  0  0  0  0  0  0  0  0  0
  -14.7987   17.5298  -26.2909 C   0  0  0  0  0  0  0  0  0  0  0  0
  -15.5001   16.8787  -25.2660 C   0  0  0  0  0  0  0  0  0  0  0  0
  -18.0966   15.1296  -22.3427 N   0  0  0  0  0  0  0  0  0  0  0  0
  -18.7036   13.9321  -22.5158 C   0  0  0  0  0  0  0  0  0  0  0  0
  -18.3835   13.1249  -23.6157 C   0  0  0  0  0  0  0  0  0  0  0  0
  -19.2918   11.6137  -23.7600 Cl  0  0  0  0  0  0  0  0  0  0  0  0
  1  2  2  0
  2  3  1  0
  2  5  1  0
  3  4  1  0
  5  6  2  0
  6  7  1  0
  7  8  2  0
  8  9  1  0
  9 10  2  0
 10 11  1  0
 10  5  1  0
 11 12  1  0
 12 13  2  0
 13 14  1  0
 14 15  1  0
 14 32  2  0
 15 16  1  0
 16 17  2  0
 17 18  1  0
 18 19  2  0
 19 20  1  0
 19 30  1  0
 20 21  1  0
 21 22  1  0
 22 23  2  0
 22 24  1  0
 24 25  1  0
 25 26  1  0
 26 27  1  0
 27 28  1  0
 28 29  1  0
 29 24  1  0
 30 31  2  0
 31 16  1  0
 32 33  1  0
 33 34  2  0
 34 35  1  0
 34 12  1  0
M  END
$$$$
CHEMBL3133894_plants_01
     RDKit          3D

 22 24  0  0  0  0  0  0  0  0999 V2000
  -17.5751    9.4331  -27.4040 C   0  0  0  0  0  0  0  0  0  0  0  0
  -16.9425   10.4465  -26.8150 C   0  0  0  0  0  0  0  0  0  0  0  0
  -15.6930   11.0320  -27.3356 C   0  0  0  0  0  0  0  0  0  0  0  0
  -15.1469   10.4906  -28.3341 O   0  0  0  0  0  0  0  0  0  0  0  0
  -15.0672   12.1598  -26.6992 N   0  0  0  0  0  0  0  0  0  0  0  0
  -14.1053   13.0049  -27.3541 C   0  0  0  0  0  0  0  0  0  0  0  0
  -13.2110   12.4427  -28.2735 C   0  0  0  0  0  0  0  0  0  0  0  0
  -12.2573   13.2372  -28.9091 C   0  0  0  0  0  0  0  0  0  0  0  0
  -12.1813   14.6047  -28.6309 C   0  0  0  0  0  0  0  0  0  0  0  0
  -11.2414   15.3599  -29.2533 N   0  0  0  0  0  0  0  0  0  0  0  0
  -11.1315   16.6861  -29.0023 C   0  0  0  0  0  0  0  0  0  0  0  0
  -11.9742   17.2843  -28.1254 N   0  0  0  0  0  0  0  0  0  0  0  0
  -12.9472   16.5923  -27.4679 C   0  0  0  0  0  0  0  0  0  0  0  0
  -13.8245   17.3260  -26.5797 N   0  0  0  0  0  0  0  0  0  0  0  0
  -13.6154   18.8088  -26.5087 C   0  0  0  0  0  0  0  0  0  0  0  0
  -14.7958   19.7104  -27.0099 C   0  0  0  0  0  0  0  0  0  0  0  0
  -15.6306   20.2689  -25.8521 C   0  0  0  0  0  0  0  0  0  0  0  0
  -14.7817   21.1460  -24.9089 C   0  0  0  0  0  0  0  0  0  0  0  0
  -13.2948   20.7401  -24.8645 C   0  0  0  0  0  0  0  0  0  0  0  0
  -13.1161   19.2371  -25.0995 C   0  0  0  0  0  0  0  0  0  0  0  0
  -13.0687   15.1961  -27.7001 C   0  0  0  0  0  0  0  0  0  0  0  0
  -14.0126   14.3750  -27.0497 C   0  0  0  0  0  0  0  0  0  0  0  0
  1  2  2  0
  2  3  1  0
  3  4  2  0
  3  5  1  0
  5  6  1  0
  6  7  2  0
  7  8  1  0
  8  9  2  0
  9 10  1  0
 10 11  2  0
 11 12  1  0
 12 13  2  0
 13 14  1  0
 13 21  1  0
 14 15  1  0
 15 16  1  0
 16 17  1  0
 17 18  1  0
 18 19  1  0
 19 20  1  0
 20 15  1  0
 21 22  2  0
 21  9  1  0
 22  6  1  0
M  END
$$$$
CHEMBL3133894_plants_02
     RDKit          3D

 22 24  0  0  0  0  0  0  0  0999 V2000
  -16.7202   19.9839  -24.1864 C   0  0  0  0  0  0  0  0  0  0  0  0
  -15.9873   20.3670  -25.2305 C   0  0  0  0  0  0  0  0  0  0  0  0
  -15.3646   19.4187  -26.1730 C   0  0  0  0  0  0  0  0  0  0  0  0
  -14.8071   19.8779  -27.2058 O   0  0  0  0  0  0  0  0  0  0  0  0
  -15.4298   17.9971  -25.9647 N   0  0  0  0  0  0  0  0  0  0  0  0
  -14.5384   17.0628  -26.5977 C   0  0  0  0  0  0  0  0  0  0  0  0
  -13.3683   17.5343  -27.2057 C   0  0  0  0  0  0  0  0  0  0  0  0
  -12.4961   16.6513  -27.8413 C   0  0  0  0  0  0  0  0  0  0  0  0
  -12.7838   15.2842  -27.8821 C   0  0  0  0  0  0  0  0  0  0  0  0
  -11.9272   14.4416  -28.5122 N   0  0  0  0  0  0  0  0  0  0  0  0
  -12.1771   13.1124  -28.5801 C   0  0  0  0  0  0  0  0  0  0  0  0
  -13.2921   12.5999  -28.0046 N   0  0  0  0  0  0  0  0  0  0  0  0
  -14.1946   13.3829  -27.3486 C   0  0  0  0  0  0  0  0  0  0  0  0
  -15.3357   12.7388  -26.7322 N   0  0  0  0  0  0  0  0  0  0  0  0
  -15.4142   11.2477  -26.8659 C   0  0  0  0  0  0  0  0  0  0  0  0
  -16.5773   10.5327  -26.0955 C   0  0  0  0  0  0  0  0  0  0  0  0
  -17.7528   10.1835  -27.0151 C   0  0  0  0  0  0  0  0  0  0  0  0
  -17.3261    9.2264  -28.1469 C   0  0  0  0  0  0  0  0  0  0  0  0
  -15.8469    9.3782  -28.5551 C   0  0  0  0  0  0  0  0  0  0  0  0
  -15.3550   10.8154  -28.3586 C   0  0  0  0  0  0  0  0  0  0  0  0
  -13.9636   14.7830  -27.2817 C   0  0  0  0  0  0  0  0  0  0  0  0
  -14.8460   15.6918  -26.6621 C   0  0  0  0  0  0  0  0  0  0  0  0
  1  2  2  0
  2  3  1  0
  3  4  2  0
  3  5  1  0
  5  6  1  0
  6  7  2  0
  7  8  1  0
  8  9  2  0
  9 10  1  0
 10 11  2  0
 11 12  1  0
 12 13  2  0
 13 14  1  0
 13 21  1  0
 14 15  1  0
 15 16  1  0
 16 17  1  0
 17 18  1  0
 18 19  1  0
 19 20  1  0
 20 15  1  0
 21 22  2  0
 21  9  1  0
 22  6  1  0
M  END
$$$$
CHEMBL3133894_plants_03
     RDKit          3D

 22 24  0  0  0  0  0  0  0  0999 V2000
  -10.2921   17.0142  -31.9343 C   0  0  0  0  0  0  0  0  0  0  0  0
  -10.4924   17.5180  -30.7176 C   0  0  0  0  0  0  0  0  0  0  0  0
  -11.1356   16.7634  -29.6257 C   0  0  0  0  0  0  0  0  0  0  0  0
  -11.4484   17.3810  -28.5726 O   0  0  0  0  0  0  0  0  0  0  0  0
  -11.3582   15.3456  -29.7191 N   0  0  0  0  0  0  0  0  0  0  0  0
  -12.3044   14.6374  -28.8996 C   0  0  0  0  0  0  0  0  0  0  0  0
  -12.2877   13.2371  -28.8858 C   0  0  0  0  0  0  0  0  0  0  0  0
  -13.2057   12.5265  -28.1133 C   0  0  0  0  0  0  0  0  0  0  0  0
  -14.1567   13.2058  -27.3469 C   0  0  0  0  0  0  0  0  0  0  0  0
  -15.0468   12.4969  -26.6079 N   0  0  0  0  0  0  0  0  0  0  0  0
  -15.9883   13.1201  -25.8603 C   0  0  0  0  0  0  0  0  0  0  0  0
  -16.0476   14.4739  -25.8319 N   0  0  0  0  0  0  0  0  0  0  0  0
  -15.1831   15.2524  -26.5420 C   0  0  0  0  0  0  0  0  0  0  0  0
  -15.2999   16.6904  -26.4173 N   0  0  0  0  0  0  0  0  0  0  0  0
  -14.0289   17.4449  -26.1672 C   0  0  0  0  0  0  0  0  0  0  0  0
  -13.8067   18.7478  -27.0102 C   0  0  0  0  0  0  0  0  0  0  0  0
  -14.1370   20.0159  -26.2150 C   0  0  0  0  0  0  0  0  0  0  0  0
  -13.2479   20.1502  -24.9618 C   0  0  0  0  0  0  0  0  0  0  0  0
  -12.7828   18.7958  -24.3900 C   0  0  0  0  0  0  0  0  0  0  0  0
  -13.8153   17.6939  -24.6470 C   0  0  0  0  0  0  0  0  0  0  0  0
  -14.1995   14.6207  -27.3492 C   0  0  0  0  0  0  0  0  0  0  0  0
  -13.2786   15.3240  -28.1527 C   0  0  0  0  0  0  0  0  0  0  0  0
  1  2  2  0
  2  3  1  0
  3  4  2  0
  3  5  1  0
  5  6  1  0
  6  7  2  0
  7  8  1  0
  8  9  2  0
  9 10  1  0
 10 11  2  0
 11 12  1  0
 12 13  2  0
 13 14  1  0
 13 21  1  0
 14 15  1  0
 15 16  1  0
 16 17  1  0
 17 18  1  0
 18 19  1  0
 19 20  1  0
 20 15  1  0
 21 22  2  0
 21  9  1  0
 22  6  1  0
M  END
$$$$
CHEMBL3133894_plants_04
     RDKit          3D

 22 24  0  0  0  0  0  0  0  0999 V2000
  -16.6034   20.2259  -23.8607 C   0  0  0  0  0  0  0  0  0  0  0  0
  -15.8764   20.4481  -24.9544 C   0  0  0  0  0  0  0  0  0  0  0  0
  -15.4193   19.3724  -25.8540 C   0  0  0  0  0  0  0  0  0  0  0  0
  -14.7597   19.6883  -26.8804 O   0  0  0  0  0  0  0  0  0  0  0  0
  -15.7556   17.9950  -25.6130 N   0  0  0  0  0  0  0  0  0  0  0  0
  -15.0399   16.8920  -26.1955 C   0  0  0  0  0  0  0  0  0  0  0  0
  -15.5228   15.5896  -26.0176 C   0  0  0  0  0  0  0  0  0  0  0  0
  -14.8380   14.5014  -26.5574 C   0  0  0  0  0  0  0  0  0  0  0  0
  -13.6578   14.6996  -27.2792 C   0  0  0  0  0  0  0  0  0  0  0  0
  -13.0012   13.6276  -27.7900 N   0  0  0  0  0  0  0  0  0  0  0  0
  -11.8501   13.7797  -28.4868 C   0  0  0  0  0  0  0  0  0  0  0  0
  -11.3394   15.0179  -28.6943 N   0  0  0  0  0  0  0  0  0  0  0  0
  -11.9464   16.1416  -28.2181 C   0  0  0  0  0  0  0  0  0  0  0  0
  -11.3459   17.4232  -28.5241 N   0  0  0  0  0  0  0  0  0  0  0  0
  -10.4383   17.4682  -29.7165 C   0  0  0  0  0  0  0  0  0  0  0  0
   -9.0739   16.7065  -29.5911 C   0  0  0  0  0  0  0  0  0  0  0  0
   -9.1070   15.3402  -30.2850 C   0  0  0  0  0  0  0  0  0  0  0  0
   -9.3945   15.4746  -31.7945 C   0  0  0  0  0  0  0  0  0  0  0  0
  -10.2414   16.7128  -32.1510 C   0  0  0  0  0  0  0  0  0  0  0  0
  -11.2010   17.0823  -31.0157 C   0  0  0  0  0  0  0  0  0  0  0  0
  -13.1445   16.0053  -27.4671 C   0  0  0  0  0  0  0  0  0  0  0  0
  -13.8369   17.0929  -26.8962 C   0  0  0  0  0  0  0  0  0  0  0  0
  1  2  2  0
  2  3  1  0
  3  4  2  0
  3  5  1  0
  5  6  1  0
  6  7  2  0
  7  8  1  0
  8  9  2  0
  9 10  1  0
 10 11  2  0
 11 12  1  0
 12 13  2  0
 13 14  1  0
 13 21  1  0
 14 15  1  0
 15 16  1  0
 16 17  1  0
 17 18  1  0
 18 19  1  0
 19 20  1  0
 20 15  1  0
 21 22  2  0
 21  9  1  0
 22  6  1  0
M  END
$$$$
CHEMBL3133894_plants_05
     RDKit          3D

 22 24  0  0  0  0  0  0  0  0999 V2000
  -15.2326   21.1095  -25.1929 C   0  0  0  0  0  0  0  0  0  0  0  0
  -15.0273   19.7950  -25.1285 C   0  0  0  0  0  0  0  0  0  0  0  0
  -14.4605   19.0095  -26.2408 C   0  0  0  0  0  0  0  0  0  0  0  0
  -14.2800   19.5821  -27.3489 O   0  0  0  0  0  0  0  0  0  0  0  0
  -14.1661   17.6087  -26.1005 N   0  0  0  0  0  0  0  0  0  0  0  0
  -13.2736   16.8962  -26.9744 C   0  0  0  0  0  0  0  0  0  0  0  0
  -12.4120   17.6163  -27.8113 C   0  0  0  0  0  0  0  0  0  0  0  0
  -11.5493   16.9494  -28.6805 C   0  0  0  0  0  0  0  0  0  0  0  0
  -11.5388   15.5527  -28.7287 C   0  0  0  0  0  0  0  0  0  0  0  0
  -10.6981   14.9219  -29.5867 N   0  0  0  0  0  0  0  0  0  0  0  0
  -10.6665   13.5706  -29.6678 C   0  0  0  0  0  0  0  0  0  0  0  0
  -11.4748   12.8228  -28.8776 N   0  0  0  0  0  0  0  0  0  0  0  0
  -12.3400   13.3853  -27.9871 C   0  0  0  0  0  0  0  0  0  0  0  0
  -13.1351   12.5033  -27.1584 N   0  0  0  0  0  0  0  0  0  0  0  0
  -14.6231   12.6033  -27.3120 C   0  0  0  0  0  0  0  0  0  0  0  0
  -15.3938   11.2652  -27.5821 C   0  0  0  0  0  0  0  0  0  0  0  0
  -16.0563   10.7121  -26.3154 C   0  0  0  0  0  0  0  0  0  0  0  0
  -17.0883   11.7004  -25.7342 C   0  0  0  0  0  0  0  0  0  0  0  0
  -16.7642   13.1769  -26.0383 C   0  0  0  0  0  0  0  0  0  0  0  0
  -15.2539   13.4102  -26.1417 C   0  0  0  0  0  0  0  0  0  0  0  0
  -12.4050   14.8016  -27.8985 C   0  0  0  0  0  0  0  0  0  0  0  0
  -13.2868   15.4912  -27.0411 C   0  0  0  0  0  0  0  0  0  0  0  0
  1  2  2  0
  2  3  1  0
  3  4  2  0
  3  5  1  0
  5  6  1  0
  6  7  2  0
  7  8  1  0
  8  9  2  0
  9 10  1  0
 10 11  2  0
 11 12  1  0
 12 13  2  0
 13 14  1  0
 13 21  1  0
 14 15  1  0
 15 16  1  0
 16 17  1  0
 17 18  1  0
 18 19  1  0
 19 20  1  0
 20 15  1  0
 21 22  2  0
 21  9  1  0
 22  6  1  0
M  END
$$$$
CHEMBL3133894_plants_06
     RDKit          3D

 22 24  0  0  0  0  0  0  0  0999 V2000
  -15.8518    9.0705  -29.1527 C   0  0  0  0  0  0  0  0  0  0  0  0
  -16.3948    9.8519  -28.2207 C   0  0  0  0  0  0  0  0  0  0  0  0
  -15.6787   10.9772  -27.5912 C   0  0  0  0  0  0  0  0  0  0  0  0
  -14.4964   11.2158  -27.9567 O   0  0  0  0  0  0  0  0  0  0  0  0
  -16.2780   11.7602  -26.5442 N   0  0  0  0  0  0  0  0  0  0  0  0
  -15.8183   13.0719  -26.1749 C   0  0  0  0  0  0  0  0  0  0  0  0
  -16.3830   13.7095  -25.0633 C   0  0  0  0  0  0  0  0  0  0  0  0
  -15.9672   14.9885  -24.6947 C   0  0  0  0  0  0  0  0  0  0  0  0
  -14.9837   15.6502  -25.4351 C   0  0  0  0  0  0  0  0  0  0  0  0
  -14.5980   16.8975  -25.0656 N   0  0  0  0  0  0  0  0  0  0  0  0
  -13.6548   17.5732  -25.7639 C   0  0  0  0  0  0  0  0  0  0  0  0
  -13.0705   17.0025  -26.8455 N   0  0  0  0  0  0  0  0  0  0  0  0
  -13.4012   15.7510  -27.2722 C   0  0  0  0  0  0  0  0  0  0  0  0
  -12.6942   15.2106  -28.4146 N   0  0  0  0  0  0  0  0  0  0  0  0
  -11.3500   15.8048  -28.7107 C   0  0  0  0  0  0  0  0  0  0  0  0
  -10.4525   15.0360  -29.7407 C   0  0  0  0  0  0  0  0  0  0  0  0
  -10.4936   15.6730  -31.1342 C   0  0  0  0  0  0  0  0  0  0  0  0
   -9.9823   17.1281  -31.1108 C   0  0  0  0  0  0  0  0  0  0  0  0
  -10.2138   17.8392  -29.7624 C   0  0  0  0  0  0  0  0  0  0  0  0
  -11.4702   17.3155  -29.0600 C   0  0  0  0  0  0  0  0  0  0  0  0
  -14.4024   15.0307  -26.5673 C   0  0  0  0  0  0  0  0  0  0  0  0
  -14.8494   13.7463  -26.9397 C   0  0  0  0  0  0  0  0  0  0  0  0
  1  2  2  0
  2  3  1  0
  3  4  2  0
  3  5  1  0
  5  6  1  0
  6  7  2  0
  7  8  1  0
  8  9  2  0
  9 10  1  0
 10 11  2  0
 11 12  1  0
 12 13  2  0
 13 14  1  0
 13 21  1  0
 14 15  1  0
 15 16  1  0
 16 17  1  0
 17 18  1  0
 18 19  1  0
 19 20  1  0
 20 15  1  0
 21 22  2  0
 21  9  1  0
 22  6  1  0
M  END
$$$$
CHEMBL3133894_plants_07
     RDKit          3D

 22 24  0  0  0  0  0  0  0  0999 V2000
  -10.6036   16.7196  -32.2362 C   0  0  0  0  0  0  0  0  0  0  0  0
   -9.8761   17.0820  -31.1810 C   0  0  0  0  0  0  0  0  0  0  0  0
  -10.3065   16.8612  -29.7877 C   0  0  0  0  0  0  0  0  0  0  0  0
   -9.5895   17.3200  -28.8583 O   0  0  0  0  0  0  0  0  0  0  0  0
  -11.4831   16.0955  -29.4750 N   0  0  0  0  0  0  0  0  0  0  0  0
  -12.1645   16.1722  -28.2108 C   0  0  0  0  0  0  0  0  0  0  0  0
  -11.8869   17.2371  -27.3449 C   0  0  0  0  0  0  0  0  0  0  0  0
  -12.5210   17.3252  -26.1060 C   0  0  0  0  0  0  0  0  0  0  0  0
  -13.4386   16.3470  -25.7133 C   0  0  0  0  0  0  0  0  0  0  0  0
  -14.0394   16.4455  -24.5008 N   0  0  0  0  0  0  0  0  0  0  0  0
  -14.9268   15.5121  -24.0823 C   0  0  0  0  0  0  0  0  0  0  0  0
  -15.2373   14.4624  -24.8816 N   0  0  0  0  0  0  0  0  0  0  0  0
  -14.6798   14.3005  -26.1148 C   0  0  0  0  0  0  0  0  0  0  0  0
  -15.1036   13.1682  -26.9117 N   0  0  0  0  0  0  0  0  0  0  0  0
  -15.8501   12.0860  -26.1912 C   0  0  0  0  0  0  0  0  0  0  0  0
  -17.1237   12.5241  -25.3890 C   0  0  0  0  0  0  0  0  0  0  0  0
  -18.4195   12.2294  -26.1528 C   0  0  0  0  0  0  0  0  0  0  0  0
  -18.5816   10.7226  -26.4397 C   0  0  0  0  0  0  0  0  0  0  0  0
  -17.2399    9.9744  -26.5729 C   0  0  0  0  0  0  0  0  0  0  0  0
  -16.1431   10.8845  -27.1342 C   0  0  0  0  0  0  0  0  0  0  0  0
  -13.7313   15.2564  -26.5670 C   0  0  0  0  0  0  0  0  0  0  0  0
  -13.0653   15.1702  -27.8068 C   0  0  0  0  0  0  0  0  0  0  0  0
  1  2  2  0
  2  3  1  0
  3  4  2  0
  3  5  1  0
  5  6  1  0
  6  7  2  0
  7  8  1  0
  8  9  2  0
  9 10  1  0
 10 11  2  0
 11 12  1  0
 12 13  2  0
 13 14  1  0
 13 21  1  0
 14 15  1  0
 15 16  1  0
 16 17  1  0
 17 18  1  0
 18 19  1  0
 19 20  1  0
 20 15  1  0
 21 22  2  0
 21  9  1  0
 22  6  1  0
M  END
$$$$
CHEMBL3133894_plants_08
     RDKit          3D

 22 24  0  0  0  0  0  0  0  0999 V2000
  -13.6967   20.6604  -25.8257 C   0  0  0  0  0  0  0  0  0  0  0  0
  -14.8477   20.0109  -25.6593 C   0  0  0  0  0  0  0  0  0  0  0  0
  -14.9635   18.5419  -25.7205 C   0  0  0  0  0  0  0  0  0  0  0  0
  -16.0936   18.0202  -25.5223 O   0  0  0  0  0  0  0  0  0  0  0  0
  -13.8160   17.7044  -25.9445 N   0  0  0  0  0  0  0  0  0  0  0  0
  -13.9063   16.3434  -26.4005 C   0  0  0  0  0  0  0  0  0  0  0  0
  -14.9791   15.5480  -25.9791 C   0  0  0  0  0  0  0  0  0  0  0  0
  -15.0804   14.2202  -26.3928 C   0  0  0  0  0  0  0  0  0  0  0  0
  -14.1079   13.6673  -27.2305 C   0  0  0  0  0  0  0  0  0  0  0  0
  -14.2194   12.3711  -27.6160 N   0  0  0  0  0  0  0  0  0  0  0  0
  -13.2919   11.7984  -28.4194 C   0  0  0  0  0  0  0  0  0  0  0  0
  -12.2352   12.5227  -28.8620 N   0  0  0  0  0  0  0  0  0  0  0  0
  -12.0602   13.8311  -28.5227 C   0  0  0  0  0  0  0  0  0  0  0  0
  -10.9211   14.5330  -29.0765 N   0  0  0  0  0  0  0  0  0  0  0  0
  -11.1935   15.8786  -29.6787 C   0  0  0  0  0  0  0  0  0  0  0  0
  -10.7677   17.1274  -28.8320 C   0  0  0  0  0  0  0  0  0  0  0  0
   -9.4417   17.7280  -29.3117 C   0  0  0  0  0  0  0  0  0  0  0  0
   -9.5282   18.2031  -30.7766 C   0  0  0  0  0  0  0  0  0  0  0  0
  -10.5411   17.4056  -31.6226 C   0  0  0  0  0  0  0  0  0  0  0  0
  -10.6605   15.9576  -31.1375 C   0  0  0  0  0  0  0  0  0  0  0  0
  -13.0097   14.4478  -27.6647 C   0  0  0  0  0  0  0  0  0  0  0  0
  -12.9102   15.7820  -27.2197 C   0  0  0  0  0  0  0  0  0  0  0  0
  1  2  2  0
  2  3  1  0
  3  4  2  0
  3  5  1  0
  5  6  1  0
  6  7  2  0
  7  8  1  0
  8  9  2  0
  9 10  1  0
 10 11  2  0
 11 12  1  0
 12 13  2  0
 13 14  1  0
 13 21  1  0
 14 15  1  0
 15 16  1  0
 16 17  1  0
 17 18  1  0
 18 19  1  0
 19 20  1  0
 20 15  1  0
 21 22  2  0
 21  9  1  0
 22  6  1  0
M  END
$$$$
CHEMBL3133894_plants_09
     RDKit          3D

 22 24  0  0  0  0  0  0  0  0999 V2000
   -9.2597   16.0611  -29.8909 C   0  0  0  0  0  0  0  0  0  0  0  0
   -9.3980   14.7367  -29.8594 C   0  0  0  0  0  0  0  0  0  0  0  0
  -10.6452   14.0633  -29.4516 C   0  0  0  0  0  0  0  0  0  0  0  0
  -10.7243   12.8129  -29.5880 O   0  0  0  0  0  0  0  0  0  0  0  0
  -11.7755   14.8044  -28.9599 N   0  0  0  0  0  0  0  0  0  0  0  0
  -12.8386   14.2110  -28.1944 C   0  0  0  0  0  0  0  0  0  0  0  0
  -13.2394   12.8995  -28.4780 C   0  0  0  0  0  0  0  0  0  0  0  0
  -14.2793   12.3073  -27.7621 C   0  0  0  0  0  0  0  0  0  0  0  0
  -14.9365   13.0197  -26.7553 C   0  0  0  0  0  0  0  0  0  0  0  0
  -15.9514   12.4294  -26.0752 N   0  0  0  0  0  0  0  0  0  0  0  0
  -16.6174   13.0915  -25.0996 C   0  0  0  0  0  0  0  0  0  0  0  0
  -16.2685   14.3614  -24.7794 N   0  0  0  0  0  0  0  0  0  0  0  0
  -15.2556   15.0167  -25.4137 C   0  0  0  0  0  0  0  0  0  0  0  0
  -14.9307   16.3580  -24.9751 N   0  0  0  0  0  0  0  0  0  0  0  0
  -15.5264   17.4827  -25.7674 C   0  0  0  0  0  0  0  0  0  0  0  0
  -16.2039   18.6367  -24.9508 C   0  0  0  0  0  0  0  0  0  0  0  0
  -15.2956   19.8644  -24.8196 C   0  0  0  0  0  0  0  0  0  0  0  0
  -14.9368   20.4575  -26.1976 C   0  0  0  0  0  0  0  0  0  0  0  0
  -14.9198   19.4122  -27.3311 C   0  0  0  0  0  0  0  0  0  0  0  0
  -14.5133   18.0292  -26.8131 C   0  0  0  0  0  0  0  0  0  0  0  0
  -14.5556   14.3494  -26.4542 C   0  0  0  0  0  0  0  0  0  0  0  0
  -13.5170   14.9413  -27.2020 C   0  0  0  0  0  0  0  0  0  0  0  0
  1  2  2  0
  2  3  1  0
  3  4  2  0
  3  5  1  0
  5  6  1  0
  6  7  2  0
  7  8  1  0
  8  9  2  0
  9 10  1  0
 10 11  2  0
 11 12  1  0
 12 13  2  0
 13 14  1  0
 13 21  1  0
 14 15  1  0
 15 16  1  0
 16 17  1  0
 17 18  1  0
 18 19  1  0
 19 20  1  0
 20 15  1  0
 21 22  2  0
 21  9  1  0
 22  6  1  0
M  END
$$$$
CHEMBL3133894_plants_10
     RDKit          3D

 22 24  0  0  0  0  0  0  0  0999 V2000
  -10.6738   13.9428  -29.4526 C   0  0  0  0  0  0  0  0  0  0  0  0
  -11.7731   13.1919  -29.4102 C   0  0  0  0  0  0  0  0  0  0  0  0
  -12.6359   13.0876  -28.2185 C   0  0  0  0  0  0  0  0  0  0  0  0
  -12.3978   13.8420  -27.2374 O   0  0  0  0  0  0  0  0  0  0  0  0
  -13.6935   12.1163  -28.1368 N   0  0  0  0  0  0  0  0  0  0  0  0
  -14.7905   12.2167  -27.2122 C   0  0  0  0  0  0  0  0  0  0  0  0
  -15.6884   11.1486  -27.0938 C   0  0  0  0  0  0  0  0  0  0  0  0
  -16.7702   11.2279  -26.2175 C   0  0  0  0  0  0  0  0  0  0  0  0
  -16.9723   12.3784  -25.4502 C   0  0  0  0  0  0  0  0  0  0  0  0
  -18.0352   12.4400  -24.6090 N   0  0  0  0  0  0  0  0  0  0  0  0
  -18.2685   13.5416  -23.8568 C   0  0  0  0  0  0  0  0  0  0  0  0
  -17.4290   14.6033  -23.9271 N   0  0  0  0  0  0  0  0  0  0  0  0
  -16.3375   14.6115  -24.7433 C   0  0  0  0  0  0  0  0  0  0  0  0
  -15.4775   15.7764  -24.7208 N   0  0  0  0  0  0  0  0  0  0  0  0
  -15.1050   16.3578  -26.0515 C   0  0  0  0  0  0  0  0  0  0  0  0
  -15.6908   17.7719  -26.3902 C   0  0  0  0  0  0  0  0  0  0  0  0
  -14.6677   18.8914  -26.1677 C   0  0  0  0  0  0  0  0  0  0  0  0
  -13.4220   18.7102  -27.0592 C   0  0  0  0  0  0  0  0  0  0  0  0
  -13.1204   17.2374  -27.4019 C   0  0  0  0  0  0  0  0  0  0  0  0
  -13.5677   16.2968  -26.2787 C   0  0  0  0  0  0  0  0  0  0  0  0
  -16.0835   13.4749  -25.5567 C   0  0  0  0  0  0  0  0  0  0  0  0
  -15.0073   13.3876  -26.4635 C   0  0  0  0  0  0  0  0  0  0  0  0
  1  2  2  0
  2  3  1  0
  3  4  2  0
  3  5  1  0
  5  6  1  0
  6  7  2  0
  7  8  1  0
  8  9  2  0
  9 10  1  0
 10 11  2  0
 11 12  1  0
 12 13  2  0
 13 14  1  0
 13 21  1  0
 14 15  1  0
 15 16  1  0
 16 17  1  0
 17 18  1  0
 18 19  1  0
 19 20  1  0
 20 15  1  0
 21 22  2  0
 21  9  1  0
 22  6  1  0
M  END
$$$$
