HIPS6989


 37 40  0  0  0  0  0  0  0  0999 V2000
   86.7346   89.0194   87.7802 C   0  0  0  0  0  0  0  0  0  0  0  0
   86.2205   90.2328   88.2737 C   0  0  0  0  0  0  0  0  0  0  0  0
   86.9858   91.0378   89.1217 C   0  0  0  0  0  0  0  0  0  0  0  0
   88.2658   90.6340   89.5045 C   0  0  0  0  0  0  0  0  0  0  0  0
   88.7931   89.4151   89.0335 C   0  0  0  0  0  0  0  0  0  0  0  0
   88.0403   88.6328   88.1404 C   0  0  0  0  0  0  0  0  0  0  0  0
   90.1068   88.9383   89.5100 C   0  0  0  0  0  0  0  0  0  0  0  0
   91.2625   89.7141   89.3327 C   0  0  0  0  0  0  0  0  0  0  0  0
   92.4998   89.2448   89.7791 C   0  0  0  0  0  0  0  0  0  0  0  0
   92.5925   88.0008   90.4116 C   0  0  0  0  0  0  0  0  0  0  0  0
   91.4458   87.2313   90.6217 C   0  0  0  0  0  0  0  0  0  0  0  0
   90.2063   87.6922   90.1518 C   0  0  0  0  0  0  0  0  0  0  0  0
   91.5695   85.9845   91.2502 O   0  0  0  0  0  0  0  0  0  0  0  0
   91.5814   84.7442   90.5927 C   0  0  0  0  0  0  0  0  0  0  0  0
   90.8896   83.6712   91.1628 C   0  0  0  0  0  0  0  0  0  0  0  0
   90.8333   82.4347   90.5161 C   0  0  0  0  0  0  0  0  0  0  0  0
   91.4912   82.2426   89.2903 C   0  0  0  0  0  0  0  0  0  0  0  0
   92.1668   83.3236   88.7006 C   0  0  0  0  0  0  0  0  0  0  0  0
   92.2135   84.5643   89.3483 C   0  0  0  0  0  0  0  0  0  0  0  0
   91.4014   80.9280   88.5535 C   0  0  0  0  0  0  0  0  0  0  0  0
   91.8573   81.0556   87.2543 F   0  0  0  0  0  0  0  0  0  0  0  0
   92.1735   79.9806   89.2082 F   0  0  0  0  0  0  0  0  0  0  0  0
   90.0867   80.4913   88.5148 F   0  0  0  0  0  0  0  0  0  0  0  0
   85.8783   88.2036   86.8347 C   0  0  0  0  0  0  0  0  0  0  0  0
   85.1912   87.1273   87.4673 O   0  0  0  0  0  0  0  0  0  0  0  0
   85.9864   85.7478   90.8586 C   0  0  0  0  0  0  0  0  0  0  0  0
   86.0576   85.9861   89.4718 C   0  0  0  0  0  0  0  0  0  0  0  0
   85.1574   86.8677   88.8473 C   0  0  0  0  0  0  0  0  0  0  0  0
   84.1813   87.5061   89.6151 C   0  0  0  0  0  0  0  0  0  0  0  0
   84.0882   87.2591   90.9820 C   0  0  0  0  0  0  0  0  0  0  0  0
   84.9677   86.3794   91.6148 C   0  0  0  0  0  0  0  0  0  0  0  0
   84.7815   86.1455   92.9783 O   0  0  0  0  0  0  0  0  0  0  0  0
   84.0946   86.5853   93.4396 H   0  0  0  0  0  0  0  0  0  0  0  0
   88.2246   85.0046   91.1395 O   0  0  0  0  0  0  0  0  0  0  0  0
   87.0168   84.8829   91.4746 C   0  0  0  0  0  0  0  0  0  0  0  0
   86.6859   83.9880   92.4822 O   0  0  0  0  0  0  0  0  0  0  0  0
   85.7917   83.8859   92.7431 H   0  0  0  0  0  0  0  0  0  0  0  0
 34 35  2  0  0  0
 35 36  1  0  0  0
 35 26  1  0  0  0
 26 27  2  0  0  0
 27 28  1  0  0  0
 28 25  1  0  0  0
 25 24  1  0  0  0
 24  1  1  0  0  0
  1  2  2  0  0  0
  2  3  1  0  0  0
  3  4  2  0  0  0
  4  5  1  0  0  0
  5  7  1  0  0  0
  7  8  2  0  0  0
  8  9  1  0  0  0
  9 10  2  0  0  0
 10 11  1  0  0  0
 11 13  1  0  0  0
 13 14  1  0  0  0
 14 15  2  0  0  0
 15 16  1  0  0  0
 16 17  2  0  0  0
 17 20  1  0  0  0
 20 21  1  0  0  0
 20 22  1  0  0  0
 20 23  1  0  0  0
 17 18  1  0  0  0
 18 19  2  0  0  0
 11 12  2  0  0  0
  5  6  2  0  0  0
 28 29  2  0  0  0
 29 30  1  0  0  0
 30 31  2  0  0  0
 31 32  1  0  0  0
 31 26  1  0  0  0
  6  1  1  0  0  0
 12  7  1  0  0  0
 19 14  1  0  0  0
 36 37  1  0  0  0
 32 33  1  0  0  0
M  END
> <Activity>
3.1

> <minimizedAffinity>
-9.54041

> <CNNscore>
0.6115580797

> <CNNaffinity>
6.7138633728

> <CNN_VS>
4.1059174538

$$$$
HIPS6989


 37 40  0  0  0  0  0  0  0  0999 V2000
   86.7258   87.2244   91.1649 C   0  0  0  0  0  0  0  0  0  0  0  0
   85.6214   87.3146   90.2976 C   0  0  0  0  0  0  0  0  0  0  0  0
   85.6222   88.2234   89.2360 C   0  0  0  0  0  0  0  0  0  0  0  0
   86.7156   89.0678   89.0373 C   0  0  0  0  0  0  0  0  0  0  0  0
   87.8250   89.0039   89.9038 C   0  0  0  0  0  0  0  0  0  0  0  0
   87.8421   88.0534   90.9396 C   0  0  0  0  0  0  0  0  0  0  0  0
   88.9417   89.9584   89.7556 C   0  0  0  0  0  0  0  0  0  0  0  0
   90.1703   89.5515   89.2135 C   0  0  0  0  0  0  0  0  0  0  0  0
   91.2209   90.4633   89.0899 C   0  0  0  0  0  0  0  0  0  0  0  0
   91.0516   91.7897   89.5001 C   0  0  0  0  0  0  0  0  0  0  0  0
   89.8245   92.2160   90.0136 C   0  0  0  0  0  0  0  0  0  0  0  0
   88.7766   91.2940   90.1601 C   0  0  0  0  0  0  0  0  0  0  0  0
   89.6859   93.5487   90.4251 O   0  0  0  0  0  0  0  0  0  0  0  0
   88.8153   93.9992   91.4303 C   0  0  0  0  0  0  0  0  0  0  0  0
   87.6071   94.5967   91.0589 C   0  0  0  0  0  0  0  0  0  0  0  0
   86.6900   95.0121   92.0268 C   0  0  0  0  0  0  0  0  0  0  0  0
   86.9775   94.8560   93.3926 C   0  0  0  0  0  0  0  0  0  0  0  0
   88.1786   94.2340   93.7713 C   0  0  0  0  0  0  0  0  0  0  0  0
   89.0916   93.8110   92.7973 C   0  0  0  0  0  0  0  0  0  0  0  0
   85.9783   95.2549   94.4515 C   0  0  0  0  0  0  0  0  0  0  0  0
   85.1837   96.2991   94.0153 F   0  0  0  0  0  0  0  0  0  0  0  0
   85.1682   94.1704   94.7508 F   0  0  0  0  0  0  0  0  0  0  0  0
   86.6374   95.6580   95.6021 F   0  0  0  0  0  0  0  0  0  0  0  0
   86.6893   86.1968   92.2763 C   0  0  0  0  0  0  0  0  0  0  0  0
   87.9717   85.8925   92.8184 O   0  0  0  0  0  0  0  0  0  0  0  0
   90.3590   83.2851   91.5782 C   0  0  0  0  0  0  0  0  0  0  0  0
   89.2882   83.8828   92.2718 C   0  0  0  0  0  0  0  0  0  0  0  0
   89.0248   85.2577   92.1395 C   0  0  0  0  0  0  0  0  0  0  0  0
   89.8408   86.0344   91.3143 C   0  0  0  0  0  0  0  0  0  0  0  0
   90.9154   85.4574   90.6432 C   0  0  0  0  0  0  0  0  0  0  0  0
   91.1960   84.0963   90.7718 C   0  0  0  0  0  0  0  0  0  0  0  0
   92.3185   83.6000   90.1069 O   0  0  0  0  0  0  0  0  0  0  0  0
   92.8444   84.1725   89.5838 H   0  0  0  0  0  0  0  0  0  0  0  0
   90.0473   81.1969   92.6659 O   0  0  0  0  0  0  0  0  0  0  0  0
   90.5310   81.8193   91.6838 C   0  0  0  0  0  0  0  0  0  0  0  0
   91.1506   81.1002   90.6715 O   0  0  0  0  0  0  0  0  0  0  0  0
   91.5155   81.5486   89.9341 H   0  0  0  0  0  0  0  0  0  0  0  0
 34 35  2  0  0  0
 35 36  1  0  0  0
 35 26  1  0  0  0
 26 27  2  0  0  0
 27 28  1  0  0  0
 28 25  1  0  0  0
 25 24  1  0  0  0
 24  1  1  0  0  0
  1  2  2  0  0  0
  2  3  1  0  0  0
  3  4  2  0  0  0
  4  5  1  0  0  0
  5  7  1  0  0  0
  7  8  2  0  0  0
  8  9  1  0  0  0
  9 10  2  0  0  0
 10 11  1  0  0  0
 11 13  1  0  0  0
 13 14  1  0  0  0
 14 15  2  0  0  0
 15 16  1  0  0  0
 16 17  2  0  0  0
 17 20  1  0  0  0
 20 21  1  0  0  0
 20 22  1  0  0  0
 20 23  1  0  0  0
 17 18  1  0  0  0
 18 19  2  0  0  0
 11 12  2  0  0  0
  5  6  2  0  0  0
 28 29  2  0  0  0
 29 30  1  0  0  0
 30 31  2  0  0  0
 31 32  1  0  0  0
 31 26  1  0  0  0
  6  1  1  0  0  0
 12  7  1  0  0  0
 19 14  1  0  0  0
 36 37  1  0  0  0
 32 33  1  0  0  0
M  END
> <Activity>
3.1

> <minimizedAffinity>
-9.51657

> <CNNscore>
0.5702345967

> <CNNaffinity>
6.5817804337

> <CNN_VS>
3.7531588078

$$$$
HIPS6989


 37 40  0  0  0  0  0  0  0  0999 V2000
   88.8211   90.5023   90.2862 C   0  0  0  0  0  0  0  0  0  0  0  0
   87.8240   90.6717   89.3078 C   0  0  0  0  0  0  0  0  0  0  0  0
   86.9045   89.6529   89.0444 C   0  0  0  0  0  0  0  0  0  0  0  0
   86.9794   88.4447   89.7391 C   0  0  0  0  0  0  0  0  0  0  0  0
   87.9799   88.2494   90.7121 C   0  0  0  0  0  0  0  0  0  0  0  0
   88.8712   89.2950   91.0100 C   0  0  0  0  0  0  0  0  0  0  0  0
   88.1225   86.9410   91.3814 C   0  0  0  0  0  0  0  0  0  0  0  0
   87.0574   86.3811   92.1032 C   0  0  0  0  0  0  0  0  0  0  0  0
   87.2110   85.1477   92.7402 C   0  0  0  0  0  0  0  0  0  0  0  0
   88.4264   84.4606   92.6565 C   0  0  0  0  0  0  0  0  0  0  0  0
   89.4852   84.9919   91.9164 C   0  0  0  0  0  0  0  0  0  0  0  0
   89.3387   86.2423   91.2964 C   0  0  0  0  0  0  0  0  0  0  0  0
   90.6947   84.2859   91.8571 O   0  0  0  0  0  0  0  0  0  0  0  0
   91.0153   83.3081   90.9019 C   0  0  0  0  0  0  0  0  0  0  0  0
   90.6217   81.9862   91.1308 C   0  0  0  0  0  0  0  0  0  0  0  0
   90.8754   80.9925   90.1829 C   0  0  0  0  0  0  0  0  0  0  0  0
   91.5514   81.3019   88.9914 C   0  0  0  0  0  0  0  0  0  0  0  0
   91.9272   82.6326   88.7448 C   0  0  0  0  0  0  0  0  0  0  0  0
   91.6631   83.6277   89.6942 C   0  0  0  0  0  0  0  0  0  0  0  0
   91.7918   80.2512   87.9345 C   0  0  0  0  0  0  0  0  0  0  0  0
   92.6793   79.2904   88.3832 F   0  0  0  0  0  0  0  0  0  0  0  0
   90.5905   79.6370   87.6154 F   0  0  0  0  0  0  0  0  0  0  0  0
   92.3187   80.8342   86.7929 F   0  0  0  0  0  0  0  0  0  0  0  0
   89.7684   91.6517   90.5584 C   0  0  0  0  0  0  0  0  0  0  0  0
   89.1219   92.9183   90.6506 O   0  0  0  0  0  0  0  0  0  0  0  0
   90.6790   95.4328   88.3508 C   0  0  0  0  0  0  0  0  0  0  0  0
   90.5467   94.3370   89.2264 C   0  0  0  0  0  0  0  0  0  0  0  0
   89.2946   93.9987   89.7697 C   0  0  0  0  0  0  0  0  0  0  0  0
   88.1752   94.7649   89.4379 C   0  0  0  0  0  0  0  0  0  0  0  0
   88.3002   95.8636   88.5922 C   0  0  0  0  0  0  0  0  0  0  0  0
   89.5375   96.2182   88.0527 C   0  0  0  0  0  0  0  0  0  0  0  0
   89.5924   97.3605   87.2522 O   0  0  0  0  0  0  0  0  0  0  0  0
   88.8123   97.8504   87.0808 H   0  0  0  0  0  0  0  0  0  0  0  0
   92.1447   95.6037   86.4899 O   0  0  0  0  0  0  0  0  0  0  0  0
   92.0022   95.6846   87.7385 C   0  0  0  0  0  0  0  0  0  0  0  0
   93.0796   96.0908   88.5129 O   0  0  0  0  0  0  0  0  0  0  0  0
   92.9897   96.1560   89.4433 H   0  0  0  0  0  0  0  0  0  0  0  0
 34 35  2  0  0  0
 35 36  1  0  0  0
 35 26  1  0  0  0
 26 27  2  0  0  0
 27 28  1  0  0  0
 28 25  1  0  0  0
 25 24  1  0  0  0
 24  1  1  0  0  0
  1  2  2  0  0  0
  2  3  1  0  0  0
  3  4  2  0  0  0
  4  5  1  0  0  0
  5  7  1  0  0  0
  7  8  2  0  0  0
  8  9  1  0  0  0
  9 10  2  0  0  0
 10 11  1  0  0  0
 11 13  1  0  0  0
 13 14  1  0  0  0
 14 15  2  0  0  0
 15 16  1  0  0  0
 16 17  2  0  0  0
 17 20  1  0  0  0
 20 21  1  0  0  0
 20 22  1  0  0  0
 20 23  1  0  0  0
 17 18  1  0  0  0
 18 19  2  0  0  0
 11 12  2  0  0  0
  5  6  2  0  0  0
 28 29  2  0  0  0
 29 30  1  0  0  0
 30 31  2  0  0  0
 31 32  1  0  0  0
 31 26  1  0  0  0
  6  1  1  0  0  0
 12  7  1  0  0  0
 19 14  1  0  0  0
 36 37  1  0  0  0
 32 33  1  0  0  0
M  END
> <Activity>
3.1

> <minimizedAffinity>
-8.21500

> <CNNscore>
0.5572164059

> <CNNaffinity>
6.0447359085

> <CNN_VS>
3.3682260513

$$$$
HIPS7002


 39 42  0  0  0  0  0  0  0  0999 V2000
   84.5675   87.1643   87.4860 C   0  0  0  0  0  0  0  0  0  0  0  0
   84.5907   86.2166   86.4519 C   0  0  0  0  0  0  0  0  0  0  0  0
   85.1715   84.9642   86.6598 C   0  0  0  0  0  0  0  0  0  0  0  0
   85.7255   84.6429   87.9012 C   0  0  0  0  0  0  0  0  0  0  0  0
   85.6979   85.5732   88.9549 C   0  0  0  0  0  0  0  0  0  0  0  0
   85.1115   86.8333   88.7374 C   0  0  0  0  0  0  0  0  0  0  0  0
   86.2805   85.2322   90.2766 C   0  0  0  0  0  0  0  0  0  0  0  0
   85.5038   84.5864   91.2538 C   0  0  0  0  0  0  0  0  0  0  0  0
   86.0572   84.2607   92.4937 C   0  0  0  0  0  0  0  0  0  0  0  0
   87.3866   84.5798   92.7766 C   0  0  0  0  0  0  0  0  0  0  0  0
   88.1769   85.2372   91.8154 C   0  0  0  0  0  0  0  0  0  0  0  0
   87.6190   85.5505   90.5700 C   0  0  0  0  0  0  0  0  0  0  0  0
   89.5126   85.6005   92.0531 O   0  0  0  0  0  0  0  0  0  0  0  0
   90.5211   84.7379   92.5815 C   0  0  0  0  0  0  0  0  0  0  0  0
   90.8299   83.6166   91.6236 C   0  0  0  0  0  0  0  0  0  0  0  0
   90.4463   82.3014   91.9258 C   0  0  0  0  0  0  0  0  0  0  0  0
   90.7318   81.2593   91.0385 C   0  0  0  0  0  0  0  0  0  0  0  0
   91.4206   81.5173   89.8378 C   0  0  0  0  0  0  0  0  0  0  0  0
   91.8224   82.8272   89.5521 C   0  0  0  0  0  0  0  0  0  0  0  0
   91.5352   83.8694   90.4378 C   0  0  0  0  0  0  0  0  0  0  0  0
   91.7258   80.5124   88.9057 O   0  0  0  0  0  0  0  0  0  0  0  0
   91.1317   80.3768   87.6162 C   0  0  0  0  0  0  0  0  0  0  0  0
   91.7518   81.2226   86.7133 F   0  0  0  0  0  0  0  0  0  0  0  0
   89.7802   80.6652   87.6819 F   0  0  0  0  0  0  0  0  0  0  0  0
   91.2883   79.0741   87.1851 F   0  0  0  0  0  0  0  0  0  0  0  0
   83.9595   88.5246   87.2671 C   0  0  0  0  0  0  0  0  0  0  0  0
   84.9559   89.4615   86.8553 O   0  0  0  0  0  0  0  0  0  0  0  0
   87.5986   90.5138   89.2354 C   0  0  0  0  0  0  0  0  0  0  0  0
   86.8089   89.7410   88.3635 C   0  0  0  0  0  0  0  0  0  0  0  0
   85.6969   90.2886   87.7156 C   0  0  0  0  0  0  0  0  0  0  0  0
   85.3593   91.6318   87.9523 C   0  0  0  0  0  0  0  0  0  0  0  0
   86.1438   92.4147   88.7996 C   0  0  0  0  0  0  0  0  0  0  0  0
   87.2749   91.8796   89.4245 C   0  0  0  0  0  0  0  0  0  0  0  0
   88.0636   92.7414   90.1896 O   0  0  0  0  0  0  0  0  0  0  0  0
   87.8145   93.6391   90.2903 H   0  0  0  0  0  0  0  0  0  0  0  0
   88.7701   89.8935   91.2073 O   0  0  0  0  0  0  0  0  0  0  0  0
   88.7173   89.8578   89.9483 C   0  0  0  0  0  0  0  0  0  0  0  0
   89.7502   89.2507   89.2414 O   0  0  0  0  0  0  0  0  0  0  0  0
   89.7215   89.2183   88.3054 H   0  0  0  0  0  0  0  0  0  0  0  0
 36 37  2  0  0  0
 37 38  1  0  0  0
 37 28  1  0  0  0
 28 29  2  0  0  0
 29 30  1  0  0  0
 30 27  1  0  0  0
 27 26  1  0  0  0
 26  1  1  0  0  0
  1  2  2  0  0  0
  2  3  1  0  0  0
  3  4  2  0  0  0
  4  5  1  0  0  0
  5  7  1  0  0  0
  7  8  2  0  0  0
  8  9  1  0  0  0
  9 10  2  0  0  0
 10 11  1  0  0  0
 11 13  1  0  0  0
 13 14  1  0  0  0
 14 15  1  0  0  0
 15 16  2  0  0  0
 16 17  1  0  0  0
 17 18  2  0  0  0
 18 21  1  0  0  0
 21 22  1  0  0  0
 22 23  1  0  0  0
 22 24  1  0  0  0
 22 25  1  0  0  0
 18 19  1  0  0  0
 19 20  2  0  0  0
 11 12  2  0  0  0
  5  6  2  0  0  0
 30 31  2  0  0  0
 31 32  1  0  0  0
 32 33  2  0  0  0
 33 34  1  0  0  0
 33 28  1  0  0  0
  6  1  1  0  0  0
 12  7  1  0  0  0
 20 15  1  0  0  0
 38 39  1  0  0  0
 34 35  1  0  0  0
M  END
> <Activity>
3.2

> <minimizedAffinity>
-9.83268

> <CNNscore>
0.6827198863

> <CNNaffinity>
6.8111801147

> <CNN_VS>
4.6501278877

$$$$
HIPS7002


 39 42  0  0  0  0  0  0  0  0999 V2000
   88.4027   90.0355   90.1215 C   0  0  0  0  0  0  0  0  0  0  0  0
   87.5728   90.2816   89.0174 C   0  0  0  0  0  0  0  0  0  0  0  0
   86.6003   89.3505   88.6482 C   0  0  0  0  0  0  0  0  0  0  0  0
   86.4410   88.1716   89.3806 C   0  0  0  0  0  0  0  0  0  0  0  0
   87.2521   87.9141   90.4996 C   0  0  0  0  0  0  0  0  0  0  0  0
   88.2302   88.8569   90.8648 C   0  0  0  0  0  0  0  0  0  0  0  0
   87.0808   86.6652   91.2830 C   0  0  0  0  0  0  0  0  0  0  0  0
   85.8132   86.0720   91.4123 C   0  0  0  0  0  0  0  0  0  0  0  0
   85.6569   84.8932   92.1441 C   0  0  0  0  0  0  0  0  0  0  0  0
   86.7583   84.2961   92.7601 C   0  0  0  0  0  0  0  0  0  0  0  0
   88.0335   84.8815   92.6521 C   0  0  0  0  0  0  0  0  0  0  0  0
   88.1852   86.0573   91.9072 C   0  0  0  0  0  0  0  0  0  0  0  0
   89.1720   84.3359   93.2677 O   0  0  0  0  0  0  0  0  0  0  0  0
   90.5136   84.4828   92.7998 C   0  0  0  0  0  0  0  0  0  0  0  0
   90.8397   83.4447   91.7577 C   0  0  0  0  0  0  0  0  0  0  0  0
   91.4232   83.8233   90.5394 C   0  0  0  0  0  0  0  0  0  0  0  0
   91.7266   82.8617   89.5708 C   0  0  0  0  0  0  0  0  0  0  0  0
   91.4363   81.5036   89.8028 C   0  0  0  0  0  0  0  0  0  0  0  0
   90.8321   81.1337   91.0099 C   0  0  0  0  0  0  0  0  0  0  0  0
   90.5307   82.0945   91.9791 C   0  0  0  0  0  0  0  0  0  0  0  0
   91.7273   80.4943   88.8710 O   0  0  0  0  0  0  0  0  0  0  0  0
   91.1135   80.3523   87.5914 C   0  0  0  0  0  0  0  0  0  0  0  0
   91.2712   79.0585   87.1268 F   0  0  0  0  0  0  0  0  0  0  0  0
   91.6696   81.2472   86.6947 F   0  0  0  0  0  0  0  0  0  0  0  0
   89.7639   80.6212   87.7092 F   0  0  0  0  0  0  0  0  0  0  0  0
   89.4667   91.0247   90.5176 C   0  0  0  0  0  0  0  0  0  0  0  0
   89.1967   92.3085   89.9526 O   0  0  0  0  0  0  0  0  0  0  0  0
   88.0502   94.9099   92.3346 C   0  0  0  0  0  0  0  0  0  0  0  0
   88.8177   93.9120   91.7052 C   0  0  0  0  0  0  0  0  0  0  0  0
   88.3784   93.2934   90.5302 C   0  0  0  0  0  0  0  0  0  0  0  0
   87.1422   93.6702   89.9789 C   0  0  0  0  0  0  0  0  0  0  0  0
   86.3797   94.6709   90.5819 C   0  0  0  0  0  0  0  0  0  0  0  0
   86.8303   95.3141   91.7392 C   0  0  0  0  0  0  0  0  0  0  0  0
   86.0599   96.3655   92.2404 O   0  0  0  0  0  0  0  0  0  0  0  0
   85.2582   96.6020   91.8170 H   0  0  0  0  0  0  0  0  0  0  0  0
   88.4641   96.7148   93.8235 O   0  0  0  0  0  0  0  0  0  0  0  0
   88.5328   95.4735   93.6151 C   0  0  0  0  0  0  0  0  0  0  0  0
   89.1208   94.6547   94.5737 O   0  0  0  0  0  0  0  0  0  0  0  0
   89.1774   93.7306   94.4295 H   0  0  0  0  0  0  0  0  0  0  0  0
 36 37  2  0  0  0
 37 38  1  0  0  0
 37 28  1  0  0  0
 28 29  2  0  0  0
 29 30  1  0  0  0
 30 27  1  0  0  0
 27 26  1  0  0  0
 26  1  1  0  0  0
  1  2  2  0  0  0
  2  3  1  0  0  0
  3  4  2  0  0  0
  4  5  1  0  0  0
  5  7  1  0  0  0
  7  8  2  0  0  0
  8  9  1  0  0  0
  9 10  2  0  0  0
 10 11  1  0  0  0
 11 13  1  0  0  0
 13 14  1  0  0  0
 14 15  1  0  0  0
 15 16  2  0  0  0
 16 17  1  0  0  0
 17 18  2  0  0  0
 18 21  1  0  0  0
 21 22  1  0  0  0
 22 23  1  0  0  0
 22 24  1  0  0  0
 22 25  1  0  0  0
 18 19  1  0  0  0
 19 20  2  0  0  0
 11 12  2  0  0  0
  5  6  2  0  0  0
 30 31  2  0  0  0
 31 32  1  0  0  0
 32 33  2  0  0  0
 33 34  1  0  0  0
 33 28  1  0  0  0
  6  1  1  0  0  0
 12  7  1  0  0  0
 20 15  1  0  0  0
 38 39  1  0  0  0
 34 35  1  0  0  0
M  END
> <Activity>
3.2

> <minimizedAffinity>
-9.61270

> <CNNscore>
0.6524274349

> <CNNaffinity>
6.5027866364

> <CNN_VS>
4.2425966263

$$$$
HIPS7002


 39 42  0  0  0  0  0  0  0  0999 V2000
   92.2186   90.3724   90.4800 C   0  0  0  0  0  0  0  0  0  0  0  0
   92.4050   90.6432   89.1162 C   0  0  0  0  0  0  0  0  0  0  0  0
   91.5396   90.0963   88.1669 C   0  0  0  0  0  0  0  0  0  0  0  0
   90.4773   89.2830   88.5689 C   0  0  0  0  0  0  0  0  0  0  0  0
   90.2645   89.0129   89.9321 C   0  0  0  0  0  0  0  0  0  0  0  0
   91.1411   89.5671   90.8825 C   0  0  0  0  0  0  0  0  0  0  0  0
   89.1331   88.1541   90.3623 C   0  0  0  0  0  0  0  0  0  0  0  0
   87.8098   88.5042   90.0434 C   0  0  0  0  0  0  0  0  0  0  0  0
   86.7483   87.6902   90.4437 C   0  0  0  0  0  0  0  0  0  0  0  0
   86.9916   86.5234   91.1707 C   0  0  0  0  0  0  0  0  0  0  0  0
   88.3088   86.1622   91.5099 C   0  0  0  0  0  0  0  0  0  0  0  0
   89.3693   86.9770   91.0954 C   0  0  0  0  0  0  0  0  0  0  0  0
   88.6102   85.0116   92.2567 O   0  0  0  0  0  0  0  0  0  0  0  0
   89.9239   84.5837   92.6195 C   0  0  0  0  0  0  0  0  0  0  0  0
   90.4161   83.5031   91.6921 C   0  0  0  0  0  0  0  0  0  0  0  0
   90.1790   82.1527   91.9893 C   0  0  0  0  0  0  0  0  0  0  0  0
   90.6349   81.1482   91.1303 C   0  0  0  0  0  0  0  0  0  0  0  0
   91.3498   81.4815   89.9639 C   0  0  0  0  0  0  0  0  0  0  0  0
   91.6048   82.8290   89.6841 C   0  0  0  0  0  0  0  0  0  0  0  0
   91.1473   83.8333   90.5415 C   0  0  0  0  0  0  0  0  0  0  0  0
   91.8231   80.5162   89.0606 O   0  0  0  0  0  0  0  0  0  0  0  0
   91.2962   80.2797   87.7565 C   0  0  0  0  0  0  0  0  0  0  0  0
   89.9306   80.5028   87.7454 F   0  0  0  0  0  0  0  0  0  0  0  0
   91.5658   78.9812   87.3624 F   0  0  0  0  0  0  0  0  0  0  0  0
   91.8961   81.1486   86.8662 F   0  0  0  0  0  0  0  0  0  0  0  0
   93.1566   90.9426   91.5110 C   0  0  0  0  0  0  0  0  0  0  0  0
   92.4926   91.9241   92.3084 O   0  0  0  0  0  0  0  0  0  0  0  0
   90.8204   94.7256   90.5444 C   0  0  0  0  0  0  0  0  0  0  0  0
   91.8018   93.8415   91.0306 C   0  0  0  0  0  0  0  0  0  0  0  0
   91.4632   92.7700   91.8633 C   0  0  0  0  0  0  0  0  0  0  0  0
   90.1191   92.5844   92.2280 C   0  0  0  0  0  0  0  0  0  0  0  0
   89.1334   93.4419   91.7386 C   0  0  0  0  0  0  0  0  0  0  0  0
   89.4638   94.4955   90.8801 C   0  0  0  0  0  0  0  0  0  0  0  0
   88.4188   95.2611   90.3587 O   0  0  0  0  0  0  0  0  0  0  0  0
   87.5341   95.0767   90.6061 H   0  0  0  0  0  0  0  0  0  0  0  0
   92.0783   95.7217   88.7920 O   0  0  0  0  0  0  0  0  0  0  0  0
   91.2502   95.8831   89.7286 C   0  0  0  0  0  0  0  0  0  0  0  0
   90.7966   97.1650   90.0218 O   0  0  0  0  0  0  0  0  0  0  0  0
   90.1811   97.2969   90.7158 H   0  0  0  0  0  0  0  0  0  0  0  0
 36 37  2  0  0  0
 37 38  1  0  0  0
 37 28  1  0  0  0
 28 29  2  0  0  0
 29 30  1  0  0  0
 30 27  1  0  0  0
 27 26  1  0  0  0
 26  1  1  0  0  0
  1  2  2  0  0  0
  2  3  1  0  0  0
  3  4  2  0  0  0
  4  5  1  0  0  0
  5  7  1  0  0  0
  7  8  2  0  0  0
  8  9  1  0  0  0
  9 10  2  0  0  0
 10 11  1  0  0  0
 11 13  1  0  0  0
 13 14  1  0  0  0
 14 15  1  0  0  0
 15 16  2  0  0  0
 16 17  1  0  0  0
 17 18  2  0  0  0
 18 21  1  0  0  0
 21 22  1  0  0  0
 22 23  1  0  0  0
 22 24  1  0  0  0
 22 25  1  0  0  0
 18 19  1  0  0  0
 19 20  2  0  0  0
 11 12  2  0  0  0
  5  6  2  0  0  0
 30 31  2  0  0  0
 31 32  1  0  0  0
 32 33  2  0  0  0
 33 34  1  0  0  0
 33 28  1  0  0  0
  6  1  1  0  0  0
 12  7  1  0  0  0
 20 15  1  0  0  0
 38 39  1  0  0  0
 34 35  1  0  0  0
M  END
> <Activity>
3.2

> <minimizedAffinity>
-8.96716

> <CNNscore>
0.6124355197

> <CNNaffinity>
6.7536716461

> <CNN_VS>
4.1361885071

$$$$
HIPS7000


 38 41  0  0  0  0  0  0  0  0999 V2000
   84.6571   87.1247   87.6348 C   0  0  0  0  0  0  0  0  0  0  0  0
   84.6842   86.1933   86.5865 C   0  0  0  0  0  0  0  0  0  0  0  0
   85.2656   84.9384   86.7752 C   0  0  0  0  0  0  0  0  0  0  0  0
   85.8224   84.6008   88.0107 C   0  0  0  0  0  0  0  0  0  0  0  0
   85.7958   85.5167   89.0781 C   0  0  0  0  0  0  0  0  0  0  0  0
   85.2010   86.7762   88.8821 C   0  0  0  0  0  0  0  0  0  0  0  0
   86.3945   85.1611   90.3893 C   0  0  0  0  0  0  0  0  0  0  0  0
   85.6566   84.4351   91.3402 C   0  0  0  0  0  0  0  0  0  0  0  0
   86.2285   84.0956   92.5681 C   0  0  0  0  0  0  0  0  0  0  0  0
   87.5422   84.4692   92.8581 C   0  0  0  0  0  0  0  0  0  0  0  0
   88.2979   85.1882   91.9262 C   0  0  0  0  0  0  0  0  0  0  0  0
   87.7127   85.5446   90.6958 C   0  0  0  0  0  0  0  0  0  0  0  0
   89.6204   85.5239   92.2599 O   0  0  0  0  0  0  0  0  0  0  0  0
   90.6433   84.5919   92.6156 C   0  0  0  0  0  0  0  0  0  0  0  0
   90.8495   83.5781   91.5205 C   0  0  0  0  0  0  0  0  0  0  0  0
   91.4142   83.9689   90.2974 C   0  0  0  0  0  0  0  0  0  0  0  0
   91.6169   83.0312   89.2809 C   0  0  0  0  0  0  0  0  0  0  0  0
   91.2691   81.6832   89.4752 C   0  0  0  0  0  0  0  0  0  0  0  0
   90.6664   81.3030   90.6866 C   0  0  0  0  0  0  0  0  0  0  0  0
   90.4616   82.2418   91.7016 C   0  0  0  0  0  0  0  0  0  0  0  0
   91.4462   80.6794   88.3640 C   0  0  0  0  0  0  0  0  0  0  0  0
   92.3488   79.6964   88.7310 F   0  0  0  0  0  0  0  0  0  0  0  0
   90.2412   80.0688   88.0618 F   0  0  0  0  0  0  0  0  0  0  0  0
   91.9183   81.3266   87.2375 F   0  0  0  0  0  0  0  0  0  0  0  0
   84.0437   88.4831   87.4179 C   0  0  0  0  0  0  0  0  0  0  0  0
   85.0256   89.4144   86.9611 O   0  0  0  0  0  0  0  0  0  0  0  0
   85.8887   92.6717   88.6057 C   0  0  0  0  0  0  0  0  0  0  0  0
   85.2472   91.7340   87.7752 C   0  0  0  0  0  0  0  0  0  0  0  0
   85.6556   90.3874   87.7551 C   0  0  0  0  0  0  0  0  0  0  0  0
   86.7266   89.9893   88.5579 C   0  0  0  0  0  0  0  0  0  0  0  0
   87.3879   90.9133   89.3672 C   0  0  0  0  0  0  0  0  0  0  0  0
   86.9937   92.2551   89.3873 C   0  0  0  0  0  0  0  0  0  0  0  0
   87.7437   93.1424   90.1622 O   0  0  0  0  0  0  0  0  0  0  0  0
   88.4683   92.8273   90.6659 H   0  0  0  0  0  0  0  0  0  0  0  0
   86.1161   95.0292   88.4202 O   0  0  0  0  0  0  0  0  0  0  0  0
   85.3570   94.0513   88.6593 C   0  0  0  0  0  0  0  0  0  0  0  0
   84.0074   94.2810   88.9101 O   0  0  0  0  0  0  0  0  0  0  0  0
   83.4349   93.5610   89.0889 H   0  0  0  0  0  0  0  0  0  0  0  0
 35 36  2  0  0  0
 36 37  1  0  0  0
 36 27  1  0  0  0
 27 28  2  0  0  0
 28 29  1  0  0  0
 29 26  1  0  0  0
 26 25  1  0  0  0
 25  1  1  0  0  0
  1  2  2  0  0  0
  2  3  1  0  0  0
  3  4  2  0  0  0
  4  5  1  0  0  0
  5  7  1  0  0  0
  7  8  2  0  0  0
  8  9  1  0  0  0
  9 10  2  0  0  0
 10 11  1  0  0  0
 11 13  1  0  0  0
 13 14  1  0  0  0
 14 15  1  0  0  0
 15 16  2  0  0  0
 16 17  1  0  0  0
 17 18  2  0  0  0
 18 21  1  0  0  0
 21 22  1  0  0  0
 21 23  1  0  0  0
 21 24  1  0  0  0
 18 19  1  0  0  0
 19 20  2  0  0  0
 11 12  2  0  0  0
  5  6  2  0  0  0
 29 30  2  0  0  0
 30 31  1  0  0  0
 31 32  2  0  0  0
 32 33  1  0  0  0
 32 27  1  0  0  0
  6  1  1  0  0  0
 12  7  1  0  0  0
 20 15  1  0  0  0
 37 38  1  0  0  0
 33 34  1  0  0  0
M  END
> <Activity>
3.5

> <minimizedAffinity>
-9.83870

> <CNNscore>
0.6839211583

> <CNNaffinity>
6.6437959671

> <CNN_VS>
4.5438327789

$$$$
HIPS7000


 38 41  0  0  0  0  0  0  0  0999 V2000
   84.7190   87.2756   87.7488 C   0  0  0  0  0  0  0  0  0  0  0  0
   84.6735   86.3595   86.6878 C   0  0  0  0  0  0  0  0  0  0  0  0
   85.2124   85.0807   86.8388 C   0  0  0  0  0  0  0  0  0  0  0  0
   85.7987   84.7039   88.0490 C   0  0  0  0  0  0  0  0  0  0  0  0
   85.8449   85.6042   89.1288 C   0  0  0  0  0  0  0  0  0  0  0  0
   85.2925   86.8883   88.9712 C   0  0  0  0  0  0  0  0  0  0  0  0
   86.4751   85.2068   90.4130 C   0  0  0  0  0  0  0  0  0  0  0  0
   85.7495   84.4784   91.3716 C   0  0  0  0  0  0  0  0  0  0  0  0
   86.3507   84.0994   92.5737 C   0  0  0  0  0  0  0  0  0  0  0  0
   87.6815   84.4357   92.8298 C   0  0  0  0  0  0  0  0  0  0  0  0
   88.4252   85.1563   91.8896 C   0  0  0  0  0  0  0  0  0  0  0  0
   87.8110   85.5525   90.6857 C   0  0  0  0  0  0  0  0  0  0  0  0
   89.7652   85.4535   92.1884 O   0  0  0  0  0  0  0  0  0  0  0  0
   90.7690   84.4924   92.5198 C   0  0  0  0  0  0  0  0  0  0  0  0
   90.9429   83.4926   91.4064 C   0  0  0  0  0  0  0  0  0  0  0  0
   91.5256   83.8858   90.1926 C   0  0  0  0  0  0  0  0  0  0  0  0
   91.6983   82.9606   89.1592 C   0  0  0  0  0  0  0  0  0  0  0  0
   91.3018   81.6225   89.3270 C   0  0  0  0  0  0  0  0  0  0  0  0
   90.6815   81.2415   90.5293 C   0  0  0  0  0  0  0  0  0  0  0  0
   90.5068   82.1678   91.5612 C   0  0  0  0  0  0  0  0  0  0  0  0
   91.4469   80.6340   88.1976 C   0  0  0  0  0  0  0  0  0  0  0  0
   90.2243   80.0667   87.8829 F   0  0  0  0  0  0  0  0  0  0  0  0
   91.9386   81.2578   87.0638 F   0  0  0  0  0  0  0  0  0  0  0  0
   92.3229   79.6346   88.5777 F   0  0  0  0  0  0  0  0  0  0  0  0
   84.1512   88.6594   87.5722 C   0  0  0  0  0  0  0  0  0  0  0  0
   85.1606   89.5675   87.1286 O   0  0  0  0  0  0  0  0  0  0  0  0
   87.6201   90.9608   89.5920 C   0  0  0  0  0  0  0  0  0  0  0  0
   86.9116   90.0345   88.8043 C   0  0  0  0  0  0  0  0  0  0  0  0
   85.8746   90.4552   87.9508 C   0  0  0  0  0  0  0  0  0  0  0  0
   85.5368   91.8094   87.9071 C   0  0  0  0  0  0  0  0  0  0  0  0
   86.2138   92.7351   88.7013 C   0  0  0  0  0  0  0  0  0  0  0  0
   87.2402   92.3246   89.5582 C   0  0  0  0  0  0  0  0  0  0  0  0
   87.8271   93.2893   90.3798 O   0  0  0  0  0  0  0  0  0  0  0  0
   87.5478   94.1821   90.3273 H   0  0  0  0  0  0  0  0  0  0  0  0
   89.7192   91.2549   90.6652 O   0  0  0  0  0  0  0  0  0  0  0  0
   88.7630   90.4777   90.3977 C   0  0  0  0  0  0  0  0  0  0  0  0
   88.7665   89.1876   90.9200 O   0  0  0  0  0  0  0  0  0  0  0  0
   88.0607   88.6022   90.7272 H   0  0  0  0  0  0  0  0  0  0  0  0
 35 36  2  0  0  0
 36 37  1  0  0  0
 36 27  1  0  0  0
 27 28  2  0  0  0
 28 29  1  0  0  0
 29 26  1  0  0  0
 26 25  1  0  0  0
 25  1  1  0  0  0
  1  2  2  0  0  0
  2  3  1  0  0  0
  3  4  2  0  0  0
  4  5  1  0  0  0
  5  7  1  0  0  0
  7  8  2  0  0  0
  8  9  1  0  0  0
  9 10  2  0  0  0
 10 11  1  0  0  0
 11 13  1  0  0  0
 13 14  1  0  0  0
 14 15  1  0  0  0
 15 16  2  0  0  0
 16 17  1  0  0  0
 17 18  2  0  0  0
 18 21  1  0  0  0
 21 22  1  0  0  0
 21 23  1  0  0  0
 21 24  1  0  0  0
 18 19  1  0  0  0
 19 20  2  0  0  0
 11 12  2  0  0  0
  5  6  2  0  0  0
 29 30  2  0  0  0
 30 31  1  0  0  0
 31 32  2  0  0  0
 32 33  1  0  0  0
 32 27  1  0  0  0
  6  1  1  0  0  0
 12  7  1  0  0  0
 20 15  1  0  0  0
 37 38  1  0  0  0
 33 34  1  0  0  0
M  END
> <Activity>
3.5

> <minimizedAffinity>
-9.92195

> <CNNscore>
0.6291118264

> <CNNaffinity>
6.6103868484

> <CNN_VS>
4.1586723328

$$$$
HIPS7000


 38 41  0  0  0  0  0  0  0  0999 V2000
   88.3436   85.3720   91.8527 C   0  0  0  0  0  0  0  0  0  0  0  0
   89.2260   84.2970   91.6708 C   0  0  0  0  0  0  0  0  0  0  0  0
   90.4618   84.4980   91.0537 C   0  0  0  0  0  0  0  0  0  0  0  0
   90.8292   85.7720   90.6154 C   0  0  0  0  0  0  0  0  0  0  0  0
   89.9632   86.8653   90.7980 C   0  0  0  0  0  0  0  0  0  0  0  0
   88.7229   86.6560   91.4278 C   0  0  0  0  0  0  0  0  0  0  0  0
   90.3500   88.2184   90.3252 C   0  0  0  0  0  0  0  0  0  0  0  0
   91.6164   88.4441   89.7584 C   0  0  0  0  0  0  0  0  0  0  0  0
   91.9710   89.7171   89.3069 C   0  0  0  0  0  0  0  0  0  0  0  0
   91.0660   90.7755   89.4088 C   0  0  0  0  0  0  0  0  0  0  0  0
   89.7985   90.5747   89.9651 C   0  0  0  0  0  0  0  0  0  0  0  0
   89.4501   89.2938   90.4357 C   0  0  0  0  0  0  0  0  0  0  0  0
   88.9192   91.6684   90.0278 O   0  0  0  0  0  0  0  0  0  0  0  0
   89.3103   93.0327   90.1923 C   0  0  0  0  0  0  0  0  0  0  0  0
   88.5637   93.6708   91.3346 C   0  0  0  0  0  0  0  0  0  0  0  0
   89.0678   93.5834   92.6406 C   0  0  0  0  0  0  0  0  0  0  0  0
   88.3847   94.1814   93.7034 C   0  0  0  0  0  0  0  0  0  0  0  0
   87.1910   94.8878   93.4757 C   0  0  0  0  0  0  0  0  0  0  0  0
   86.6676   94.9389   92.1723 C   0  0  0  0  0  0  0  0  0  0  0  0
   87.3499   94.3384   91.1106 C   0  0  0  0  0  0  0  0  0  0  0  0
   86.4300   95.4955   94.6270 C   0  0  0  0  0  0  0  0  0  0  0  0
   87.2915   95.8521   95.6499 F   0  0  0  0  0  0  0  0  0  0  0  0
   85.7513   96.6305   94.2180 F   0  0  0  0  0  0  0  0  0  0  0  0
   85.5184   94.5737   95.1066 F   0  0  0  0  0  0  0  0  0  0  0  0
   87.0046   85.1437   92.5034 C   0  0  0  0  0  0  0  0  0  0  0  0
   86.0384   84.7237   91.5388 O   0  0  0  0  0  0  0  0  0  0  0  0
   85.3932   85.8027   88.0063 C   0  0  0  0  0  0  0  0  0  0  0  0
   85.8445   85.0384   89.0984 C   0  0  0  0  0  0  0  0  0  0  0  0
   85.6280   85.4689   90.4207 C   0  0  0  0  0  0  0  0  0  0  0  0
   84.9740   86.6826   90.6424 C   0  0  0  0  0  0  0  0  0  0  0  0
   84.5435   87.4626   89.5690 C   0  0  0  0  0  0  0  0  0  0  0  0
   84.7617   87.0462   88.2517 C   0  0  0  0  0  0  0  0  0  0  0  0
   84.3724   87.9076   87.2238 O   0  0  0  0  0  0  0  0  0  0  0  0
   83.9569   88.7224   87.4275 H   0  0  0  0  0  0  0  0  0  0  0  0
   86.1960   85.9152   85.7731 O   0  0  0  0  0  0  0  0  0  0  0  0
   85.5620   85.2568   86.6416 C   0  0  0  0  0  0  0  0  0  0  0  0
   85.0810   83.9907   86.3207 O   0  0  0  0  0  0  0  0  0  0  0  0
   84.6086   83.4934   86.9590 H   0  0  0  0  0  0  0  0  0  0  0  0
 35 36  2  0  0  0
 36 37  1  0  0  0
 36 27  1  0  0  0
 27 28  2  0  0  0
 28 29  1  0  0  0
 29 26  1  0  0  0
 26 25  1  0  0  0
 25  1  1  0  0  0
  1  2  2  0  0  0
  2  3  1  0  0  0
  3  4  2  0  0  0
  4  5  1  0  0  0
  5  7  1  0  0  0
  7  8  2  0  0  0
  8  9  1  0  0  0
  9 10  2  0  0  0
 10 11  1  0  0  0
 11 13  1  0  0  0
 13 14  1  0  0  0
 14 15  1  0  0  0
 15 16  2  0  0  0
 16 17  1  0  0  0
 17 18  2  0  0  0
 18 21  1  0  0  0
 21 22  1  0  0  0
 21 23  1  0  0  0
 21 24  1  0  0  0
 18 19  1  0  0  0
 19 20  2  0  0  0
 11 12  2  0  0  0
  5  6  2  0  0  0
 29 30  2  0  0  0
 30 31  1  0  0  0
 31 32  2  0  0  0
 32 33  1  0  0  0
 32 27  1  0  0  0
  6  1  1  0  0  0
 12  7  1  0  0  0
 20 15  1  0  0  0
 37 38  1  0  0  0
 33 34  1  0  0  0
M  END
> <Activity>
3.5

> <minimizedAffinity>
-9.82827

> <CNNscore>
0.6284106374

> <CNNaffinity>
6.6255970001

> <CNN_VS>
4.1635956764

$$$$
HIPS6994


 34 37  0  0  0  0  0  0  0  0999 V2000
   90.4415   85.4731   90.7474 C   0  0  0  0  0  0  0  0  0  0  0  0
   91.6252   86.1033   90.3272 C   0  0  0  0  0  0  0  0  0  0  0  0
   91.6343   87.4695   90.0359 C   0  0  0  0  0  0  0  0  0  0  0  0
   90.4656   88.2230   90.1648 C   0  0  0  0  0  0  0  0  0  0  0  0
   89.2715   87.6090   90.5699 C   0  0  0  0  0  0  0  0  0  0  0  0
   89.2657   86.2360   90.8630 C   0  0  0  0  0  0  0  0  0  0  0  0
   90.9745   81.7210   90.5273 C   0  0  0  0  0  0  0  0  0  0  0  0
   90.3722   81.2901   91.7129 C   0  0  0  0  0  0  0  0  0  0  0  0
   89.8164   82.2207   92.5928 C   0  0  0  0  0  0  0  0  0  0  0  0
   89.8502   83.5840   92.2872 C   0  0  0  0  0  0  0  0  0  0  0  0
   90.4362   84.0300   91.0888 C   0  0  0  0  0  0  0  0  0  0  0  0
   91.0016   83.0855   90.2122 C   0  0  0  0  0  0  0  0  0  0  0  0
   91.5443   80.7871   89.6592 O   0  0  0  0  0  0  0  0  0  0  0  0
   90.5466   80.6248   84.0321 C   0  0  0  0  0  0  0  0  0  0  0  0
   90.8278   80.6767   85.5036 C   0  0  0  0  0  0  0  0  0  0  0  0
   89.8077   80.3934   86.4208 C   0  0  0  0  0  0  0  0  0  0  0  0
   90.0572   80.4459   87.7947 C   0  0  0  0  0  0  0  0  0  0  0  0
   91.3293   80.7813   88.2729 C   0  0  0  0  0  0  0  0  0  0  0  0
   92.3514   81.0785   87.3523 C   0  0  0  0  0  0  0  0  0  0  0  0
   92.1016   81.0278   85.9779 C   0  0  0  0  0  0  0  0  0  0  0  0
   88.0212   88.4188   90.7561 C   0  0  0  0  0  0  0  0  0  0  0  0
   86.8975   87.6438   90.3462 O   0  0  0  0  0  0  0  0  0  0  0  0
   86.3576   87.6437   89.0516 C   0  0  0  0  0  0  0  0  0  0  0  0
   85.9425   88.8617   88.5093 C   0  0  0  0  0  0  0  0  0  0  0  0
   85.3955   88.9173   87.2286 C   0  0  0  0  0  0  0  0  0  0  0  0
   85.2585   87.7525   86.4632 C   0  0  0  0  0  0  0  0  0  0  0  0
   84.7086   87.8379   85.1846 O   0  0  0  0  0  0  0  0  0  0  0  0
   85.6767   86.5089   86.9910 C   0  0  0  0  0  0  0  0  0  0  0  0
   86.2230   86.4689   88.2887 C   0  0  0  0  0  0  0  0  0  0  0  0
   84.4354   88.6680   84.8466 H   0  0  0  0  0  0  0  0  0  0  0  0
   85.5590   85.2477   86.2146 C   0  0  0  0  0  0  0  0  0  0  0  0
   85.9785   85.1758   85.0285 O   0  0  0  0  0  0  0  0  0  0  0  0
   84.9795   84.1212   86.7927 O   0  0  0  0  0  0  0  0  0  0  0  0
   84.6623   84.1573   87.6736 H   0  0  0  0  0  0  0  0  0  0  0  0
 14 15  1  0  0  0
 15 16  2  0  0  0
 16 17  1  0  0  0
 17 18  2  0  0  0
 18 13  1  0  0  0
 13  7  1  0  0  0
  7  8  2  0  0  0
  8  9  1  0  0  0
  9 10  2  0  0  0
 10 11  1  0  0  0
 11  1  1  0  0  0
  1  2  2  0  0  0
  2  3  1  0  0  0
  3  4  2  0  0  0
  4  5  1  0  0  0
  5 21  1  0  0  0
 21 22  1  0  0  0
 22 23  1  0  0  0
 23 24  2  0  0  0
 24 25  1  0  0  0
 25 26  2  0  0  0
 26 27  1  0  0  0
 26 28  1  0  0  0
 28 31  1  0  0  0
 31 32  2  0  0  0
 31 33  1  0  0  0
 28 29  2  0  0  0
  5  6  2  0  0  0
 11 12  2  0  0  0
 18 19  1  0  0  0
 19 20  2  0  0  0
 20 15  1  0  0  0
 12  7  1  0  0  0
  6  1  1  0  0  0
 29 23  1  0  0  0
 27 30  1  0  0  0
 33 34  1  0  0  0
M  END
> <Activity>
4.7

> <minimizedAffinity>
-9.30018

> <CNNscore>
0.7391670942

> <CNNaffinity>
6.5085353851

> <CNN_VS>
4.8108949661

$$$$
HIPS6994


 34 37  0  0  0  0  0  0  0  0999 V2000
   90.5071   85.5538   90.7166 C   0  0  0  0  0  0  0  0  0  0  0  0
   91.6979   86.1695   90.2948 C   0  0  0  0  0  0  0  0  0  0  0  0
   91.7278   87.5392   90.0221 C   0  0  0  0  0  0  0  0  0  0  0  0
   90.5733   88.3106   90.1715 C   0  0  0  0  0  0  0  0  0  0  0  0
   89.3724   87.7114   90.5785 C   0  0  0  0  0  0  0  0  0  0  0  0
   89.3455   86.3348   90.8528 C   0  0  0  0  0  0  0  0  0  0  0  0
   91.0227   81.8011   90.4655 C   0  0  0  0  0  0  0  0  0  0  0  0
   90.3755   81.3591   91.6230 C   0  0  0  0  0  0  0  0  0  0  0  0
   89.7948   82.2820   92.4949 C   0  0  0  0  0  0  0  0  0  0  0  0
   89.8485   83.6489   92.2089 C   0  0  0  0  0  0  0  0  0  0  0  0
   90.4800   84.1064   91.0382 C   0  0  0  0  0  0  0  0  0  0  0  0
   91.0701   83.1694   90.1698 C   0  0  0  0  0  0  0  0  0  0  0  0
   91.6170   80.8747   89.6059 O   0  0  0  0  0  0  0  0  0  0  0  0
   90.4389   80.4892   84.0247 C   0  0  0  0  0  0  0  0  0  0  0  0
   90.7673   80.5994   85.4831 C   0  0  0  0  0  0  0  0  0  0  0  0
   89.7763   80.3577   86.4432 C   0  0  0  0  0  0  0  0  0  0  0  0
   90.0699   80.4646   87.8051 C   0  0  0  0  0  0  0  0  0  0  0  0
   91.3576   80.8138   88.2285 C   0  0  0  0  0  0  0  0  0  0  0  0
   92.3505   81.0692   87.2645 C   0  0  0  0  0  0  0  0  0  0  0  0
   92.0567   80.9641   85.9019 C   0  0  0  0  0  0  0  0  0  0  0  0
   88.1377   88.5397   90.7866 C   0  0  0  0  0  0  0  0  0  0  0  0
   87.9903   89.4413   89.6928 O   0  0  0  0  0  0  0  0  0  0  0  0
   87.0108   89.3321   88.6947 C   0  0  0  0  0  0  0  0  0  0  0  0
   86.8115   88.0850   88.0990 C   0  0  0  0  0  0  0  0  0  0  0  0
   85.8537   87.9221   87.0997 C   0  0  0  0  0  0  0  0  0  0  0  0
   85.0721   89.0062   86.6810 C   0  0  0  0  0  0  0  0  0  0  0  0
   84.1208   88.8142   85.6798 O   0  0  0  0  0  0  0  0  0  0  0  0
   85.2541   90.2771   87.2741 C   0  0  0  0  0  0  0  0  0  0  0  0
   86.2295   90.4263   88.2793 C   0  0  0  0  0  0  0  0  0  0  0  0
   84.0102   87.9670   85.2949 H   0  0  0  0  0  0  0  0  0  0  0  0
   84.4441   91.4549   86.8692 C   0  0  0  0  0  0  0  0  0  0  0  0
   83.3204   91.3095   86.3176 O   0  0  0  0  0  0  0  0  0  0  0  0
   84.9202   92.7436   87.0964 O   0  0  0  0  0  0  0  0  0  0  0  0
   85.7537   92.8697   87.5055 H   0  0  0  0  0  0  0  0  0  0  0  0
 14 15  1  0  0  0
 15 16  2  0  0  0
 16 17  1  0  0  0
 17 18  2  0  0  0
 18 13  1  0  0  0
 13  7  1  0  0  0
  7  8  2  0  0  0
  8  9  1  0  0  0
  9 10  2  0  0  0
 10 11  1  0  0  0
 11  1  1  0  0  0
  1  2  2  0  0  0
  2  3  1  0  0  0
  3  4  2  0  0  0
  4  5  1  0  0  0
  5 21  1  0  0  0
 21 22  1  0  0  0
 22 23  1  0  0  0
 23 24  2  0  0  0
 24 25  1  0  0  0
 25 26  2  0  0  0
 26 27  1  0  0  0
 26 28  1  0  0  0
 28 31  1  0  0  0
 31 32  2  0  0  0
 31 33  1  0  0  0
 28 29  2  0  0  0
  5  6  2  0  0  0
 11 12  2  0  0  0
 18 19  1  0  0  0
 19 20  2  0  0  0
 20 15  1  0  0  0
 12  7  1  0  0  0
  6  1  1  0  0  0
 29 23  1  0  0  0
 27 30  1  0  0  0
 33 34  1  0  0  0
M  END
> <Activity>
4.7

> <minimizedAffinity>
-8.40286

> <CNNscore>
0.7063545585

> <CNNaffinity>
6.0966920853

> <CNN_VS>
4.3064260483

$$$$
HIPS6994


 34 37  0  0  0  0  0  0  0  0999 V2000
   85.4236   86.9139   88.8477 C   0  0  0  0  0  0  0  0  0  0  0  0
   85.7295   86.0307   87.7982 C   0  0  0  0  0  0  0  0  0  0  0  0
   85.2847   86.2932   86.5004 C   0  0  0  0  0  0  0  0  0  0  0  0
   84.5347   87.4406   86.2335 C   0  0  0  0  0  0  0  0  0  0  0  0
   84.2081   88.3268   87.2702 C   0  0  0  0  0  0  0  0  0  0  0  0
   84.6574   88.0609   88.5735 C   0  0  0  0  0  0  0  0  0  0  0  0
   87.7577   86.1794   91.7500 C   0  0  0  0  0  0  0  0  0  0  0  0
   86.8546   86.1069   92.8145 C   0  0  0  0  0  0  0  0  0  0  0  0
   85.4931   86.3211   92.5918 C   0  0  0  0  0  0  0  0  0  0  0  0
   85.0268   86.5977   91.3036 C   0  0  0  0  0  0  0  0  0  0  0  0
   85.9220   86.6550   90.2202 C   0  0  0  0  0  0  0  0  0  0  0  0
   87.2935   86.4463   90.4557 C   0  0  0  0  0  0  0  0  0  0  0  0
   89.1207   85.9816   91.9817 O   0  0  0  0  0  0  0  0  0  0  0  0
   91.8818   81.1803   90.5637 C   0  0  0  0  0  0  0  0  0  0  0  0
   91.1496   82.4290   90.9534 C   0  0  0  0  0  0  0  0  0  0  0  0
   91.4173   83.6327   90.2887 C   0  0  0  0  0  0  0  0  0  0  0  0
   90.7457   84.8039   90.6488 C   0  0  0  0  0  0  0  0  0  0  0  0
   89.7965   84.7904   91.6774 C   0  0  0  0  0  0  0  0  0  0  0  0
   89.5363   83.5843   92.3543 C   0  0  0  0  0  0  0  0  0  0  0  0
   90.2092   82.4129   91.9955 C   0  0  0  0  0  0  0  0  0  0  0  0
   83.4422   89.5863   86.9857 C   0  0  0  0  0  0  0  0  0  0  0  0
   84.2529   90.4592   86.2035 O   0  0  0  0  0  0  0  0  0  0  0  0
   84.7639   91.6871   86.6492 C   0  0  0  0  0  0  0  0  0  0  0  0
   84.6059   92.8052   85.8277 C   0  0  0  0  0  0  0  0  0  0  0  0
   85.0981   94.0484   86.2208 C   0  0  0  0  0  0  0  0  0  0  0  0
   85.7546   94.1968   87.4491 C   0  0  0  0  0  0  0  0  0  0  0  0
   86.2362   95.4526   87.8171 O   0  0  0  0  0  0  0  0  0  0  0  0
   85.9214   93.0787   88.2987 C   0  0  0  0  0  0  0  0  0  0  0  0
   85.4226   91.8282   87.8847 C   0  0  0  0  0  0  0  0  0  0  0  0
   86.1191   96.1854   87.2450 H   0  0  0  0  0  0  0  0  0  0  0  0
   86.6037   93.1878   89.6140 C   0  0  0  0  0  0  0  0  0  0  0  0
   87.5924   92.4581   89.8933 O   0  0  0  0  0  0  0  0  0  0  0  0
   86.1556   94.1049   90.5611 O   0  0  0  0  0  0  0  0  0  0  0  0
   85.4218   94.6553   90.3698 H   0  0  0  0  0  0  0  0  0  0  0  0
 14 15  1  0  0  0
 15 16  2  0  0  0
 16 17  1  0  0  0
 17 18  2  0  0  0
 18 13  1  0  0  0
 13  7  1  0  0  0
  7  8  2  0  0  0
  8  9  1  0  0  0
  9 10  2  0  0  0
 10 11  1  0  0  0
 11  1  1  0  0  0
  1  2  2  0  0  0
  2  3  1  0  0  0
  3  4  2  0  0  0
  4  5  1  0  0  0
  5 21  1  0  0  0
 21 22  1  0  0  0
 22 23  1  0  0  0
 23 24  2  0  0  0
 24 25  1  0  0  0
 25 26  2  0  0  0
 26 27  1  0  0  0
 26 28  1  0  0  0
 28 31  1  0  0  0
 31 32  2  0  0  0
 31 33  1  0  0  0
 28 29  2  0  0  0
  5  6  2  0  0  0
 11 12  2  0  0  0
 18 19  1  0  0  0
 19 20  2  0  0  0
 20 15  1  0  0  0
 12  7  1  0  0  0
  6  1  1  0  0  0
 29 23  1  0  0  0
 27 30  1  0  0  0
 33 34  1  0  0  0
M  END
> <Activity>
4.7

> <minimizedAffinity>
-7.89909

> <CNNscore>
0.5205873251

> <CNNaffinity>
6.0775747299

> <CNN_VS>
3.1639084816

$$$$
HIPS6991


 34 37  0  0  0  0  0  0  0  0999 V2000
   91.5693   84.0046   90.3922 C   0  0  0  0  0  0  0  0  0  0  0  0
   91.8401   82.7173   90.8813 C   0  0  0  0  0  0  0  0  0  0  0  0
   90.9189   82.0731   91.7164 C   0  0  0  0  0  0  0  0  0  0  0  0
   89.7282   82.7111   92.0728 C   0  0  0  0  0  0  0  0  0  0  0  0
   89.4519   84.0080   91.6072 C   0  0  0  0  0  0  0  0  0  0  0  0
   90.3918   84.6567   90.7851 C   0  0  0  0  0  0  0  0  0  0  0  0
   88.1501   84.6553   91.8880 C   0  0  0  0  0  0  0  0  0  0  0  0
   87.1957   83.9946   92.6789 C   0  0  0  0  0  0  0  0  0  0  0  0
   85.9033   84.5103   92.8054 C   0  0  0  0  0  0  0  0  0  0  0  0
   85.5540   85.6897   92.1440 C   0  0  0  0  0  0  0  0  0  0  0  0
   86.5084   86.3806   91.3837 C   0  0  0  0  0  0  0  0  0  0  0  0
   87.8101   85.8768   91.2790 C   0  0  0  0  0  0  0  0  0  0  0  0
   86.1751   87.5708   90.7348 O   0  0  0  0  0  0  0  0  0  0  0  0
   86.0428   87.6354   89.3452 C   0  0  0  0  0  0  0  0  0  0  0  0
   84.9416   87.0459   88.7055 C   0  0  0  0  0  0  0  0  0  0  0  0
   84.8243   87.1118   87.3132 C   0  0  0  0  0  0  0  0  0  0  0  0
   85.8016   87.7717   86.5563 C   0  0  0  0  0  0  0  0  0  0  0  0
   85.6557   87.8532   84.8126 Cl  0  0  0  0  0  0  0  0  0  0  0  0
   86.8971   88.3698   87.1949 C   0  0  0  0  0  0  0  0  0  0  0  0
   87.0191   88.2988   88.5851 C   0  0  0  0  0  0  0  0  0  0  0  0
   92.5173   84.6892   89.4490 C   0  0  0  0  0  0  0  0  0  0  0  0
   92.2845   86.0872   89.4747 O   0  0  0  0  0  0  0  0  0  0  0  0
   92.4231   89.7792   89.4086 C   0  0  0  0  0  0  0  0  0  0  0  0
   92.7397   88.4339   89.1703 C   0  0  0  0  0  0  0  0  0  0  0  0
   91.9287   87.4115   89.6753 C   0  0  0  0  0  0  0  0  0  0  0  0
   90.7765   87.7288   90.4022 C   0  0  0  0  0  0  0  0  0  0  0  0
   90.4386   89.0604   90.6313 C   0  0  0  0  0  0  0  0  0  0  0  0
   91.2441   90.0926   90.1260 C   0  0  0  0  0  0  0  0  0  0  0  0
   90.8156   91.4104   90.3119 O   0  0  0  0  0  0  0  0  0  0  0  0
   90.0300   91.5843   90.7921 H   0  0  0  0  0  0  0  0  0  0  0  0
   93.6749   91.7751   89.6956 O   0  0  0  0  0  0  0  0  0  0  0  0
   93.3526   90.8235   88.9332 C   0  0  0  0  0  0  0  0  0  0  0  0
   93.8727   90.7646   87.6421 O   0  0  0  0  0  0  0  0  0  0  0  0
   93.6353   90.0589   87.0732 H   0  0  0  0  0  0  0  0  0  0  0  0
 31 32  2  0  0  0
 32 33  1  0  0  0
 32 23  1  0  0  0
 23 24  2  0  0  0
 24 25  1  0  0  0
 25 22  1  0  0  0
 22 21  1  0  0  0
 21  1  1  0  0  0
  1  2  2  0  0  0
  2  3  1  0  0  0
  3  4  2  0  0  0
  4  5  1  0  0  0
  5  7  1  0  0  0
  7  8  2  0  0  0
  8  9  1  0  0  0
  9 10  2  0  0  0
 10 11  1  0  0  0
 11 13  1  0  0  0
 13 14  1  0  0  0
 14 15  2  0  0  0
 15 16  1  0  0  0
 16 17  2  0  0  0
 17 18  1  0  0  0
 17 19  1  0  0  0
 19 20  2  0  0  0
 11 12  2  0  0  0
  5  6  2  0  0  0
 25 26  2  0  0  0
 26 27  1  0  0  0
 27 28  2  0  0  0
 28 29  1  0  0  0
 28 23  1  0  0  0
  6  1  1  0  0  0
 12  7  1  0  0  0
 20 14  1  0  0  0
 33 34  1  0  0  0
 29 30  1  0  0  0
M  END
> <Activity>
5.0

> <minimizedAffinity>
-9.05514

> <CNNscore>
0.5450791121

> <CNNaffinity>
6.6973161697

> <CNN_VS>
3.6505670547

$$$$
HIPS6991


 34 37  0  0  0  0  0  0  0  0999 V2000
   87.5056   84.9245   92.1516 C   0  0  0  0  0  0  0  0  0  0  0  0
   88.2638   84.0058   92.8939 C   0  0  0  0  0  0  0  0  0  0  0  0
   89.6626   84.0674   92.8728 C   0  0  0  0  0  0  0  0  0  0  0  0
   90.3114   85.0393   92.1072 C   0  0  0  0  0  0  0  0  0  0  0  0
   89.5663   85.9536   91.3428 C   0  0  0  0  0  0  0  0  0  0  0  0
   88.1616   85.8724   91.3532 C   0  0  0  0  0  0  0  0  0  0  0  0
   90.2336   87.0545   90.6113 C   0  0  0  0  0  0  0  0  0  0  0  0
   91.6165   86.9986   90.3713 C   0  0  0  0  0  0  0  0  0  0  0  0
   92.2874   88.1045   89.8427 C   0  0  0  0  0  0  0  0  0  0  0  0
   91.5830   89.2740   89.5491 C   0  0  0  0  0  0  0  0  0  0  0  0
   90.1958   89.3297   89.7463 C   0  0  0  0  0  0  0  0  0  0  0  0
   89.5207   88.2124   90.2514 C   0  0  0  0  0  0  0  0  0  0  0  0
   89.4792   90.4873   89.4374 O   0  0  0  0  0  0  0  0  0  0  0  0
   89.3035   91.5113   90.3718 C   0  0  0  0  0  0  0  0  0  0  0  0
   88.4901   92.6156   90.0751 C   0  0  0  0  0  0  0  0  0  0  0  0
   88.3277   93.6373   91.0167 C   0  0  0  0  0  0  0  0  0  0  0  0
   88.9709   93.5564   92.2590 C   0  0  0  0  0  0  0  0  0  0  0  0
   88.7689   94.8363   93.4377 Cl  0  0  0  0  0  0  0  0  0  0  0  0
   89.7758   92.4488   92.5607 C   0  0  0  0  0  0  0  0  0  0  0  0
   89.9443   91.4309   91.6184 C   0  0  0  0  0  0  0  0  0  0  0  0
   86.0043   84.9119   92.2065 C   0  0  0  0  0  0  0  0  0  0  0  0
   85.4817   85.4571   91.0070 O   0  0  0  0  0  0  0  0  0  0  0  0
   85.2597   86.2280   87.4000 C   0  0  0  0  0  0  0  0  0  0  0  0
   85.5339   85.5558   88.5998 C   0  0  0  0  0  0  0  0  0  0  0  0
   85.1568   86.1096   89.8283 C   0  0  0  0  0  0  0  0  0  0  0  0
   84.4767   87.3314   89.8642 C   0  0  0  0  0  0  0  0  0  0  0  0
   84.1806   88.0021   88.6799 C   0  0  0  0  0  0  0  0  0  0  0  0
   84.5519   87.4528   87.4430 C   0  0  0  0  0  0  0  0  0  0  0  0
   84.1572   88.1241   86.2817 O   0  0  0  0  0  0  0  0  0  0  0  0
   83.6896   88.9336   86.3445 H   0  0  0  0  0  0  0  0  0  0  0  0
   85.4765   84.4576   85.8341 O   0  0  0  0  0  0  0  0  0  0  0  0
   85.7526   85.6514   86.1330 C   0  0  0  0  0  0  0  0  0  0  0  0
   86.5266   86.4204   85.2667 O   0  0  0  0  0  0  0  0  0  0  0  0
   86.7335   87.3076   85.4858 H   0  0  0  0  0  0  0  0  0  0  0  0
 31 32  2  0  0  0
 32 33  1  0  0  0
 32 23  1  0  0  0
 23 24  2  0  0  0
 24 25  1  0  0  0
 25 22  1  0  0  0
 22 21  1  0  0  0
 21  1  1  0  0  0
  1  2  2  0  0  0
  2  3  1  0  0  0
  3  4  2  0  0  0
  4  5  1  0  0  0
  5  7  1  0  0  0
  7  8  2  0  0  0
  8  9  1  0  0  0
  9 10  2  0  0  0
 10 11  1  0  0  0
 11 13  1  0  0  0
 13 14  1  0  0  0
 14 15  2  0  0  0
 15 16  1  0  0  0
 16 17  2  0  0  0
 17 18  1  0  0  0
 17 19  1  0  0  0
 19 20  2  0  0  0
 11 12  2  0  0  0
  5  6  2  0  0  0
 25 26  2  0  0  0
 26 27  1  0  0  0
 27 28  2  0  0  0
 28 29  1  0  0  0
 28 23  1  0  0  0
  6  1  1  0  0  0
 12  7  1  0  0  0
 20 14  1  0  0  0
 33 34  1  0  0  0
 29 30  1  0  0  0
M  END
> <Activity>
5.0

> <minimizedAffinity>
-9.42707

> <CNNscore>
0.4448190331

> <CNNaffinity>
6.4936265945

> <CNN_VS>
2.8884887695

$$$$
HIPS6991


 34 37  0  0  0  0  0  0  0  0999 V2000
   90.6615   90.1965   90.1919 C   0  0  0  0  0  0  0  0  0  0  0  0
   91.8306   90.5313   89.4914 C   0  0  0  0  0  0  0  0  0  0  0  0
   92.7539   89.5367   89.1459 C   0  0  0  0  0  0  0  0  0  0  0  0
   92.5195   88.2065   89.5027 C   0  0  0  0  0  0  0  0  0  0  0  0
   91.3631   87.8584   90.2218 C   0  0  0  0  0  0  0  0  0  0  0  0
   90.4503   88.8665   90.5829 C   0  0  0  0  0  0  0  0  0  0  0  0
   91.0477   86.4417   90.5147 C   0  0  0  0  0  0  0  0  0  0  0  0
   91.9184   85.4270   90.0843 C   0  0  0  0  0  0  0  0  0  0  0  0
   91.5489   84.0841   90.1961 C   0  0  0  0  0  0  0  0  0  0  0  0
   90.3078   83.7440   90.7388 C   0  0  0  0  0  0  0  0  0  0  0  0
   89.4459   84.7451   91.2090 C   0  0  0  0  0  0  0  0  0  0  0  0
   89.8283   86.0887   91.1204 C   0  0  0  0  0  0  0  0  0  0  0  0
   88.2116   84.4147   91.7714 O   0  0  0  0  0  0  0  0  0  0  0  0
   87.0672   85.1782   91.5266 C   0  0  0  0  0  0  0  0  0  0  0  0
   86.4897   85.9459   92.5495 C   0  0  0  0  0  0  0  0  0  0  0  0
   85.3403   86.7008   92.2932 C   0  0  0  0  0  0  0  0  0  0  0  0
   84.7680   86.6968   91.0141 C   0  0  0  0  0  0  0  0  0  0  0  0
   83.3278   87.6407   90.6931 Cl  0  0  0  0  0  0  0  0  0  0  0  0
   85.3497   85.9382   89.9884 C   0  0  0  0  0  0  0  0  0  0  0  0
   86.4940   85.1784   90.2449 C   0  0  0  0  0  0  0  0  0  0  0  0
   89.6312   91.2392   90.5211 C   0  0  0  0  0  0  0  0  0  0  0  0
   88.5112   91.0853   89.6660 O   0  0  0  0  0  0  0  0  0  0  0  0
   85.6519   89.6139   87.8458 C   0  0  0  0  0  0  0  0  0  0  0  0
   86.8545   89.7313   88.5575 C   0  0  0  0  0  0  0  0  0  0  0  0
   87.2951   90.9800   89.0097 C   0  0  0  0  0  0  0  0  0  0  0  0
   86.5202   92.1207   88.7756 C   0  0  0  0  0  0  0  0  0  0  0  0
   85.3142   92.0177   88.0864 C   0  0  0  0  0  0  0  0  0  0  0  0
   84.8626   90.7690   87.6320 C   0  0  0  0  0  0  0  0  0  0  0  0
   83.6068   90.7082   87.0203 O   0  0  0  0  0  0  0  0  0  0  0  0
   83.1091   91.4918   86.8933 H   0  0  0  0  0  0  0  0  0  0  0  0
   86.1558   87.4976   86.8968 O   0  0  0  0  0  0  0  0  0  0  0  0
   85.2681   88.2921   87.3108 C   0  0  0  0  0  0  0  0  0  0  0  0
   83.9267   87.9198   87.2572 O   0  0  0  0  0  0  0  0  0  0  0  0
   83.2647   88.5077   87.5640 H   0  0  0  0  0  0  0  0  0  0  0  0
 31 32  2  0  0  0
 32 33  1  0  0  0
 32 23  1  0  0  0
 23 24  2  0  0  0
 24 25  1  0  0  0
 25 22  1  0  0  0
 22 21  1  0  0  0
 21  1  1  0  0  0
  1  2  2  0  0  0
  2  3  1  0  0  0
  3  4  2  0  0  0
  4  5  1  0  0  0
  5  7  1  0  0  0
  7  8  2  0  0  0
  8  9  1  0  0  0
  9 10  2  0  0  0
 10 11  1  0  0  0
 11 13  1  0  0  0
 13 14  1  0  0  0
 14 15  2  0  0  0
 15 16  1  0  0  0
 16 17  2  0  0  0
 17 18  1  0  0  0
 17 19  1  0  0  0
 19 20  2  0  0  0
 11 12  2  0  0  0
  5  6  2  0  0  0
 25 26  2  0  0  0
 26 27  1  0  0  0
 27 28  2  0  0  0
 28 29  1  0  0  0
 28 23  1  0  0  0
  6  1  1  0  0  0
 12  7  1  0  0  0
 20 14  1  0  0  0
 33 34  1  0  0  0
 29 30  1  0  0  0
M  END
> <Activity>
5.0

> <minimizedAffinity>
-8.25001

> <CNNscore>
0.4272657335

> <CNNaffinity>
6.4150981903

> <CNN_VS>
2.7409515381

$$$$
HIPS6998


 35 38  0  0  0  0  0  0  0  0999 V2000
   92.0534   89.5493   90.4256 C   0  0  0  0  0  0  0  0  0  0  0  0
   90.7840   90.1446   90.3802 C   0  0  0  0  0  0  0  0  0  0  0  0
   89.6357   89.3511   90.3639 C   0  0  0  0  0  0  0  0  0  0  0  0
   89.7426   87.9589   90.4010 C   0  0  0  0  0  0  0  0  0  0  0  0
   91.0052   87.3427   90.4618 C   0  0  0  0  0  0  0  0  0  0  0  0
   92.1575   88.1499   90.4808 C   0  0  0  0  0  0  0  0  0  0  0  0
   91.1210   85.8627   90.5005 C   0  0  0  0  0  0  0  0  0  0  0  0
   92.0597   85.1985   89.6919 C   0  0  0  0  0  0  0  0  0  0  0  0
   92.1640   83.8066   89.7284 C   0  0  0  0  0  0  0  0  0  0  0  0
   91.3334   83.0604   90.5664 C   0  0  0  0  0  0  0  0  0  0  0  0
   90.3829   83.7061   91.3788 C   0  0  0  0  0  0  0  0  0  0  0  0
   90.2889   85.1028   91.3430 C   0  0  0  0  0  0  0  0  0  0  0  0
   89.5149   83.0055   92.2321 O   0  0  0  0  0  0  0  0  0  0  0  0
   88.7828   83.5784   93.3163 C   0  0  0  0  0  0  0  0  0  0  0  0
   87.6546   84.4357   92.8065 C   0  0  0  0  0  0  0  0  0  0  0  0
   87.7315   85.8364   92.8807 C   0  0  0  0  0  0  0  0  0  0  0  0
   86.6833   86.6262   92.3982 C   0  0  0  0  0  0  0  0  0  0  0  0
   85.5555   86.0247   91.8303 C   0  0  0  0  0  0  0  0  0  0  0  0
   84.2415   87.0171   91.2260 Cl  0  0  0  0  0  0  0  0  0  0  0  0
   85.4783   84.6310   91.7416 C   0  0  0  0  0  0  0  0  0  0  0  0
   86.5248   83.8388   92.2233 C   0  0  0  0  0  0  0  0  0  0  0  0
   93.2961   90.4009   90.4400 C   0  0  0  0  0  0  0  0  0  0  0  0
   93.2810   91.3438   89.3669 O   0  0  0  0  0  0  0  0  0  0  0  0
   91.7937   94.5693   90.5720 C   0  0  0  0  0  0  0  0  0  0  0  0
   92.4478   93.3221   90.5848 C   0  0  0  0  0  0  0  0  0  0  0  0
   92.6475   92.5974   89.3945 C   0  0  0  0  0  0  0  0  0  0  0  0
   92.2014   93.1352   88.1857 C   0  0  0  0  0  0  0  0  0  0  0  0
   91.5553   94.3704   88.1553 C   0  0  0  0  0  0  0  0  0  0  0  0
   91.3446   95.0926   89.3375 C   0  0  0  0  0  0  0  0  0  0  0  0
   90.6910   96.3236   89.2787 O   0  0  0  0  0  0  0  0  0  0  0  0
   90.3981   96.6597   88.4546 H   0  0  0  0  0  0  0  0  0  0  0  0
   91.5494   96.5553   91.8825 O   0  0  0  0  0  0  0  0  0  0  0  0
   91.5933   95.2962   91.8524 C   0  0  0  0  0  0  0  0  0  0  0  0
   91.4495   94.5879   93.0432 O   0  0  0  0  0  0  0  0  0  0  0  0
   91.4798   93.6514   93.0379 H   0  0  0  0  0  0  0  0  0  0  0  0
 32 33  2  0  0  0
 33 34  1  0  0  0
 33 24  1  0  0  0
 24 25  2  0  0  0
 25 26  1  0  0  0
 26 23  1  0  0  0
 23 22  1  0  0  0
 22  1  1  0  0  0
  1  2  2  0  0  0
  2  3  1  0  0  0
  3  4  2  0  0  0
  4  5  1  0  0  0
  5  7  1  0  0  0
  7  8  2  0  0  0
  8  9  1  0  0  0
  9 10  2  0  0  0
 10 11  1  0  0  0
 11 13  1  0  0  0
 13 14  1  0  0  0
 14 15  1  0  0  0
 15 16  2  0  0  0
 16 17  1  0  0  0
 17 18  2  0  0  0
 18 19  1  0  0  0
 18 20  1  0  0  0
 20 21  2  0  0  0
 11 12  2  0  0  0
  5  6  2  0  0  0
 26 27  2  0  0  0
 27 28  1  0  0  0
 28 29  2  0  0  0
 29 30  1  0  0  0
 29 24  1  0  0  0
  6  1  1  0  0  0
 12  7  1  0  0  0
 21 15  1  0  0  0
 34 35  1  0  0  0
 30 31  1  0  0  0
M  END
> <Activity>
5.3

> <minimizedAffinity>
-8.73626

> <CNNscore>
0.6508596539

> <CNNaffinity>
6.4772281647

> <CNN_VS>
4.2157664299

$$$$
HIPS6998


 35 38  0  0  0  0  0  0  0  0999 V2000
   91.7290   88.7037   89.9731 C   0  0  0  0  0  0  0  0  0  0  0  0
   90.6711   89.4401   89.4197 C   0  0  0  0  0  0  0  0  0  0  0  0
   89.3662   88.9478   89.4775 C   0  0  0  0  0  0  0  0  0  0  0  0
   89.1037   87.7223   90.0941 C   0  0  0  0  0  0  0  0  0  0  0  0
   90.1480   86.9756   90.6683 C   0  0  0  0  0  0  0  0  0  0  0  0
   91.4600   87.4804   90.6082 C   0  0  0  0  0  0  0  0  0  0  0  0
   89.8711   85.6721   91.3235 C   0  0  0  0  0  0  0  0  0  0  0  0
   90.8464   84.6597   91.3400 C   0  0  0  0  0  0  0  0  0  0  0  0
   90.5818   83.4341   91.9544 C   0  0  0  0  0  0  0  0  0  0  0  0
   89.3435   83.2009   92.5554 C   0  0  0  0  0  0  0  0  0  0  0  0
   88.3518   84.1992   92.5440 C   0  0  0  0  0  0  0  0  0  0  0  0
   88.6264   85.4288   91.9328 C   0  0  0  0  0  0  0  0  0  0  0  0
   87.0856   84.0156   93.1232 O   0  0  0  0  0  0  0  0  0  0  0  0
   85.8716   83.8002   92.4024 C   0  0  0  0  0  0  0  0  0  0  0  0
   85.6006   84.9408   91.4573 C   0  0  0  0  0  0  0  0  0  0  0  0
   85.7296   84.7650   90.0695 C   0  0  0  0  0  0  0  0  0  0  0  0
   85.4686   85.8265   89.1975 C   0  0  0  0  0  0  0  0  0  0  0  0
   85.0686   87.0678   89.7031 C   0  0  0  0  0  0  0  0  0  0  0  0
   84.7422   88.3981   88.6076 Cl  0  0  0  0  0  0  0  0  0  0  0  0
   84.9257   87.2457   91.0829 C   0  0  0  0  0  0  0  0  0  0  0  0
   85.1860   86.1862   91.9572 C   0  0  0  0  0  0  0  0  0  0  0  0
   93.1398   89.2287   89.9107 C   0  0  0  0  0  0  0  0  0  0  0  0
   93.3698   90.1967   90.9359 O   0  0  0  0  0  0  0  0  0  0  0  0
   93.2878   93.8275   89.9985 C   0  0  0  0  0  0  0  0  0  0  0  0
   93.6665   92.4713   90.0252 C   0  0  0  0  0  0  0  0  0  0  0  0
   93.0119   91.5535   90.8684 C   0  0  0  0  0  0  0  0  0  0  0  0
   91.9634   91.9977   91.6764 C   0  0  0  0  0  0  0  0  0  0  0  0
   91.5737   93.3364   91.6591 C   0  0  0  0  0  0  0  0  0  0  0  0
   92.2273   94.2572   90.8293 C   0  0  0  0  0  0  0  0  0  0  0  0
   91.8202   95.5914   90.8356 O   0  0  0  0  0  0  0  0  0  0  0  0
   91.1161   95.8638   91.3907 H   0  0  0  0  0  0  0  0  0  0  0  0
   94.6834   95.7228   89.5725 O   0  0  0  0  0  0  0  0  0  0  0  0
   94.0124   94.7653   89.1022 C   0  0  0  0  0  0  0  0  0  0  0  0
   93.9585   94.5941   87.7208 O   0  0  0  0  0  0  0  0  0  0  0  0
   93.4641   93.8871   87.3552 H   0  0  0  0  0  0  0  0  0  0  0  0
 32 33  2  0  0  0
 33 34  1  0  0  0
 33 24  1  0  0  0
 24 25  2  0  0  0
 25 26  1  0  0  0
 26 23  1  0  0  0
 23 22  1  0  0  0
 22  1  1  0  0  0
  1  2  2  0  0  0
  2  3  1  0  0  0
  3  4  2  0  0  0
  4  5  1  0  0  0
  5  7  1  0  0  0
  7  8  2  0  0  0
  8  9  1  0  0  0
  9 10  2  0  0  0
 10 11  1  0  0  0
 11 13  1  0  0  0
 13 14  1  0  0  0
 14 15  1  0  0  0
 15 16  2  0  0  0
 16 17  1  0  0  0
 17 18  2  0  0  0
 18 19  1  0  0  0
 18 20  1  0  0  0
 20 21  2  0  0  0
 11 12  2  0  0  0
  5  6  2  0  0  0
 26 27  2  0  0  0
 27 28  1  0  0  0
 28 29  2  0  0  0
 29 30  1  0  0  0
 29 24  1  0  0  0
  6  1  1  0  0  0
 12  7  1  0  0  0
 21 15  1  0  0  0
 34 35  1  0  0  0
 30 31  1  0  0  0
M  END
> <Activity>
5.3

> <minimizedAffinity>
-8.63378

> <CNNscore>
0.6432714462

> <CNNaffinity>
6.5480346680

> <CNN_VS>
4.2121639252

$$$$
HIPS6998


 35 38  0  0  0  0  0  0  0  0999 V2000
   86.7473   88.8414   88.8627 C   0  0  0  0  0  0  0  0  0  0  0  0
   85.9397   88.5188   87.7620 C   0  0  0  0  0  0  0  0  0  0  0  0
   85.3448   87.2592   87.6718 C   0  0  0  0  0  0  0  0  0  0  0  0
   85.5431   86.3142   88.6810 C   0  0  0  0  0  0  0  0  0  0  0  0
   86.3370   86.6228   89.8001 C   0  0  0  0  0  0  0  0  0  0  0  0
   86.9305   87.8957   89.8846 C   0  0  0  0  0  0  0  0  0  0  0  0
   86.5497   85.6191   90.8737 C   0  0  0  0  0  0  0  0  0  0  0  0
   85.5184   84.7375   91.2416 C   0  0  0  0  0  0  0  0  0  0  0  0
   85.7207   83.7970   92.2534 C   0  0  0  0  0  0  0  0  0  0  0  0
   86.9493   83.7257   92.9128 C   0  0  0  0  0  0  0  0  0  0  0  0
   87.9921   84.6037   92.5635 C   0  0  0  0  0  0  0  0  0  0  0  0
   87.7850   85.5394   91.5425 C   0  0  0  0  0  0  0  0  0  0  0  0
   89.2439   84.5839   93.2000 O   0  0  0  0  0  0  0  0  0  0  0  0
   90.4988   84.8202   92.5604 C   0  0  0  0  0  0  0  0  0  0  0  0
   90.8331   83.7026   91.6081 C   0  0  0  0  0  0  0  0  0  0  0  0
   90.5161   82.3721   91.9283 C   0  0  0  0  0  0  0  0  0  0  0  0
   90.8225   81.3403   91.0355 C   0  0  0  0  0  0  0  0  0  0  0  0
   91.4389   81.6295   89.8138 C   0  0  0  0  0  0  0  0  0  0  0  0
   91.8229   80.3339   88.6955 Cl  0  0  0  0  0  0  0  0  0  0  0  0
   91.7455   82.9535   89.4833 C   0  0  0  0  0  0  0  0  0  0  0  0
   91.4404   83.9871   90.3739 C   0  0  0  0  0  0  0  0  0  0  0  0
   87.3944   90.1982   88.9634 C   0  0  0  0  0  0  0  0  0  0  0  0
   88.3218   90.2418   90.0492 O   0  0  0  0  0  0  0  0  0  0  0  0
   92.0003   90.2547   89.3170 C   0  0  0  0  0  0  0  0  0  0  0  0
   90.6577   90.6749   89.3804 C   0  0  0  0  0  0  0  0  0  0  0  0
   89.6736   89.8660   89.9797 C   0  0  0  0  0  0  0  0  0  0  0  0
   90.0435   88.6374   90.5303 C   0  0  0  0  0  0  0  0  0  0  0  0
   91.3692   88.2083   90.4790 C   0  0  0  0  0  0  0  0  0  0  0  0
   92.3519   89.0041   89.8753 C   0  0  0  0  0  0  0  0  0  0  0  0
   93.6696   88.5481   89.8336 O   0  0  0  0  0  0  0  0  0  0  0  0
   93.8900   87.7175   90.2072 H   0  0  0  0  0  0  0  0  0  0  0  0
   93.1221   92.3435   89.0003 O   0  0  0  0  0  0  0  0  0  0  0  0
   93.0054   91.1341   88.6654 C   0  0  0  0  0  0  0  0  0  0  0  0
   93.8374   90.6269   87.6700 O   0  0  0  0  0  0  0  0  0  0  0  0
   93.7633   89.7299   87.4095 H   0  0  0  0  0  0  0  0  0  0  0  0
 32 33  2  0  0  0
 33 34  1  0  0  0
 33 24  1  0  0  0
 24 25  2  0  0  0
 25 26  1  0  0  0
 26 23  1  0  0  0
 23 22  1  0  0  0
 22  1  1  0  0  0
  1  2  2  0  0  0
  2  3  1  0  0  0
  3  4  2  0  0  0
  4  5  1  0  0  0
  5  7  1  0  0  0
  7  8  2  0  0  0
  8  9  1  0  0  0
  9 10  2  0  0  0
 10 11  1  0  0  0
 11 13  1  0  0  0
 13 14  1  0  0  0
 14 15  1  0  0  0
 15 16  2  0  0  0
 16 17  1  0  0  0
 17 18  2  0  0  0
 18 19  1  0  0  0
 18 20  1  0  0  0
 20 21  2  0  0  0
 11 12  2  0  0  0
  5  6  2  0  0  0
 26 27  2  0  0  0
 27 28  1  0  0  0
 28 29  2  0  0  0
 29 30  1  0  0  0
 29 24  1  0  0  0
  6  1  1  0  0  0
 12  7  1  0  0  0
 21 15  1  0  0  0
 34 35  1  0  0  0
 30 31  1  0  0  0
M  END
> <Activity>
5.3

> <minimizedAffinity>
-10.09211

> <CNNscore>
0.5922684669

> <CNNaffinity>
6.8748025894

> <CNN_VS>
4.0717287064

$$$$
HIPS7006


 36 39  0  0  0  0  0  0  0  0999 V2000
   84.9894   86.8337   89.2391 C   0  0  0  0  0  0  0  0  0  0  0  0
   84.2011   86.9756   90.3888 C   0  0  0  0  0  0  0  0  0  0  0  0
   84.8051   87.0684   91.6438 C   0  0  0  0  0  0  0  0  0  0  0  0
   86.1977   87.0356   91.7599 C   0  0  0  0  0  0  0  0  0  0  0  0
   87.0080   86.8646   90.6201 C   0  0  0  0  0  0  0  0  0  0  0  0
   86.3824   86.7170   89.3674 C   0  0  0  0  0  0  0  0  0  0  0  0
   88.4964   86.9028   90.7233 C   0  0  0  0  0  0  0  0  0  0  0  0
   89.2245   88.0116   90.2517 C   0  0  0  0  0  0  0  0  0  0  0  0
   90.6197   88.0212   90.3114 C   0  0  0  0  0  0  0  0  0  0  0  0
   91.3074   86.9387   90.8613 C   0  0  0  0  0  0  0  0  0  0  0  0
   90.6089   85.8405   91.3710 C   0  0  0  0  0  0  0  0  0  0  0  0
   89.2054   85.8163   91.2789 C   0  0  0  0  0  0  0  0  0  0  0  0
   91.3433   84.8036   91.9688 O   0  0  0  0  0  0  0  0  0  0  0  0
   90.9305   83.4369   92.0310 C   0  0  0  0  0  0  0  0  0  0  0  0
   91.1014   82.7431   90.7057 C   0  0  0  0  0  0  0  0  0  0  0  0
   91.8235   83.3597   89.6712 C   0  0  0  0  0  0  0  0  0  0  0  0
   92.0438   82.6855   88.4658 C   0  0  0  0  0  0  0  0  0  0  0  0
   91.5540   81.3845   88.2865 C   0  0  0  0  0  0  0  0  0  0  0  0
   91.7619   80.7054   87.0883 O   0  0  0  0  0  0  0  0  0  0  0  0
   90.8436   80.7627   89.3182 C   0  0  0  0  0  0  0  0  0  0  0  0
   90.6200   81.4356   90.5230 C   0  0  0  0  0  0  0  0  0  0  0  0
   92.2371   81.1164   86.3932 H   0  0  0  0  0  0  0  0  0  0  0  0
   84.3652   86.8852   87.8673 C   0  0  0  0  0  0  0  0  0  0  0  0
   84.9800   87.8788   87.0412 O   0  0  0  0  0  0  0  0  0  0  0  0
   85.6466   91.4349   88.0510 C   0  0  0  0  0  0  0  0  0  0  0  0
   85.8527   90.0630   87.8106 C   0  0  0  0  0  0  0  0  0  0  0  0
   84.8637   89.2734   87.1939 C   0  0  0  0  0  0  0  0  0  0  0  0
   83.6966   89.8877   86.7376 C   0  0  0  0  0  0  0  0  0  0  0  0
   83.5182   91.2636   86.8781 C   0  0  0  0  0  0  0  0  0  0  0  0
   84.4872   92.0506   87.5100 C   0  0  0  0  0  0  0  0  0  0  0  0
   84.2691   93.4294   87.5490 O   0  0  0  0  0  0  0  0  0  0  0  0
   83.4879   93.7908   87.1786 H   0  0  0  0  0  0  0  0  0  0  0  0
   87.4215   91.4993   89.6598 O   0  0  0  0  0  0  0  0  0  0  0  0
   86.6017   92.1386   88.9496 C   0  0  0  0  0  0  0  0  0  0  0  0
   86.6615   93.5306   88.9477 O   0  0  0  0  0  0  0  0  0  0  0  0
   86.0602   94.0247   88.4259 H   0  0  0  0  0  0  0  0  0  0  0  0
 33 34  2  0  0  0
 34 35  1  0  0  0
 34 25  1  0  0  0
 25 26  2  0  0  0
 26 27  1  0  0  0
 27 24  1  0  0  0
 24 23  1  0  0  0
 23  1  1  0  0  0
  1  2  2  0  0  0
  2  3  1  0  0  0
  3  4  2  0  0  0
  4  5  1  0  0  0
  5  7  1  0  0  0
  7  8  2  0  0  0
  8  9  1  0  0  0
  9 10  2  0  0  0
 10 11  1  0  0  0
 11 13  1  0  0  0
 13 14  1  0  0  0
 14 15  1  0  0  0
 15 16  2  0  0  0
 16 17  1  0  0  0
 17 18  2  0  0  0
 18 19  1  0  0  0
 18 20  1  0  0  0
 20 21  2  0  0  0
 11 12  2  0  0  0
  5  6  2  0  0  0
 27 28  2  0  0  0
 28 29  1  0  0  0
 29 30  2  0  0  0
 30 31  1  0  0  0
 30 25  1  0  0  0
  6  1  1  0  0  0
 12  7  1  0  0  0
 21 15  1  0  0  0
 35 36  1  0  0  0
 19 22  1  0  0  0
 31 32  1  0  0  0
M  END
> <Activity>
6.5

> <minimizedAffinity>
-8.16475

> <CNNscore>
0.5363705754

> <CNNaffinity>
6.1125087738

> <CNN_VS>
3.2785699368

$$$$
HIPS7006


 36 39  0  0  0  0  0  0  0  0999 V2000
   90.1545   89.1410   89.7551 C   0  0  0  0  0  0  0  0  0  0  0  0
   91.4914   89.1859   89.3378 C   0  0  0  0  0  0  0  0  0  0  0  0
   92.3469   88.1186   89.6156 C   0  0  0  0  0  0  0  0  0  0  0  0
   91.8727   86.9941   90.2972 C   0  0  0  0  0  0  0  0  0  0  0  0
   90.5400   86.9406   90.7512 C   0  0  0  0  0  0  0  0  0  0  0  0
   89.7040   88.0479   90.5119 C   0  0  0  0  0  0  0  0  0  0  0  0
   90.0031   85.7156   91.4136 C   0  0  0  0  0  0  0  0  0  0  0  0
   90.8534   84.6453   91.7499 C   0  0  0  0  0  0  0  0  0  0  0  0
   90.3369   83.4843   92.3294 C   0  0  0  0  0  0  0  0  0  0  0  0
   88.9723   83.3819   92.6024 C   0  0  0  0  0  0  0  0  0  0  0  0
   88.1102   84.4434   92.3130 C   0  0  0  0  0  0  0  0  0  0  0  0
   88.6256   85.5987   91.6977 C   0  0  0  0  0  0  0  0  0  0  0  0
   86.7560   84.3153   92.6621 O   0  0  0  0  0  0  0  0  0  0  0  0
   85.7824   85.3569   92.5651 C   0  0  0  0  0  0  0  0  0  0  0  0
   85.6719   85.8860   91.1598 C   0  0  0  0  0  0  0  0  0  0  0  0
   85.7499   87.2664   90.9144 C   0  0  0  0  0  0  0  0  0  0  0  0
   85.7197   87.7524   89.6032 C   0  0  0  0  0  0  0  0  0  0  0  0
   85.6225   86.8630   88.5243 C   0  0  0  0  0  0  0  0  0  0  0  0
   85.5855   87.3356   87.2145 O   0  0  0  0  0  0  0  0  0  0  0  0
   85.5553   85.4869   88.7638 C   0  0  0  0  0  0  0  0  0  0  0  0
   85.5827   84.9989   90.0736 C   0  0  0  0  0  0  0  0  0  0  0  0
   85.6300   88.2564   87.0472 H   0  0  0  0  0  0  0  0  0  0  0  0
   89.1805   90.2121   89.3330 C   0  0  0  0  0  0  0  0  0  0  0  0
   88.8780   91.1079   90.4071 O   0  0  0  0  0  0  0  0  0  0  0  0
   89.9667   94.2680   92.1212 C   0  0  0  0  0  0  0  0  0  0  0  0
   89.3238   93.0365   91.8924 C   0  0  0  0  0  0  0  0  0  0  0  0
   89.5826   92.2826   90.7321 C   0  0  0  0  0  0  0  0  0  0  0  0
   90.5592   92.7289   89.8406 C   0  0  0  0  0  0  0  0  0  0  0  0
   91.2768   93.8958   90.1013 C   0  0  0  0  0  0  0  0  0  0  0  0
   91.0091   94.6616   91.2412 C   0  0  0  0  0  0  0  0  0  0  0  0
   91.8173   95.7774   91.4696 O   0  0  0  0  0  0  0  0  0  0  0  0
   92.4937   95.9986   90.8600 H   0  0  0  0  0  0  0  0  0  0  0  0
   89.3000   96.3774   93.0427 O   0  0  0  0  0  0  0  0  0  0  0  0
   89.4443   95.1378   93.2100 C   0  0  0  0  0  0  0  0  0  0  0  0
   89.0194   94.5708   94.4097 O   0  0  0  0  0  0  0  0  0  0  0  0
   89.1180   93.6502   94.5536 H   0  0  0  0  0  0  0  0  0  0  0  0
 33 34  2  0  0  0
 34 35  1  0  0  0
 34 25  1  0  0  0
 25 26  2  0  0  0
 26 27  1  0  0  0
 27 24  1  0  0  0
 24 23  1  0  0  0
 23  1  1  0  0  0
  1  2  2  0  0  0
  2  3  1  0  0  0
  3  4  2  0  0  0
  4  5  1  0  0  0
  5  7  1  0  0  0
  7  8  2  0  0  0
  8  9  1  0  0  0
  9 10  2  0  0  0
 10 11  1  0  0  0
 11 13  1  0  0  0
 13 14  1  0  0  0
 14 15  1  0  0  0
 15 16  2  0  0  0
 16 17  1  0  0  0
 17 18  2  0  0  0
 18 19  1  0  0  0
 18 20  1  0  0  0
 20 21  2  0  0  0
 11 12  2  0  0  0
  5  6  2  0  0  0
 27 28  2  0  0  0
 28 29  1  0  0  0
 29 30  2  0  0  0
 30 31  1  0  0  0
 30 25  1  0  0  0
  6  1  1  0  0  0
 12  7  1  0  0  0
 21 15  1  0  0  0
 35 36  1  0  0  0
 19 22  1  0  0  0
 31 32  1  0  0  0
M  END
> <Activity>
6.5

> <minimizedAffinity>
-8.23923

> <CNNscore>
0.5311756134

> <CNNaffinity>
6.2568454742

> <CNN_VS>
3.3234837055

$$$$
HIPS7006


 36 39  0  0  0  0  0  0  0  0999 V2000
   88.7352   85.1829   91.8498 C   0  0  0  0  0  0  0  0  0  0  0  0
   89.4699   84.0025   91.6764 C   0  0  0  0  0  0  0  0  0  0  0  0
   90.6927   84.0321   91.0041 C   0  0  0  0  0  0  0  0  0  0  0  0
   91.1983   85.2396   90.5137 C   0  0  0  0  0  0  0  0  0  0  0  0
   90.4625   86.4332   90.6515 C   0  0  0  0  0  0  0  0  0  0  0  0
   89.2054   86.3781   91.2832 C   0  0  0  0  0  0  0  0  0  0  0  0
   91.0257   87.7390   90.1984 C   0  0  0  0  0  0  0  0  0  0  0  0
   92.3411   87.8254   89.7043 C   0  0  0  0  0  0  0  0  0  0  0  0
   92.8761   89.0579   89.3236 C   0  0  0  0  0  0  0  0  0  0  0  0
   92.1027   90.2163   89.4079 C   0  0  0  0  0  0  0  0  0  0  0  0
   90.7814   90.1549   89.8598 C   0  0  0  0  0  0  0  0  0  0  0  0
   90.2546   88.9185   90.2758 C   0  0  0  0  0  0  0  0  0  0  0  0
   90.0253   91.3381   89.8691 O   0  0  0  0  0  0  0  0  0  0  0  0
   88.8059   91.5261   90.5900 C   0  0  0  0  0  0  0  0  0  0  0  0
   87.6108   91.5160   89.6742 C   0  0  0  0  0  0  0  0  0  0  0  0
   86.9284   92.7091   89.3867 C   0  0  0  0  0  0  0  0  0  0  0  0
   85.8636   92.7115   88.4800 C   0  0  0  0  0  0  0  0  0  0  0  0
   85.4775   91.5239   87.8435 C   0  0  0  0  0  0  0  0  0  0  0  0
   84.4147   91.5129   86.9432 O   0  0  0  0  0  0  0  0  0  0  0  0
   86.1614   90.3356   88.1188 C   0  0  0  0  0  0  0  0  0  0  0  0
   87.2244   90.3301   89.0267 C   0  0  0  0  0  0  0  0  0  0  0  0
   83.9524   92.3057   86.7544 H   0  0  0  0  0  0  0  0  0  0  0  0
   87.4914   85.1968   92.7025 C   0  0  0  0  0  0  0  0  0  0  0  0
   86.3353   84.7943   91.9616 O   0  0  0  0  0  0  0  0  0  0  0  0
   85.3611   85.7332   88.4575 C   0  0  0  0  0  0  0  0  0  0  0  0
   85.8248   84.9708   89.5466 C   0  0  0  0  0  0  0  0  0  0  0  0
   85.7769   85.4720   90.8613 C   0  0  0  0  0  0  0  0  0  0  0  0
   85.1781   86.7117   91.0900 C   0  0  0  0  0  0  0  0  0  0  0  0
   84.6241   87.4366   90.0355 C   0  0  0  0  0  0  0  0  0  0  0  0
   84.6880   86.9547   88.7235 C   0  0  0  0  0  0  0  0  0  0  0  0
   84.0487   87.7029   87.7328 O   0  0  0  0  0  0  0  0  0  0  0  0
   83.6169   88.5040   87.9560 H   0  0  0  0  0  0  0  0  0  0  0  0
   86.1799   86.0550   86.2284 O   0  0  0  0  0  0  0  0  0  0  0  0
   85.6976   85.2679   87.0845 C   0  0  0  0  0  0  0  0  0  0  0  0
   85.5657   83.9205   86.7551 O   0  0  0  0  0  0  0  0  0  0  0  0
   85.2091   83.3185   87.3783 H   0  0  0  0  0  0  0  0  0  0  0  0
 33 34  2  0  0  0
 34 35  1  0  0  0
 34 25  1  0  0  0
 25 26  2  0  0  0
 26 27  1  0  0  0
 27 24  1  0  0  0
 24 23  1  0  0  0
 23  1  1  0  0  0
  1  2  2  0  0  0
  2  3  1  0  0  0
  3  4  2  0  0  0
  4  5  1  0  0  0
  5  7  1  0  0  0
  7  8  2  0  0  0
  8  9  1  0  0  0
  9 10  2  0  0  0
 10 11  1  0  0  0
 11 13  1  0  0  0
 13 14  1  0  0  0
 14 15  1  0  0  0
 15 16  2  0  0  0
 16 17  1  0  0  0
 17 18  2  0  0  0
 18 19  1  0  0  0
 18 20  1  0  0  0
 20 21  2  0  0  0
 11 12  2  0  0  0
  5  6  2  0  0  0
 27 28  2  0  0  0
 28 29  1  0  0  0
 29 30  2  0  0  0
 30 31  1  0  0  0
 30 25  1  0  0  0
  6  1  1  0  0  0
 12  7  1  0  0  0
 21 15  1  0  0  0
 35 36  1  0  0  0
 19 22  1  0  0  0
 31 32  1  0  0  0
M  END
> <Activity>
6.5

> <minimizedAffinity>
-9.06220

> <CNNscore>
0.5051862001

> <CNNaffinity>
6.3344879150

> <CNN_VS>
3.2000958920

$$$$
HIPS6999


 35 38  0  0  0  0  0  0  0  0999 V2000
   90.2604   85.4324   90.7509 C   0  0  0  0  0  0  0  0  0  0  0  0
   91.3157   86.3212   90.4756 C   0  0  0  0  0  0  0  0  0  0  0  0
   91.0788   87.6949   90.3875 C   0  0  0  0  0  0  0  0  0  0  0  0
   89.7890   88.1981   90.5676 C   0  0  0  0  0  0  0  0  0  0  0  0
   88.7208   87.3268   90.8257 C   0  0  0  0  0  0  0  0  0  0  0  0
   88.9635   85.9477   90.9310 C   0  0  0  0  0  0  0  0  0  0  0  0
   91.3513   81.8928   89.8730 C   0  0  0  0  0  0  0  0  0  0  0  0
   90.9612   81.2046   91.0265 C   0  0  0  0  0  0  0  0  0  0  0  0
   90.3537   81.8827   92.0848 C   0  0  0  0  0  0  0  0  0  0  0  0
   90.1266   83.2579   91.9998 C   0  0  0  0  0  0  0  0  0  0  0  0
   90.5132   83.9726   90.8525 C   0  0  0  0  0  0  0  0  0  0  0  0
   91.1362   83.2828   89.7968 C   0  0  0  0  0  0  0  0  0  0  0  0
   91.9437   81.1606   88.8309 O   0  0  0  0  0  0  0  0  0  0  0  0
   91.2619   80.2385   87.9787 C   0  0  0  0  0  0  0  0  0  0  0  0
   92.8152   81.0251   82.4248 C   0  0  0  0  0  0  0  0  0  0  0  0
   92.4058   80.7994   83.8500 C   0  0  0  0  0  0  0  0  0  0  0  0
   93.3479   80.3657   84.7945 C   0  0  0  0  0  0  0  0  0  0  0  0
   92.9759   80.1855   86.1300 C   0  0  0  0  0  0  0  0  0  0  0  0
   91.6587   80.4429   86.5399 C   0  0  0  0  0  0  0  0  0  0  0  0
   90.7251   80.9092   85.6005 C   0  0  0  0  0  0  0  0  0  0  0  0
   91.0966   81.0867   84.2646 C   0  0  0  0  0  0  0  0  0  0  0  0
   87.3426   87.8714   91.0628 C   0  0  0  0  0  0  0  0  0  0  0  0
   86.7162   88.1211   89.8076 O   0  0  0  0  0  0  0  0  0  0  0  0
   86.2962   87.1225   88.9167 C   0  0  0  0  0  0  0  0  0  0  0  0
   85.8734   85.8552   89.3504 C   0  0  0  0  0  0  0  0  0  0  0  0
   85.4756   84.8926   88.4222 C   0  0  0  0  0  0  0  0  0  0  0  0
   85.4940   85.1697   87.0510 C   0  0  0  0  0  0  0  0  0  0  0  0
   85.1581   84.1347   86.1756 O   0  0  0  0  0  0  0  0  0  0  0  0
   85.8800   86.4579   86.6022 C   0  0  0  0  0  0  0  0  0  0  0  0
   86.2968   87.4115   87.5482 C   0  0  0  0  0  0  0  0  0  0  0  0
   84.9082   83.2974   86.5139 H   0  0  0  0  0  0  0  0  0  0  0  0
   85.8362   86.8566   85.1779 C   0  0  0  0  0  0  0  0  0  0  0  0
   85.2155   87.8918   84.8162 O   0  0  0  0  0  0  0  0  0  0  0  0
   86.5371   86.1161   84.2300 O   0  0  0  0  0  0  0  0  0  0  0  0
   87.0020   85.3447   84.4883 H   0  0  0  0  0  0  0  0  0  0  0  0
 15 16  1  0  0  0
 16 17  2  0  0  0
 17 18  1  0  0  0
 18 19  2  0  0  0
 19 14  1  0  0  0
 14 13  1  0  0  0
 13  7  1  0  0  0
  7  8  2  0  0  0
  8  9  1  0  0  0
  9 10  2  0  0  0
 10 11  1  0  0  0
 11  1  1  0  0  0
  1  2  2  0  0  0
  2  3  1  0  0  0
  3  4  2  0  0  0
  4  5  1  0  0  0
  5 22  1  0  0  0
 22 23  1  0  0  0
 23 24  1  0  0  0
 24 25  2  0  0  0
 25 26  1  0  0  0
 26 27  2  0  0  0
 27 28  1  0  0  0
 27 29  1  0  0  0
 29 32  1  0  0  0
 32 33  2  0  0  0
 32 34  1  0  0  0
 29 30  2  0  0  0
  5  6  2  0  0  0
 11 12  2  0  0  0
 19 20  1  0  0  0
 20 21  2  0  0  0
 21 16  1  0  0  0
 12  7  1  0  0  0
  6  1  1  0  0  0
 30 24  1  0  0  0
 28 31  1  0  0  0
 34 35  1  0  0  0
M  END
> <Activity>
7.6

> <minimizedAffinity>
-10.12911

> <CNNscore>
0.7301561832

> <CNNaffinity>
6.5829563141

> <CNN_VS>
4.8065862656

$$$$
HIPS6999


 35 38  0  0  0  0  0  0  0  0999 V2000
   85.6673   85.4086   89.0041 C   0  0  0  0  0  0  0  0  0  0  0  0
   85.8361   84.5188   87.9274 C   0  0  0  0  0  0  0  0  0  0  0  0
   85.2314   84.7768   86.6950 C   0  0  0  0  0  0  0  0  0  0  0  0
   84.4487   85.9200   86.5225 C   0  0  0  0  0  0  0  0  0  0  0  0
   84.2542   86.8101   87.5886 C   0  0  0  0  0  0  0  0  0  0  0  0
   84.8768   86.5583   88.8218 C   0  0  0  0  0  0  0  0  0  0  0  0
   88.2734   85.2713   91.7752 C   0  0  0  0  0  0  0  0  0  0  0  0
   87.5600   84.5990   92.7729 C   0  0  0  0  0  0  0  0  0  0  0  0
   86.2413   84.1971   92.5524 C   0  0  0  0  0  0  0  0  0  0  0  0
   85.6217   84.4611   91.3292 C   0  0  0  0  0  0  0  0  0  0  0  0
   86.3165   85.1388   90.3121 C   0  0  0  0  0  0  0  0  0  0  0  0
   87.6405   85.5510   90.5483 C   0  0  0  0  0  0  0  0  0  0  0  0
   89.6024   85.6394   92.0422 O   0  0  0  0  0  0  0  0  0  0  0  0
   90.6205   84.7617   92.5266 C   0  0  0  0  0  0  0  0  0  0  0  0
   91.6644   80.4812   88.7234 C   0  0  0  0  0  0  0  0  0  0  0  0
   91.3741   81.5900   89.6908 C   0  0  0  0  0  0  0  0  0  0  0  0
   90.7697   81.3092   90.9253 C   0  0  0  0  0  0  0  0  0  0  0  0
   90.5274   82.3368   91.8417 C   0  0  0  0  0  0  0  0  0  0  0  0
   90.8921   83.6575   91.5386 C   0  0  0  0  0  0  0  0  0  0  0  0
   91.5275   83.9321   90.3169 C   0  0  0  0  0  0  0  0  0  0  0  0
   91.7672   82.9049   89.3996 C   0  0  0  0  0  0  0  0  0  0  0  0
   83.4492   88.0611   87.3904 C   0  0  0  0  0  0  0  0  0  0  0  0
   84.3019   89.1936   87.5341 O   0  0  0  0  0  0  0  0  0  0  0  0
   83.8545   90.5210   87.6042 C   0  0  0  0  0  0  0  0  0  0  0  0
   82.5563   90.8575   88.0219 C   0  0  0  0  0  0  0  0  0  0  0  0
   82.1568   92.1936   88.0635 C   0  0  0  0  0  0  0  0  0  0  0  0
   83.0358   93.2155   87.6889 C   0  0  0  0  0  0  0  0  0  0  0  0
   82.5444   94.5228   87.6798 O   0  0  0  0  0  0  0  0  0  0  0  0
   84.3615   92.8927   87.3041 C   0  0  0  0  0  0  0  0  0  0  0  0
   84.7437   91.5403   87.2485 C   0  0  0  0  0  0  0  0  0  0  0  0
   81.6610   94.6931   87.9420 H   0  0  0  0  0  0  0  0  0  0  0  0
   85.3761   93.9213   86.9847 C   0  0  0  0  0  0  0  0  0  0  0  0
   85.9629   93.9249   85.8696 O   0  0  0  0  0  0  0  0  0  0  0  0
   85.6462   94.9347   87.9003 O   0  0  0  0  0  0  0  0  0  0  0  0
   85.2154   94.9415   88.7323 H   0  0  0  0  0  0  0  0  0  0  0  0
 15 16  1  0  0  0
 16 17  2  0  0  0
 17 18  1  0  0  0
 18 19  2  0  0  0
 19 14  1  0  0  0
 14 13  1  0  0  0
 13  7  1  0  0  0
  7  8  2  0  0  0
  8  9  1  0  0  0
  9 10  2  0  0  0
 10 11  1  0  0  0
 11  1  1  0  0  0
  1  2  2  0  0  0
  2  3  1  0  0  0
  3  4  2  0  0  0
  4  5  1  0  0  0
  5 22  1  0  0  0
 22 23  1  0  0  0
 23 24  1  0  0  0
 24 25  2  0  0  0
 25 26  1  0  0  0
 26 27  2  0  0  0
 27 28  1  0  0  0
 27 29  1  0  0  0
 29 32  1  0  0  0
 32 33  2  0  0  0
 32 34  1  0  0  0
 29 30  2  0  0  0
  5  6  2  0  0  0
 11 12  2  0  0  0
 19 20  1  0  0  0
 20 21  2  0  0  0
 21 16  1  0  0  0
 12  7  1  0  0  0
  6  1  1  0  0  0
 30 24  1  0  0  0
 28 31  1  0  0  0
 34 35  1  0  0  0
M  END
> <Activity>
7.6

> <minimizedAffinity>
-9.43533

> <CNNscore>
0.7248156071

> <CNNaffinity>
6.2774553299

> <CNN_VS>
4.5499978065

$$$$
HIPS6999


 35 38  0  0  0  0  0  0  0  0999 V2000
   88.8049   88.1434   90.7750 C   0  0  0  0  0  0  0  0  0  0  0  0
   90.0876   87.9200   90.2416 C   0  0  0  0  0  0  0  0  0  0  0  0
   90.8012   88.9666   89.6532 C   0  0  0  0  0  0  0  0  0  0  0  0
   90.2445   90.2451   89.5851 C   0  0  0  0  0  0  0  0  0  0  0  0
   88.9602   90.4842   90.0955 C   0  0  0  0  0  0  0  0  0  0  0  0
   88.2510   89.4349   90.7021 C   0  0  0  0  0  0  0  0  0  0  0  0
   88.0105   84.8250   92.4619 C   0  0  0  0  0  0  0  0  0  0  0  0
   86.6191   84.9141   92.5734 C   0  0  0  0  0  0  0  0  0  0  0  0
   85.9421   86.0438   92.1105 C   0  0  0  0  0  0  0  0  0  0  0  0
   86.6498   87.0970   91.5276 C   0  0  0  0  0  0  0  0  0  0  0  0
   88.0491   87.0328   91.4077 C   0  0  0  0  0  0  0  0  0  0  0  0
   88.7236   85.8960   91.8887 C   0  0  0  0  0  0  0  0  0  0  0  0
   88.6412   83.6598   92.9287 O   0  0  0  0  0  0  0  0  0  0  0  0
   90.0521   83.4353   92.9457 C   0  0  0  0  0  0  0  0  0  0  0  0
   91.8298   81.0171   87.9588 C   0  0  0  0  0  0  0  0  0  0  0  0
   91.3926   81.6315   89.2553 C   0  0  0  0  0  0  0  0  0  0  0  0
   91.6197   82.9936   89.5028 C   0  0  0  0  0  0  0  0  0  0  0  0
   91.1845   83.5754   90.6971 C   0  0  0  0  0  0  0  0  0  0  0  0
   90.5109   82.8045   91.6569 C   0  0  0  0  0  0  0  0  0  0  0  0
   90.2544   81.4493   91.3936 C   0  0  0  0  0  0  0  0  0  0  0  0
   90.6921   80.8671   90.2005 C   0  0  0  0  0  0  0  0  0  0  0  0
   88.3798   91.8677   90.0617 C   0  0  0  0  0  0  0  0  0  0  0  0
   87.1660   91.8475   89.3156 O   0  0  0  0  0  0  0  0  0  0  0  0
   86.2881   92.9350   89.1974 C   0  0  0  0  0  0  0  0  0  0  0  0
   85.1799   92.9184   88.3346 C   0  0  0  0  0  0  0  0  0  0  0  0
   84.3431   94.0312   88.2458 C   0  0  0  0  0  0  0  0  0  0  0  0
   84.5934   95.1776   89.0075 C   0  0  0  0  0  0  0  0  0  0  0  0
   83.7612   96.2818   88.8103 O   0  0  0  0  0  0  0  0  0  0  0  0
   85.6848   95.1927   89.9121 C   0  0  0  0  0  0  0  0  0  0  0  0
   86.5308   94.0710   89.9765 C   0  0  0  0  0  0  0  0  0  0  0  0
   83.0501   96.2299   88.2024 H   0  0  0  0  0  0  0  0  0  0  0  0
   85.9590   96.3300   90.8182 C   0  0  0  0  0  0  0  0  0  0  0  0
   86.0520   97.5042   90.3705 O   0  0  0  0  0  0  0  0  0  0  0  0
   86.0567   96.1139   92.1901 O   0  0  0  0  0  0  0  0  0  0  0  0
   85.9889   95.2447   92.5334 H   0  0  0  0  0  0  0  0  0  0  0  0
 15 16  1  0  0  0
 16 17  2  0  0  0
 17 18  1  0  0  0
 18 19  2  0  0  0
 19 14  1  0  0  0
 14 13  1  0  0  0
 13  7  1  0  0  0
  7  8  2  0  0  0
  8  9  1  0  0  0
  9 10  2  0  0  0
 10 11  1  0  0  0
 11  1  1  0  0  0
  1  2  2  0  0  0
  2  3  1  0  0  0
  3  4  2  0  0  0
  4  5  1  0  0  0
  5 22  1  0  0  0
 22 23  1  0  0  0
 23 24  1  0  0  0
 24 25  2  0  0  0
 25 26  1  0  0  0
 26 27  2  0  0  0
 27 28  1  0  0  0
 27 29  1  0  0  0
 29 32  1  0  0  0
 32 33  2  0  0  0
 32 34  1  0  0  0
 29 30  2  0  0  0
  5  6  2  0  0  0
 11 12  2  0  0  0
 19 20  1  0  0  0
 20 21  2  0  0  0
 21 16  1  0  0  0
 12  7  1  0  0  0
  6  1  1  0  0  0
 30 24  1  0  0  0
 28 31  1  0  0  0
 34 35  1  0  0  0
M  END
> <Activity>
7.6

> <minimizedAffinity>
-8.32749

> <CNNscore>
0.6482039094

> <CNNaffinity>
6.0175848007

> <CNN_VS>
3.9006218910

$$$$
HIPS6981


 34 37  0  0  0  0  0  0  0  0999 V2000
   88.1627   90.7598   90.0594 C   0  0  0  0  0  0  0  0  0  0  0  0
   87.2905   90.7879   88.9580 C   0  0  0  0  0  0  0  0  0  0  0  0
   86.5361   89.6590   88.6309 C   0  0  0  0  0  0  0  0  0  0  0  0
   86.6494   88.4943   89.3950 C   0  0  0  0  0  0  0  0  0  0  0  0
   87.4970   88.4613   90.5138 C   0  0  0  0  0  0  0  0  0  0  0  0
   88.2388   89.6026   90.8529 C   0  0  0  0  0  0  0  0  0  0  0  0
   87.6598   87.2153   91.2842 C   0  0  0  0  0  0  0  0  0  0  0  0
   86.5760   86.6559   91.9788 C   0  0  0  0  0  0  0  0  0  0  0  0
   86.7389   85.4601   92.6858 C   0  0  0  0  0  0  0  0  0  0  0  0
   87.9902   84.8341   92.7310 C   0  0  0  0  0  0  0  0  0  0  0  0
   89.0878   85.4120   92.0878 C   0  0  0  0  0  0  0  0  0  0  0  0
   88.9117   86.5861   91.3371 C   0  0  0  0  0  0  0  0  0  0  0  0
   90.3427   84.7999   92.1914 O   0  0  0  0  0  0  0  0  0  0  0  0
   90.7235   83.6511   91.4802 C   0  0  0  0  0  0  0  0  0  0  0  0
   90.3492   82.3593   91.8996 C   0  0  0  0  0  0  0  0  0  0  0  0
   90.7125   81.2412   91.1427 C   0  0  0  0  0  0  0  0  0  0  0  0
   91.4436   81.4000   89.9617 C   0  0  0  0  0  0  0  0  0  0  0  0
   91.7771   80.3134   89.2206 F   0  0  0  0  0  0  0  0  0  0  0  0
   91.8181   82.6786   89.5391 C   0  0  0  0  0  0  0  0  0  0  0  0
   91.4581   83.7988   90.2963 C   0  0  0  0  0  0  0  0  0  0  0  0
   89.0893   91.9149   90.3350 C   0  0  0  0  0  0  0  0  0  0  0  0
   88.3440   93.1319   90.4226 O   0  0  0  0  0  0  0  0  0  0  0  0
   87.0852   95.7432   92.7388 C   0  0  0  0  0  0  0  0  0  0  0  0
   87.3093   94.9727   91.5834 C   0  0  0  0  0  0  0  0  0  0  0  0
   88.2188   93.9102   91.5871 C   0  0  0  0  0  0  0  0  0  0  0  0
   88.9623   93.6468   92.7477 C   0  0  0  0  0  0  0  0  0  0  0  0
   88.7498   94.3990   93.9013 C   0  0  0  0  0  0  0  0  0  0  0  0
   87.7968   95.4242   93.9235 C   0  0  0  0  0  0  0  0  0  0  0  0
   87.5691   96.0698   95.1399 O   0  0  0  0  0  0  0  0  0  0  0  0
   88.0625   95.8272   95.8986 H   0  0  0  0  0  0  0  0  0  0  0  0
   85.9615   97.5016   91.5811 O   0  0  0  0  0  0  0  0  0  0  0  0
   86.1227   96.8654   92.6562 C   0  0  0  0  0  0  0  0  0  0  0  0
   85.3473   97.1944   93.7665 O   0  0  0  0  0  0  0  0  0  0  0  0
   85.4592   96.7274   94.5711 H   0  0  0  0  0  0  0  0  0  0  0  0
 31 32  2  0  0  0
 32 33  1  0  0  0
 32 23  1  0  0  0
 23 24  2  0  0  0
 24 25  1  0  0  0
 25 22  1  0  0  0
 22 21  1  0  0  0
 21  1  1  0  0  0
  1  2  2  0  0  0
  2  3  1  0  0  0
  3  4  2  0  0  0
  4  5  1  0  0  0
  5  7  1  0  0  0
  7  8  2  0  0  0
  8  9  1  0  0  0
  9 10  2  0  0  0
 10 11  1  0  0  0
 11 13  1  0  0  0
 13 14  1  0  0  0
 14 15  2  0  0  0
 15 16  1  0  0  0
 16 17  2  0  0  0
 17 18  1  0  0  0
 17 19  1  0  0  0
 19 20  2  0  0  0
 11 12  2  0  0  0
  5  6  2  0  0  0
 25 26  2  0  0  0
 26 27  1  0  0  0
 27 28  2  0  0  0
 28 29  1  0  0  0
 28 23  1  0  0  0
  6  1  1  0  0  0
 12  7  1  0  0  0
 20 14  1  0  0  0
 33 34  1  0  0  0
 29 30  1  0  0  0
M  END
> <Activity>
8.4

> <minimizedAffinity>
-9.24454

> <CNNscore>
0.6155897975

> <CNNaffinity>
6.0834770203

> <CNN_VS>
3.7449264526

$$$$
HIPS6981


 34 37  0  0  0  0  0  0  0  0999 V2000
   87.7795   85.0574   92.5394 C   0  0  0  0  0  0  0  0  0  0  0  0
   86.7040   84.1614   92.6618 C   0  0  0  0  0  0  0  0  0  0  0  0
   85.5768   84.3021   91.8491 C   0  0  0  0  0  0  0  0  0  0  0  0
   85.5117   85.3385   90.9138 C   0  0  0  0  0  0  0  0  0  0  0  0
   86.5903   86.2245   90.7627 C   0  0  0  0  0  0  0  0  0  0  0  0
   87.7299   86.0694   91.5658 C   0  0  0  0  0  0  0  0  0  0  0  0
   86.4971   87.3516   89.8174 C   0  0  0  0  0  0  0  0  0  0  0  0
   87.6325   88.1106   89.4938 C   0  0  0  0  0  0  0  0  0  0  0  0
   87.5344   89.1621   88.5765 C   0  0  0  0  0  0  0  0  0  0  0  0
   86.2982   89.4826   88.0031 C   0  0  0  0  0  0  0  0  0  0  0  0
   85.1521   88.7675   88.3603 C   0  0  0  0  0  0  0  0  0  0  0  0
   85.2609   87.6804   89.2432 C   0  0  0  0  0  0  0  0  0  0  0  0
   83.9160   89.1393   87.8181 O   0  0  0  0  0  0  0  0  0  0  0  0
   83.6896   90.3287   87.1077 C   0  0  0  0  0  0  0  0  0  0  0  0
   83.8661   90.4057   85.7121 C   0  0  0  0  0  0  0  0  0  0  0  0
   83.5912   91.5967   85.0331 C   0  0  0  0  0  0  0  0  0  0  0  0
   83.1331   92.7157   85.7349 C   0  0  0  0  0  0  0  0  0  0  0  0
   82.8493   93.8632   85.0688 F   0  0  0  0  0  0  0  0  0  0  0  0
   82.9551   92.6465   87.1195 C   0  0  0  0  0  0  0  0  0  0  0  0
   83.2322   91.4566   87.8016 C   0  0  0  0  0  0  0  0  0  0  0  0
   88.9334   85.0089   93.5061 C   0  0  0  0  0  0  0  0  0  0  0  0
   89.5704   83.7302   93.4462 O   0  0  0  0  0  0  0  0  0  0  0  0
   91.4926   83.4420   90.2854 C   0  0  0  0  0  0  0  0  0  0  0  0
   90.8680   83.9700   91.4299 C   0  0  0  0  0  0  0  0  0  0  0  0
   90.1081   83.1592   92.2791 C   0  0  0  0  0  0  0  0  0  0  0  0
   89.9186   81.8082   91.9502 C   0  0  0  0  0  0  0  0  0  0  0  0
   90.5331   81.2692   90.8217 C   0  0  0  0  0  0  0  0  0  0  0  0
   91.3455   82.0603   90.0008 C   0  0  0  0  0  0  0  0  0  0  0  0
   92.0062   81.4309   88.9445 O   0  0  0  0  0  0  0  0  0  0  0  0
   91.8801   80.5150   88.7923 H   0  0  0  0  0  0  0  0  0  0  0  0
   92.6744   83.9968   88.2879 O   0  0  0  0  0  0  0  0  0  0  0  0
   92.2650   84.3635   89.4212 C   0  0  0  0  0  0  0  0  0  0  0  0
   92.5028   85.6704   89.8427 O   0  0  0  0  0  0  0  0  0  0  0  0
   92.2024   85.9534   90.6839 H   0  0  0  0  0  0  0  0  0  0  0  0
 31 32  2  0  0  0
 32 33  1  0  0  0
 32 23  1  0  0  0
 23 24  2  0  0  0
 24 25  1  0  0  0
 25 22  1  0  0  0
 22 21  1  0  0  0
 21  1  1  0  0  0
  1  2  2  0  0  0
  2  3  1  0  0  0
  3  4  2  0  0  0
  4  5  1  0  0  0
  5  7  1  0  0  0
  7  8  2  0  0  0
  8  9  1  0  0  0
  9 10  2  0  0  0
 10 11  1  0  0  0
 11 13  1  0  0  0
 13 14  1  0  0  0
 14 15  2  0  0  0
 15 16  1  0  0  0
 16 17  2  0  0  0
 17 18  1  0  0  0
 17 19  1  0  0  0
 19 20  2  0  0  0
 11 12  2  0  0  0
  5  6  2  0  0  0
 25 26  2  0  0  0
 26 27  1  0  0  0
 27 28  2  0  0  0
 28 29  1  0  0  0
 28 23  1  0  0  0
  6  1  1  0  0  0
 12  7  1  0  0  0
 20 14  1  0  0  0
 33 34  1  0  0  0
 29 30  1  0  0  0
M  END
> <Activity>
8.4

> <minimizedAffinity>
-8.19874

> <CNNscore>
0.5323117971

> <CNNaffinity>
6.0909423828

> <CNN_VS>
3.2422804832

$$$$
HIPS6981


 34 37  0  0  0  0  0  0  0  0999 V2000
   87.8521   84.6136   92.5523 C   0  0  0  0  0  0  0  0  0  0  0  0
   86.5859   84.0062   92.6001 C   0  0  0  0  0  0  0  0  0  0  0  0
   85.5065   84.5788   91.9236 C   0  0  0  0  0  0  0  0  0  0  0  0
   85.6802   85.7618   91.2000 C   0  0  0  0  0  0  0  0  0  0  0  0
   86.9459   86.3646   91.1221 C   0  0  0  0  0  0  0  0  0  0  0  0
   88.0333   85.7771   91.7855 C   0  0  0  0  0  0  0  0  0  0  0  0
   87.1157   87.6425   90.4074 C   0  0  0  0  0  0  0  0  0  0  0  0
   86.4753   87.8667   89.1789 C   0  0  0  0  0  0  0  0  0  0  0  0
   86.6259   89.0932   88.5236 C   0  0  0  0  0  0  0  0  0  0  0  0
   87.4417   90.0892   89.0735 C   0  0  0  0  0  0  0  0  0  0  0  0
   88.1265   89.8552   90.2687 C   0  0  0  0  0  0  0  0  0  0  0  0
   87.9351   88.6422   90.9508 C   0  0  0  0  0  0  0  0  0  0  0  0
   88.9809   90.8429   90.7733 O   0  0  0  0  0  0  0  0  0  0  0  0
   90.3709   90.6954   90.9030 C   0  0  0  0  0  0  0  0  0  0  0  0
   91.0754   91.2278   92.0007 C   0  0  0  0  0  0  0  0  0  0  0  0
   92.4540   91.0254   92.1168 C   0  0  0  0  0  0  0  0  0  0  0  0
   93.1396   90.2875   91.1473 C   0  0  0  0  0  0  0  0  0  0  0  0
   94.4741   90.0774   91.2745 F   0  0  0  0  0  0  0  0  0  0  0  0
   92.4471   89.7558   90.0557 C   0  0  0  0  0  0  0  0  0  0  0  0
   91.0680   89.9594   89.9360 C   0  0  0  0  0  0  0  0  0  0  0  0
   88.9867   84.0916   93.3943 C   0  0  0  0  0  0  0  0  0  0  0  0
   89.6042   82.9755   92.7482 O   0  0  0  0  0  0  0  0  0  0  0  0
   91.1792   82.0089   89.5306 C   0  0  0  0  0  0  0  0  0  0  0  0
   90.4556   81.9596   90.7359 C   0  0  0  0  0  0  0  0  0  0  0  0
   90.4041   83.0620   91.5950 C   0  0  0  0  0  0  0  0  0  0  0  0
   91.1354   84.2163   91.2753 C   0  0  0  0  0  0  0  0  0  0  0  0
   91.8545   84.2821   90.0836 C   0  0  0  0  0  0  0  0  0  0  0  0
   91.8606   83.2051   89.1893 C   0  0  0  0  0  0  0  0  0  0  0  0
   92.5219   83.3782   87.9723 O   0  0  0  0  0  0  0  0  0  0  0  0
   92.9598   84.1858   87.7878 H   0  0  0  0  0  0  0  0  0  0  0  0
   92.1544   79.9721   88.7591 O   0  0  0  0  0  0  0  0  0  0  0  0
   91.2060   80.7972   88.6799 C   0  0  0  0  0  0  0  0  0  0  0  0
   90.1458   80.5371   87.8134 O   0  0  0  0  0  0  0  0  0  0  0  0
   89.4353   81.1444   87.7470 H   0  0  0  0  0  0  0  0  0  0  0  0
 31 32  2  0  0  0
 32 33  1  0  0  0
 32 23  1  0  0  0
 23 24  2  0  0  0
 24 25  1  0  0  0
 25 22  1  0  0  0
 22 21  1  0  0  0
 21  1  1  0  0  0
  1  2  2  0  0  0
  2  3  1  0  0  0
  3  4  2  0  0  0
  4  5  1  0  0  0
  5  7  1  0  0  0
  7  8  2  0  0  0
  8  9  1  0  0  0
  9 10  2  0  0  0
 10 11  1  0  0  0
 11 13  1  0  0  0
 13 14  1  0  0  0
 14 15  2  0  0  0
 15 16  1  0  0  0
 16 17  2  0  0  0
 17 18  1  0  0  0
 17 19  1  0  0  0
 19 20  2  0  0  0
 11 12  2  0  0  0
  5  6  2  0  0  0
 25 26  2  0  0  0
 26 27  1  0  0  0
 27 28  2  0  0  0
 28 29  1  0  0  0
 28 23  1  0  0  0
  6  1  1  0  0  0
 12  7  1  0  0  0
 20 14  1  0  0  0
 33 34  1  0  0  0
 29 30  1  0  0  0
M  END
> <Activity>
8.4

> <minimizedAffinity>
-9.23517

> <CNNscore>
0.5084858537

> <CNNaffinity>
6.6550483704

> <CNN_VS>
3.3839979172

$$$$
HIPS6984


 33 36  0  0  0  0  0  0  0  0999 V2000
   90.6229   90.1277   90.1320 C   0  0  0  0  0  0  0  0  0  0  0  0
   91.9824   90.4516   90.0343 C   0  0  0  0  0  0  0  0  0  0  0  0
   92.9021   89.4362   90.1334 C   0  0  0  0  0  0  0  0  0  0  0  0
   92.5359   88.1216   90.3238 C   0  0  0  0  0  0  0  0  0  0  0  0
   91.1854   87.8430   90.4151 C   0  0  0  0  0  0  0  0  0  0  0  0
   90.2280   88.8374   90.3207 C   0  0  0  0  0  0  0  0  0  0  0  0
   90.7992   86.4476   90.6165 C   0  0  0  0  0  0  0  0  0  0  0  0
   91.6457   85.4593   90.1687 C   0  0  0  0  0  0  0  0  0  0  0  0
   91.3245   84.1070   90.3368 C   0  0  0  0  0  0  0  0  0  0  0  0
   90.1383   83.7535   90.9623 C   0  0  0  0  0  0  0  0  0  0  0  0
   89.2789   84.7259   91.4175 C   0  0  0  0  0  0  0  0  0  0  0  0
   89.6351   86.0712   91.2307 C   0  0  0  0  0  0  0  0  0  0  0  0
   88.0956   84.4760   92.0441 O   0  0  0  0  0  0  0  0  0  0  0  0
   86.8185   84.9693   91.7634 C   0  0  0  0  0  0  0  0  0  0  0  0
   86.6661   85.0780   90.2722 C   0  0  0  0  0  0  0  0  0  0  0  0
   85.9682   86.3056   89.7962 C   0  0  0  0  0  0  0  0  0  0  0  0
   84.8111   86.5576   90.7452 C   0  0  0  0  0  0  0  0  0  0  0  0
   85.3913   87.0237   92.0526 C   0  0  0  0  0  0  0  0  0  0  0  0
   86.5173   86.1765   92.5517 C   0  0  0  0  0  0  0  0  0  0  0  0
   89.6371   91.2143   90.0597 C   0  0  0  0  0  0  0  0  0  0  0  0
   88.3228   90.9256   90.1121 O   0  0  0  0  0  0  0  0  0  0  0  0
   85.3915   91.8028   88.0157 C   0  0  0  0  0  0  0  0  0  0  0  0
   86.4517   91.9233   88.8991 C   0  0  0  0  0  0  0  0  0  0  0  0
   87.2780   90.8796   89.2606 C   0  0  0  0  0  0  0  0  0  0  0  0
   86.9635   89.6368   88.6510 C   0  0  0  0  0  0  0  0  0  0  0  0
   85.9156   89.5270   87.7803 C   0  0  0  0  0  0  0  0  0  0  0  0
   85.1105   90.5893   87.4415 C   0  0  0  0  0  0  0  0  0  0  0  0
   84.0639   90.4053   86.5507 O   0  0  0  0  0  0  0  0  0  0  0  0
   83.9065   89.5588   86.1811 H   0  0  0  0  0  0  0  0  0  0  0  0
   84.1443   93.6731   88.6124 O   0  0  0  0  0  0  0  0  0  0  0  0
   84.5541   92.9437   87.6740 C   0  0  0  0  0  0  0  0  0  0  0  0
   84.1918   93.2615   86.3907 O   0  0  0  0  0  0  0  0  0  0  0  0
   84.4860   92.7317   85.6760 H   0  0  0  0  0  0  0  0  0  0  0  0
 30 31  2  0  0  0
 31 32  1  0  0  0
 31 22  1  0  0  0
 22 23  2  0  0  0
 23 24  1  0  0  0
 24 21  1  0  0  0
 21 20  1  0  0  0
 20  1  1  0  0  0
  1  2  2  0  0  0
  2  3  1  0  0  0
  3  4  2  0  0  0
  4  5  1  0  0  0
  5  7  1  0  0  0
  7  8  2  0  0  0
  8  9  1  0  0  0
  9 10  2  0  0  0
 10 11  1  0  0  0
 11 13  1  0  0  0
 13 14  1  0  0  0
 14 15  1  0  0  0
 15 16  1  0  0  0
 16 17  1  0  0  0
 17 18  1  0  0  0
 18 19  1  0  0  0
 11 12  2  0  0  0
  5  6  2  0  0  0
 24 25  2  0  0  0
 25 26  1  0  0  0
 26 27  2  0  0  0
 27 28  1  0  0  0
 27 22  1  0  0  0
  6  1  1  0  0  0
 12  7  1  0  0  0
 19 14  1  0  0  0
 32 33  1  0  0  0
 28 29  1  0  0  0
M  END
> <Activity>
10.3

> <minimizedAffinity>
-8.12953

> <CNNscore>
0.5630412102

> <CNNaffinity>
6.2698583603

> <CNN_VS>
3.5301885605

$$$$
HIPS6984


 33 36  0  0  0  0  0  0  0  0999 V2000
   88.0285   84.8360   92.2448 C   0  0  0  0  0  0  0  0  0  0  0  0
   88.8618   83.7597   92.5764 C   0  0  0  0  0  0  0  0  0  0  0  0
   90.1959   83.8486   92.2619 C   0  0  0  0  0  0  0  0  0  0  0  0
   90.7375   84.9508   91.6370 C   0  0  0  0  0  0  0  0  0  0  0  0
   89.8827   85.9913   91.3263 C   0  0  0  0  0  0  0  0  0  0  0  0
   88.5329   85.9401   91.6261 C   0  0  0  0  0  0  0  0  0  0  0  0
   90.4594   87.1599   90.6639 C   0  0  0  0  0  0  0  0  0  0  0  0
   91.7689   87.0994   90.2451 C   0  0  0  0  0  0  0  0  0  0  0  0
   92.3699   88.1897   89.6048 C   0  0  0  0  0  0  0  0  0  0  0  0
   91.6401   89.3487   89.3874 C   0  0  0  0  0  0  0  0  0  0  0  0
   90.3300   89.4292   89.7978 C   0  0  0  0  0  0  0  0  0  0  0  0
   89.7617   88.3154   90.4367 C   0  0  0  0  0  0  0  0  0  0  0  0
   89.5350   90.5220   89.6265 O   0  0  0  0  0  0  0  0  0  0  0  0
   89.6329   91.7924   90.2006 C   0  0  0  0  0  0  0  0  0  0  0  0
   90.1808   91.6461   91.5923 C   0  0  0  0  0  0  0  0  0  0  0  0
   89.5389   92.5151   92.6188 C   0  0  0  0  0  0  0  0  0  0  0  0
   89.3171   93.8729   91.9783 C   0  0  0  0  0  0  0  0  0  0  0  0
   88.2106   93.7225   90.9703 C   0  0  0  0  0  0  0  0  0  0  0  0
   88.3787   92.5513   90.0567 C   0  0  0  0  0  0  0  0  0  0  0  0
   86.5953   84.7318   92.5493 C   0  0  0  0  0  0  0  0  0  0  0  0
   85.7012   84.7006   91.5428 O   0  0  0  0  0  0  0  0  0  0  0  0
   85.3287   85.7425   88.0026 C   0  0  0  0  0  0  0  0  0  0  0  0
   85.6140   84.9697   89.1163 C   0  0  0  0  0  0  0  0  0  0  0  0
   85.4435   85.3968   90.4168 C   0  0  0  0  0  0  0  0  0  0  0  0
   84.9417   86.7184   90.5451 C   0  0  0  0  0  0  0  0  0  0  0  0
   84.6627   87.4738   89.4408 C   0  0  0  0  0  0  0  0  0  0  0  0
   84.8447   87.0166   88.1566 C   0  0  0  0  0  0  0  0  0  0  0  0
   84.5406   87.8384   87.0818 O   0  0  0  0  0  0  0  0  0  0  0  0
   84.2119   88.7030   87.2315 H   0  0  0  0  0  0  0  0  0  0  0  0
   86.2618   85.9014   85.8781 O   0  0  0  0  0  0  0  0  0  0  0  0
   85.5308   85.2343   86.6534 C   0  0  0  0  0  0  0  0  0  0  0  0
   84.9689   84.0739   86.1878 O   0  0  0  0  0  0  0  0  0  0  0  0
   84.4207   83.5609   86.7485 H   0  0  0  0  0  0  0  0  0  0  0  0
 30 31  2  0  0  0
 31 32  1  0  0  0
 31 22  1  0  0  0
 22 23  2  0  0  0
 23 24  1  0  0  0
 24 21  1  0  0  0
 21 20  1  0  0  0
 20  1  1  0  0  0
  1  2  2  0  0  0
  2  3  1  0  0  0
  3  4  2  0  0  0
  4  5  1  0  0  0
  5  7  1  0  0  0
  7  8  2  0  0  0
  8  9  1  0  0  0
  9 10  2  0  0  0
 10 11  1  0  0  0
 11 13  1  0  0  0
 13 14  1  0  0  0
 14 15  1  0  0  0
 15 16  1  0  0  0
 16 17  1  0  0  0
 17 18  1  0  0  0
 18 19  1  0  0  0
 11 12  2  0  0  0
  5  6  2  0  0  0
 24 25  2  0  0  0
 25 26  1  0  0  0
 26 27  2  0  0  0
 27 28  1  0  0  0
 27 22  1  0  0  0
  6  1  1  0  0  0
 12  7  1  0  0  0
 19 14  1  0  0  0
 32 33  1  0  0  0
 28 29  1  0  0  0
M  END
> <Activity>
10.3

> <minimizedAffinity>
-9.29421

> <CNNscore>
0.5411232114

> <CNNaffinity>
6.3691062927

> <CNN_VS>
3.4464712143

$$$$
HIPS6984


 33 36  0  0  0  0  0  0  0  0999 V2000
   90.5032   88.8354   90.0340 C   0  0  0  0  0  0  0  0  0  0  0  0
   91.7449   88.7609   89.3895 C   0  0  0  0  0  0  0  0  0  0  0  0
   92.4183   87.5639   89.4106 C   0  0  0  0  0  0  0  0  0  0  0  0
   91.9181   86.4439   90.0383 C   0  0  0  0  0  0  0  0  0  0  0  0
   90.6904   86.5581   90.6626 C   0  0  0  0  0  0  0  0  0  0  0  0
   89.9811   87.7460   90.6642 C   0  0  0  0  0  0  0  0  0  0  0  0
   90.1614   85.3685   91.3274 C   0  0  0  0  0  0  0  0  0  0  0  0
   90.9885   84.2800   91.4849 C   0  0  0  0  0  0  0  0  0  0  0  0
   90.5327   83.1159   92.1151 C   0  0  0  0  0  0  0  0  0  0  0  0
   89.2308   83.0539   92.5888 C   0  0  0  0  0  0  0  0  0  0  0  0
   88.3884   84.1310   92.4418 C   0  0  0  0  0  0  0  0  0  0  0  0
   88.8813   85.2809   91.8043 C   0  0  0  0  0  0  0  0  0  0  0  0
   87.0976   84.1640   92.8755 O   0  0  0  0  0  0  0  0  0  0  0  0
   86.0311   84.9532   92.4362 C   0  0  0  0  0  0  0  0  0  0  0  0
   85.7107   84.5752   91.0174 C   0  0  0  0  0  0  0  0  0  0  0  0
   85.4003   85.7186   90.1135 C   0  0  0  0  0  0  0  0  0  0  0  0
   84.5424   86.6907   90.9022 C   0  0  0  0  0  0  0  0  0  0  0  0
   85.4264   87.3444   91.9289 C   0  0  0  0  0  0  0  0  0  0  0  0
   86.2657   86.3820   92.7062 C   0  0  0  0  0  0  0  0  0  0  0  0
   89.7946   90.1220   90.0425 C   0  0  0  0  0  0  0  0  0  0  0  0
   90.4751   91.2554   90.2988 O   0  0  0  0  0  0  0  0  0  0  0  0
   92.7993   93.2446   88.2015 C   0  0  0  0  0  0  0  0  0  0  0  0
   91.6487   92.6078   88.6370 C   0  0  0  0  0  0  0  0  0  0  0  0
   91.5582   91.8982   89.8164 C   0  0  0  0  0  0  0  0  0  0  0  0
   92.7551   91.8612   90.5786 C   0  0  0  0  0  0  0  0  0  0  0  0
   93.8858   92.4926   90.1414 C   0  0  0  0  0  0  0  0  0  0  0  0
   93.9417   93.1921   88.9587 C   0  0  0  0  0  0  0  0  0  0  0  0
   95.1236   93.8086   88.5768 O   0  0  0  0  0  0  0  0  0  0  0  0
   95.8818   93.7480   89.1241 H   0  0  0  0  0  0  0  0  0  0  0  0
   93.0961   95.2069   86.9889 O   0  0  0  0  0  0  0  0  0  0  0  0
   92.8317   93.9787   86.9447 C   0  0  0  0  0  0  0  0  0  0  0  0
   92.5902   93.4038   85.7239 O   0  0  0  0  0  0  0  0  0  0  0  0
   92.3912   92.4899   85.6676 H   0  0  0  0  0  0  0  0  0  0  0  0
 30 31  2  0  0  0
 31 32  1  0  0  0
 31 22  1  0  0  0
 22 23  2  0  0  0
 23 24  1  0  0  0
 24 21  1  0  0  0
 21 20  1  0  0  0
 20  1  1  0  0  0
  1  2  2  0  0  0
  2  3  1  0  0  0
  3  4  2  0  0  0
  4  5  1  0  0  0
  5  7  1  0  0  0
  7  8  2  0  0  0
  8  9  1  0  0  0
  9 10  2  0  0  0
 10 11  1  0  0  0
 11 13  1  0  0  0
 13 14  1  0  0  0
 14 15  1  0  0  0
 15 16  1  0  0  0
 16 17  1  0  0  0
 17 18  1  0  0  0
 18 19  1  0  0  0
 11 12  2  0  0  0
  5  6  2  0  0  0
 24 25  2  0  0  0
 25 26  1  0  0  0
 26 27  2  0  0  0
 27 28  1  0  0  0
 27 22  1  0  0  0
  6  1  1  0  0  0
 12  7  1  0  0  0
 19 14  1  0  0  0
 32 33  1  0  0  0
 28 29  1  0  0  0
M  END
> <Activity>
10.3

> <minimizedAffinity>
-8.08119

> <CNNscore>
0.4951865077

> <CNNaffinity>
6.0758924484

> <CNN_VS>
3.0086998940

$$$$
HIPS7772


 44 48  0  0  0  0  0  0  0  0999 V2000
   91.8507   89.2778   90.3252 C   0  0  0  0  0  0  0  0  0  0  0  0
   90.6264   89.9372   90.5160 C   0  0  0  0  0  0  0  0  0  0  0  0
   89.4527   89.2008   90.6882 C   0  0  0  0  0  0  0  0  0  0  0  0
   89.4900   87.8039   90.6848 C   0  0  0  0  0  0  0  0  0  0  0  0
   90.7096   87.1240   90.5121 C   0  0  0  0  0  0  0  0  0  0  0  0
   91.8859   87.8758   90.3382 C   0  0  0  0  0  0  0  0  0  0  0  0
   90.7616   85.6417   90.5308 C   0  0  0  0  0  0  0  0  0  0  0  0
   91.8515   84.9869   90.0436 N   0  0  0  0  0  0  0  0  0  0  0  0
   91.9327   83.6326   90.0730 C   0  0  0  0  0  0  0  0  0  0  0  0
   90.8921   82.8804   90.6262 C   0  0  0  0  0  0  0  0  0  0  0  0
   89.7688   83.5658   91.1005 C   0  0  0  0  0  0  0  0  0  0  0  0
   89.7280   84.9221   91.0482 N   0  0  0  0  0  0  0  0  0  0  0  0
   90.9754   81.3794   90.7076 C   0  0  0  0  0  0  0  0  0  0  0  0
   91.7826   80.8580   89.6506 O   0  0  0  0  0  0  0  0  0  0  0  0
   91.4091   80.7936   88.2975 C   0  0  0  0  0  0  0  0  0  0  0  0
   90.0809   80.4856   87.9958 C   0  0  0  0  0  0  0  0  0  0  0  0
   89.6580   80.3919   86.6702 C   0  0  0  0  0  0  0  0  0  0  0  0
   90.5547   80.6077   85.6190 C   0  0  0  0  0  0  0  0  0  0  0  0
   90.0547   80.5643   84.3162 O   0  0  0  0  0  0  0  0  0  0  0  0
   91.9112   80.8943   85.9038 C   0  0  0  0  0  0  0  0  0  0  0  0
   92.3185   81.0136   87.2454 C   0  0  0  0  0  0  0  0  0  0  0  0
   89.1499   80.3710   84.1678 H   0  0  0  0  0  0  0  0  0  0  0  0
   92.9269   81.0306   84.8387 C   0  0  0  0  0  0  0  0  0  0  0  0
   93.9515   80.2972   84.8464 O   0  0  0  0  0  0  0  0  0  0  0  0
   92.7348   81.9245   83.7900 O   0  0  0  0  0  0  0  0  0  0  0  0
   91.9759   82.4739   83.7758 H   0  0  0  0  0  0  0  0  0  0  0  0
   93.2311   90.7525   92.3982 O   0  0  0  0  0  0  0  0  0  0  0  0
   93.6782   90.7924   91.2205 C   0  0  0  0  0  0  0  0  0  0  0  0
   93.0799   90.0051   90.1782 N   0  0  0  0  0  0  0  0  0  0  0  0
   93.5412   89.9616   89.3096 H   0  0  0  0  0  0  0  0  0  0  0  0
   94.7925   91.7450   90.8898 C   0  0  0  0  0  0  0  0  0  0  0  0
   94.4853   92.5622   89.6268 C   0  0  0  0  0  0  0  0  0  0  0  0
   93.3331   93.5067   89.8130 C   0  0  0  0  0  0  0  0  0  0  0  0
   93.4844   94.8442   89.9148 N   0  0  0  0  0  0  0  0  0  0  0  0
   92.2245   95.2928   90.0711 C   0  0  0  0  0  0  0  0  0  0  0  0
   91.3593   94.2153   90.0547 C   0  0  0  0  0  0  0  0  0  0  0  0
   92.0756   93.1311   89.8829 O   0  0  0  0  0  0  0  0  0  0  0  0
   89.8876   94.2263   90.2122 C   0  0  0  0  0  0  0  0  0  0  0  0
   89.1171   93.0709   89.9827 C   0  0  0  0  0  0  0  0  0  0  0  0
   87.7282   93.1050   90.1378 C   0  0  0  0  0  0  0  0  0  0  0  0
   87.0925   94.2902   90.5180 C   0  0  0  0  0  0  0  0  0  0  0  0
   85.3493   94.3272   90.7053 Cl  0  0  0  0  0  0  0  0  0  0  0  0
   87.8472   95.4452   90.7399 C   0  0  0  0  0  0  0  0  0  0  0  0
   89.2374   95.4140   90.5920 C   0  0  0  0  0  0  0  0  0  0  0  0
 27 28  2  0  0  0
 28 31  1  0  0  0
 31 32  1  0  0  0
 32 33  1  0  0  0
 33 34  2  0  0  0
 34 35  2  0  0  0
 35 36  2  0  0  0
 36 38  1  0  0  0
 38 39  2  0  0  0
 39 40  1  0  0  0
 40 41  2  0  0  0
 41 42  1  0  0  0
 41 43  1  0  0  0
 43 44  2  0  0  0
 36 37  1  0  0  0
 28 29  1  0  0  0
 29  1  1  0  0  0
  1  2  2  0  0  0
  2  3  1  0  0  0
  3  4  2  0  0  0
  4  5  1  0  0  0
  5  7  1  0  0  0
  7  8  2  0  0  0
  8  9  2  0  0  0
  9 10  2  0  0  0
 10 13  1  0  0  0
 13 14  1  0  0  0
 14 15  1  0  0  0
 15 16  2  0  0  0
 16 17  1  0  0  0
 17 18  2  0  0  0
 18 19  1  0  0  0
 18 20  1  0  0  0
 20 23  1  0  0  0
 23 24  2  0  0  0
 23 25  1  0  0  0
 20 21  2  0  0  0
 10 11  1  0  0  0
 11 12  2  0  0  0
  5  6  2  0  0  0
 37 33  1  0  0  0
  6  1  1  0  0  0
 44 38  1  0  0  0
 12  7  2  0  0  0
 21 15  1  0  0  0
 29 30  1  0  0  0
 19 22  1  0  0  0
 25 26  1  0  0  0
M  END
> <Activity>
11.5

> <minimizedAffinity>
-8.57673

> <CNNscore>
0.5677649975

> <CNNaffinity>
6.9919481277

> <CNN_VS>
3.9697833061

$$$$
HIPS7772


 44 48  0  0  0  0  0  0  0  0999 V2000
   89.5499   86.4230   90.8493 C   0  0  0  0  0  0  0  0  0  0  0  0
   90.9155   86.1391   90.6921 C   0  0  0  0  0  0  0  0  0  0  0  0
   91.8277   87.1754   90.4840 C   0  0  0  0  0  0  0  0  0  0  0  0
   91.3904   88.5020   90.4436 C   0  0  0  0  0  0  0  0  0  0  0  0
   90.0283   88.8088   90.6160 C   0  0  0  0  0  0  0  0  0  0  0  0
   89.1176   87.7569   90.8239 C   0  0  0  0  0  0  0  0  0  0  0  0
   89.5590   90.2159   90.5982 C   0  0  0  0  0  0  0  0  0  0  0  0
   90.3118   91.1979   91.1665 N   0  0  0  0  0  0  0  0  0  0  0  0
   89.9154   92.4955   91.1406 C   0  0  0  0  0  0  0  0  0  0  0  0
   88.7207   92.8503   90.5070 C   0  0  0  0  0  0  0  0  0  0  0  0
   87.9465   91.8277   89.9489 C   0  0  0  0  0  0  0  0  0  0  0  0
   88.3796   90.5417   90.0009 N   0  0  0  0  0  0  0  0  0  0  0  0
   88.2786   94.2873   90.4290 C   0  0  0  0  0  0  0  0  0  0  0  0
   87.1133   94.5036   91.2264 O   0  0  0  0  0  0  0  0  0  0  0  0
   87.1082   94.9896   92.5448 C   0  0  0  0  0  0  0  0  0  0  0  0
   85.8887   95.0366   93.2236 C   0  0  0  0  0  0  0  0  0  0  0  0
   85.8215   95.5252   94.5282 C   0  0  0  0  0  0  0  0  0  0  0  0
   86.9737   95.9736   95.1816 C   0  0  0  0  0  0  0  0  0  0  0  0
   86.8507   96.3889   96.5089 O   0  0  0  0  0  0  0  0  0  0  0  0
   88.2147   95.9594   94.5012 C   0  0  0  0  0  0  0  0  0  0  0  0
   88.2735   95.4381   93.1955 C   0  0  0  0  0  0  0  0  0  0  0  0
   86.0113   96.3841   96.9254 H   0  0  0  0  0  0  0  0  0  0  0  0
   89.4468   96.5144   95.1001 C   0  0  0  0  0  0  0  0  0  0  0  0
   89.3777   97.4875   95.8976 O   0  0  0  0  0  0  0  0  0  0  0  0
   90.6834   95.9338   94.8366 O   0  0  0  0  0  0  0  0  0  0  0  0
   90.7446   95.2098   94.2450 H   0  0  0  0  0  0  0  0  0  0  0  0
   88.3878   85.7355   93.4096 O   0  0  0  0  0  0  0  0  0  0  0  0
   88.1106   85.0278   92.4041 C   0  0  0  0  0  0  0  0  0  0  0  0
   88.5911   85.3835   91.0977 N   0  0  0  0  0  0  0  0  0  0  0  0
   88.2412   84.8837   90.3250 H   0  0  0  0  0  0  0  0  0  0  0  0
   87.3445   83.7491   92.5947 C   0  0  0  0  0  0  0  0  0  0  0  0
   85.8415   83.9454   92.3502 C   0  0  0  0  0  0  0  0  0  0  0  0
   85.5498   85.0820   91.4135 C   0  0  0  0  0  0  0  0  0  0  0  0
   85.0085   86.2508   91.8174 N   0  0  0  0  0  0  0  0  0  0  0  0
   84.9183   86.9659   90.6801 C   0  0  0  0  0  0  0  0  0  0  0  0
   85.4095   86.2085   89.6337 C   0  0  0  0  0  0  0  0  0  0  0  0
   85.8002   85.0573   90.1236 O   0  0  0  0  0  0  0  0  0  0  0  0
   85.4895   86.5761   88.2022 C   0  0  0  0  0  0  0  0  0  0  0  0
   85.5893   85.5950   87.1979 C   0  0  0  0  0  0  0  0  0  0  0  0
   85.6635   85.9659   85.8521 C   0  0  0  0  0  0  0  0  0  0  0  0
   85.6440   87.3165   85.4933 C   0  0  0  0  0  0  0  0  0  0  0  0
   85.7430   87.7748   83.8034 Cl  0  0  0  0  0  0  0  0  0  0  0  0
   85.5538   88.2989   86.4830 C   0  0  0  0  0  0  0  0  0  0  0  0
   85.4731   87.9322   87.8301 C   0  0  0  0  0  0  0  0  0  0  0  0
 27 28  2  0  0  0
 28 31  1  0  0  0
 31 32  1  0  0  0
 32 33  1  0  0  0
 33 34  2  0  0  0
 34 35  2  0  0  0
 35 36  2  0  0  0
 36 38  1  0  0  0
 38 39  2  0  0  0
 39 40  1  0  0  0
 40 41  2  0  0  0
 41 42  1  0  0  0
 41 43  1  0  0  0
 43 44  2  0  0  0
 36 37  1  0  0  0
 28 29  1  0  0  0
 29  1  1  0  0  0
  1  2  2  0  0  0
  2  3  1  0  0  0
  3  4  2  0  0  0
  4  5  1  0  0  0
  5  7  1  0  0  0
  7  8  2  0  0  0
  8  9  2  0  0  0
  9 10  2  0  0  0
 10 13  1  0  0  0
 13 14  1  0  0  0
 14 15  1  0  0  0
 15 16  2  0  0  0
 16 17  1  0  0  0
 17 18  2  0  0  0
 18 19  1  0  0  0
 18 20  1  0  0  0
 20 23  1  0  0  0
 23 24  2  0  0  0
 23 25  1  0  0  0
 20 21  2  0  0  0
 10 11  1  0  0  0
 11 12  2  0  0  0
  5  6  2  0  0  0
 37 33  1  0  0  0
  6  1  1  0  0  0
 44 38  1  0  0  0
 12  7  2  0  0  0
 21 15  1  0  0  0
 29 30  1  0  0  0
 19 22  1  0  0  0
 25 26  1  0  0  0
M  END
> <Activity>
11.5

> <minimizedAffinity>
-9.63024

> <CNNscore>
0.4442412853

> <CNNaffinity>
7.2685565948

> <CNN_VS>
3.2289929390

$$$$
HIPS7772


 44 48  0  0  0  0  0  0  0  0999 V2000
   91.5619   89.7704   90.7130 C   0  0  0  0  0  0  0  0  0  0  0  0
   92.3011   90.2492   89.6202 C   0  0  0  0  0  0  0  0  0  0  0  0
   92.8360   89.3557   88.6899 C   0  0  0  0  0  0  0  0  0  0  0  0
   92.6287   87.9812   88.8328 C   0  0  0  0  0  0  0  0  0  0  0  0
   91.8762   87.4824   89.9118 C   0  0  0  0  0  0  0  0  0  0  0  0
   91.3429   88.3913   90.8439 C   0  0  0  0  0  0  0  0  0  0  0  0
   91.6314   86.0267   90.0579 C   0  0  0  0  0  0  0  0  0  0  0  0
   92.4153   85.1293   89.3989 N   0  0  0  0  0  0  0  0  0  0  0  0
   92.2266   83.7925   89.5365 C   0  0  0  0  0  0  0  0  0  0  0  0
   91.2222   83.3102   90.3811 C   0  0  0  0  0  0  0  0  0  0  0  0
   90.4097   84.2442   91.0324 C   0  0  0  0  0  0  0  0  0  0  0  0
   90.6315   85.5731   90.8631 N   0  0  0  0  0  0  0  0  0  0  0  0
   91.0186   81.8322   90.5825 C   0  0  0  0  0  0  0  0  0  0  0  0
   90.5386   81.2184   89.3853 O   0  0  0  0  0  0  0  0  0  0  0  0
   91.3428   80.7439   88.3353 C   0  0  0  0  0  0  0  0  0  0  0  0
   92.3422   79.8172   88.6395 C   0  0  0  0  0  0  0  0  0  0  0  0
   93.1808   79.3246   87.6400 C   0  0  0  0  0  0  0  0  0  0  0  0
   93.0346   79.7466   86.3148 C   0  0  0  0  0  0  0  0  0  0  0  0
   93.8617   79.1669   85.3509 O   0  0  0  0  0  0  0  0  0  0  0  0
   92.0454   80.7057   85.9907 C   0  0  0  0  0  0  0  0  0  0  0  0
   91.1878   81.1734   87.0035 C   0  0  0  0  0  0  0  0  0  0  0  0
   94.5054   78.5351   85.6047 H   0  0  0  0  0  0  0  0  0  0  0  0
   91.9094   81.2667   84.6300 C   0  0  0  0  0  0  0  0  0  0  0  0
   90.7674   81.4047   84.1157 O   0  0  0  0  0  0  0  0  0  0  0  0
   93.0307   81.7005   83.9298 O   0  0  0  0  0  0  0  0  0  0  0  0
   93.8839   81.6021   84.3043 H   0  0  0  0  0  0  0  0  0  0  0  0
   88.9438   90.9912   90.5313 O   0  0  0  0  0  0  0  0  0  0  0  0
   89.7006   91.3104   91.4873 C   0  0  0  0  0  0  0  0  0  0  0  0
   90.9710   90.6643   91.6687 N   0  0  0  0  0  0  0  0  0  0  0  0
   91.4669   90.8457   92.4996 H   0  0  0  0  0  0  0  0  0  0  0  0
   89.3040   92.4436   92.3912 C   0  0  0  0  0  0  0  0  0  0  0  0
   89.1114   93.7519   91.6112 C   0  0  0  0  0  0  0  0  0  0  0  0
   90.4034   94.3127   91.0910 C   0  0  0  0  0  0  0  0  0  0  0  0
   90.8325   95.5611   91.3728 N   0  0  0  0  0  0  0  0  0  0  0  0
   92.0048   95.6471   90.7160 C   0  0  0  0  0  0  0  0  0  0  0  0
   92.2436   94.4512   90.0659 C   0  0  0  0  0  0  0  0  0  0  0  0
   91.2416   93.6478   90.3277 O   0  0  0  0  0  0  0  0  0  0  0  0
   93.3957   94.0953   89.2076 C   0  0  0  0  0  0  0  0  0  0  0  0
   94.5375   93.4652   89.7373 C   0  0  0  0  0  0  0  0  0  0  0  0
   95.6138   93.1383   88.9073 C   0  0  0  0  0  0  0  0  0  0  0  0
   95.5661   93.4396   87.5433 C   0  0  0  0  0  0  0  0  0  0  0  0
   96.9222   93.0316   86.5089 Cl  0  0  0  0  0  0  0  0  0  0  0  0
   94.4408   94.0727   87.0088 C   0  0  0  0  0  0  0  0  0  0  0  0
   93.3593   94.3959   87.8343 C   0  0  0  0  0  0  0  0  0  0  0  0
 27 28  2  0  0  0
 28 31  1  0  0  0
 31 32  1  0  0  0
 32 33  1  0  0  0
 33 34  2  0  0  0
 34 35  2  0  0  0
 35 36  2  0  0  0
 36 38  1  0  0  0
 38 39  2  0  0  0
 39 40  1  0  0  0
 40 41  2  0  0  0
 41 42  1  0  0  0
 41 43  1  0  0  0
 43 44  2  0  0  0
 36 37  1  0  0  0
 28 29  1  0  0  0
 29  1  1  0  0  0
  1  2  2  0  0  0
  2  3  1  0  0  0
  3  4  2  0  0  0
  4  5  1  0  0  0
  5  7  1  0  0  0
  7  8  2  0  0  0
  8  9  2  0  0  0
  9 10  2  0  0  0
 10 13  1  0  0  0
 13 14  1  0  0  0
 14 15  1  0  0  0
 15 16  2  0  0  0
 16 17  1  0  0  0
 17 18  2  0  0  0
 18 19  1  0  0  0
 18 20  1  0  0  0
 20 23  1  0  0  0
 23 24  2  0  0  0
 23 25  1  0  0  0
 20 21  2  0  0  0
 10 11  1  0  0  0
 11 12  2  0  0  0
  5  6  2  0  0  0
 37 33  1  0  0  0
  6  1  1  0  0  0
 44 38  1  0  0  0
 12  7  2  0  0  0
 21 15  1  0  0  0
 29 30  1  0  0  0
 19 22  1  0  0  0
 25 26  1  0  0  0
M  END
> <Activity>
11.5

> <minimizedAffinity>
-7.68581

> <CNNscore>
0.4068490565

> <CNNaffinity>
6.8009080887

> <CNN_VS>
2.7669429779

$$$$
HIPS6990


 35 38  0  0  0  0  0  0  0  0999 V2000
   87.8598   87.9665   90.6556 C   0  0  0  0  0  0  0  0  0  0  0  0
   86.9100   88.1371   89.6328 C   0  0  0  0  0  0  0  0  0  0  0  0
   86.8155   89.3530   88.9513 C   0  0  0  0  0  0  0  0  0  0  0  0
   87.6688   90.4091   89.2767 C   0  0  0  0  0  0  0  0  0  0  0  0
   88.6276   90.2565   90.2886 C   0  0  0  0  0  0  0  0  0  0  0  0
   88.7084   89.0395   90.9843 C   0  0  0  0  0  0  0  0  0  0  0  0
   89.2894   84.7246   92.0399 C   0  0  0  0  0  0  0  0  0  0  0  0
   88.1960   84.2407   92.7651 C   0  0  0  0  0  0  0  0  0  0  0  0
   87.0035   84.9653   92.8126 C   0  0  0  0  0  0  0  0  0  0  0  0
   86.8908   86.1783   92.1291 C   0  0  0  0  0  0  0  0  0  0  0  0
   87.9711   86.6743   91.3781 C   0  0  0  0  0  0  0  0  0  0  0  0
   89.1642   85.9299   91.3256 C   0  0  0  0  0  0  0  0  0  0  0  0
   90.4680   83.9639   92.0122 O   0  0  0  0  0  0  0  0  0  0  0  0
   91.6811   81.4807   88.8217 C   0  0  0  0  0  0  0  0  0  0  0  0
   90.9885   80.9313   89.9065 C   0  0  0  0  0  0  0  0  0  0  0  0
   90.5759   81.7397   90.9692 C   0  0  0  0  0  0  0  0  0  0  0  0
   90.8684   83.1154   90.9685 C   0  0  0  0  0  0  0  0  0  0  0  0
   91.5392   83.6703   89.8734 C   0  0  0  0  0  0  0  0  0  0  0  0
   91.9491   82.8629   88.8079 C   0  0  0  0  0  0  0  0  0  0  0  0
   92.3094   79.2291   87.9366 C   0  0  0  0  0  0  0  0  0  0  0  0
   92.0809   80.6260   87.7838 O   0  0  0  0  0  0  0  0  0  0  0  0
   89.5527   91.3953   90.6294 C   0  0  0  0  0  0  0  0  0  0  0  0
   89.1740   92.5830   89.9322 O   0  0  0  0  0  0  0  0  0  0  0  0
   88.3226   93.5832   90.4307 C   0  0  0  0  0  0  0  0  0  0  0  0
   88.5728   94.0824   91.7103 C   0  0  0  0  0  0  0  0  0  0  0  0
   87.7585   95.0746   92.2558 C   0  0  0  0  0  0  0  0  0  0  0  0
   86.6766   95.5878   91.5332 C   0  0  0  0  0  0  0  0  0  0  0  0
   85.9476   96.6302   92.1098 O   0  0  0  0  0  0  0  0  0  0  0  0
   86.3829   95.0667   90.2479 C   0  0  0  0  0  0  0  0  0  0  0  0
   87.2327   94.0896   89.6982 C   0  0  0  0  0  0  0  0  0  0  0  0
   86.1749   96.9453   92.9624 H   0  0  0  0  0  0  0  0  0  0  0  0
   85.1912   95.4756   89.4710 C   0  0  0  0  0  0  0  0  0  0  0  0
   84.3029   94.6367   89.1631 O   0  0  0  0  0  0  0  0  0  0  0  0
   85.0774   96.7855   89.0140 O   0  0  0  0  0  0  0  0  0  0  0  0
   85.7319   97.4179   89.2367 H   0  0  0  0  0  0  0  0  0  0  0  0
 20 21  1  0  0  0
 21 14  1  0  0  0
 14 15  2  0  0  0
 15 16  1  0  0  0
 16 17  2  0  0  0
 17 13  1  0  0  0
 13  7  1  0  0  0
  7  8  2  0  0  0
  8  9  1  0  0  0
  9 10  2  0  0  0
 10 11  1  0  0  0
 11  1  1  0  0  0
  1  2  2  0  0  0
  2  3  1  0  0  0
  3  4  2  0  0  0
  4  5  1  0  0  0
  5 22  1  0  0  0
 22 23  1  0  0  0
 23 24  1  0  0  0
 24 25  2  0  0  0
 25 26  1  0  0  0
 26 27  2  0  0  0
 27 28  1  0  0  0
 27 29  1  0  0  0
 29 32  1  0  0  0
 32 33  2  0  0  0
 32 34  1  0  0  0
 29 30  2  0  0  0
  5  6  2  0  0  0
 11 12  2  0  0  0
 17 18  1  0  0  0
 18 19  2  0  0  0
 19 14  1  0  0  0
 12  7  1  0  0  0
  6  1  1  0  0  0
 30 24  1  0  0  0
 28 31  1  0  0  0
 34 35  1  0  0  0
M  END
> <Activity>
13.0

> <minimizedAffinity>
-7.97460

> <CNNscore>
0.5616360903

> <CNNaffinity>
6.0562067032

> <CNN_VS>
3.4013843536

$$$$
HIPS6990


 35 38  0  0  0  0  0  0  0  0999 V2000
   89.9232   85.9033   91.2610 C   0  0  0  0  0  0  0  0  0  0  0  0
   90.7121   84.7677   91.5170 C   0  0  0  0  0  0  0  0  0  0  0  0
   90.1579   83.6481   92.1422 C   0  0  0  0  0  0  0  0  0  0  0  0
   88.8120   83.6450   92.5137 C   0  0  0  0  0  0  0  0  0  0  0  0
   88.0068   84.7647   92.2606 C   0  0  0  0  0  0  0  0  0  0  0  0
   88.5707   85.8956   91.6484 C   0  0  0  0  0  0  0  0  0  0  0  0
   90.2606   89.3689   89.7293 C   0  0  0  0  0  0  0  0  0  0  0  0
   91.6043   89.3583   89.3422 C   0  0  0  0  0  0  0  0  0  0  0  0
   92.4001   88.2368   89.5839 C   0  0  0  0  0  0  0  0  0  0  0  0
   91.8574   87.1118   90.2092 C   0  0  0  0  0  0  0  0  0  0  0  0
   90.5038   87.0933   90.5895 C   0  0  0  0  0  0  0  0  0  0  0  0
   89.7067   88.2236   90.3294 C   0  0  0  0  0  0  0  0  0  0  0  0
   89.4929   90.5128   89.4633 O   0  0  0  0  0  0  0  0  0  0  0  0
   88.8810   93.6686   92.1990 C   0  0  0  0  0  0  0  0  0  0  0  0
   88.2352   93.6888   90.9576 C   0  0  0  0  0  0  0  0  0  0  0  0
   88.4234   92.6500   90.0418 C   0  0  0  0  0  0  0  0  0  0  0  0
   89.2802   91.5785   90.3513 C   0  0  0  0  0  0  0  0  0  0  0  0
   89.9071   91.5448   91.6015 C   0  0  0  0  0  0  0  0  0  0  0  0
   89.7166   92.5817   92.5200 C   0  0  0  0  0  0  0  0  0  0  0  0
   88.0210   94.6216   94.3438 C   0  0  0  0  0  0  0  0  0  0  0  0
   88.6661   94.7387   93.0800 O   0  0  0  0  0  0  0  0  0  0  0  0
   86.5528   84.7530   92.6541 C   0  0  0  0  0  0  0  0  0  0  0  0
   85.7254   84.4475   91.5306 O   0  0  0  0  0  0  0  0  0  0  0  0
   85.4911   85.2977   90.4370 C   0  0  0  0  0  0  0  0  0  0  0  0
   84.9971   86.5782   90.6933 C   0  0  0  0  0  0  0  0  0  0  0  0
   84.7445   87.4633   89.6455 C   0  0  0  0  0  0  0  0  0  0  0  0
   84.9802   87.0862   88.3195 C   0  0  0  0  0  0  0  0  0  0  0  0
   84.7750   88.0460   87.3259 O   0  0  0  0  0  0  0  0  0  0  0  0
   85.4451   85.7772   88.0360 C   0  0  0  0  0  0  0  0  0  0  0  0
   85.7261   84.9074   89.1053 C   0  0  0  0  0  0  0  0  0  0  0  0
   84.4665   88.9002   87.5564 H   0  0  0  0  0  0  0  0  0  0  0  0
   85.6088   85.2666   86.6564 C   0  0  0  0  0  0  0  0  0  0  0  0
   86.2382   85.9335   85.7922 O   0  0  0  0  0  0  0  0  0  0  0  0
   85.0052   84.0687   86.2843 O   0  0  0  0  0  0  0  0  0  0  0  0
   84.5345   83.5644   86.9184 H   0  0  0  0  0  0  0  0  0  0  0  0
 20 21  1  0  0  0
 21 14  1  0  0  0
 14 15  2  0  0  0
 15 16  1  0  0  0
 16 17  2  0  0  0
 17 13  1  0  0  0
 13  7  1  0  0  0
  7  8  2  0  0  0
  8  9  1  0  0  0
  9 10  2  0  0  0
 10 11  1  0  0  0
 11  1  1  0  0  0
  1  2  2  0  0  0
  2  3  1  0  0  0
  3  4  2  0  0  0
  4  5  1  0  0  0
  5 22  1  0  0  0
 22 23  1  0  0  0
 23 24  1  0  0  0
 24 25  2  0  0  0
 25 26  1  0  0  0
 26 27  2  0  0  0
 27 28  1  0  0  0
 27 29  1  0  0  0
 29 32  1  0  0  0
 32 33  2  0  0  0
 32 34  1  0  0  0
 29 30  2  0  0  0
  5  6  2  0  0  0
 11 12  2  0  0  0
 17 18  1  0  0  0
 18 19  2  0  0  0
 19 14  1  0  0  0
 12  7  1  0  0  0
  6  1  1  0  0  0
 30 24  1  0  0  0
 28 31  1  0  0  0
 34 35  1  0  0  0
M  END
> <Activity>
13.0

> <minimizedAffinity>
-9.36022

> <CNNscore>
0.5210605264

> <CNNaffinity>
6.5535345078

> <CNN_VS>
3.4147882462

$$$$
HIPS6990


 35 38  0  0  0  0  0  0  0  0999 V2000
   87.9847   91.2322   89.8234 C   0  0  0  0  0  0  0  0  0  0  0  0
   89.3226   91.5800   90.0817 C   0  0  0  0  0  0  0  0  0  0  0  0
   90.2580   90.5959   90.4106 C   0  0  0  0  0  0  0  0  0  0  0  0
   89.8731   89.2556   90.4801 C   0  0  0  0  0  0  0  0  0  0  0  0
   88.5454   88.8876   90.2188 C   0  0  0  0  0  0  0  0  0  0  0  0
   87.6032   89.8806   89.9063 C   0  0  0  0  0  0  0  0  0  0  0  0
   86.0119   94.4846   89.8263 C   0  0  0  0  0  0  0  0  0  0  0  0
   85.1191   94.2544   88.7749 C   0  0  0  0  0  0  0  0  0  0  0  0
   85.1613   93.0544   88.0624 C   0  0  0  0  0  0  0  0  0  0  0  0
   86.0930   92.0697   88.3994 C   0  0  0  0  0  0  0  0  0  0  0  0
   86.9875   92.2720   89.4653 C   0  0  0  0  0  0  0  0  0  0  0  0
   86.9279   93.4795   90.1858 C   0  0  0  0  0  0  0  0  0  0  0  0
   85.9333   95.7008   90.5213 O   0  0  0  0  0  0  0  0  0  0  0  0
   86.6781   96.1969   94.6465 C   0  0  0  0  0  0  0  0  0  0  0  0
   87.2880   97.0519   93.7215 C   0  0  0  0  0  0  0  0  0  0  0  0
   87.0491   96.9043   92.3524 C   0  0  0  0  0  0  0  0  0  0  0  0
   86.2046   95.8808   91.8865 C   0  0  0  0  0  0  0  0  0  0  0  0
   85.5751   95.0409   92.8114 C   0  0  0  0  0  0  0  0  0  0  0  0
   85.8105   95.1901   94.1816 C   0  0  0  0  0  0  0  0  0  0  0  0
   88.0298   97.1706   96.5100 C   0  0  0  0  0  0  0  0  0  0  0  0
   86.9564   96.3808   96.0089 O   0  0  0  0  0  0  0  0  0  0  0  0
   88.1369   87.4392   90.2852 C   0  0  0  0  0  0  0  0  0  0  0  0
   88.5206   86.8602   91.5333 O   0  0  0  0  0  0  0  0  0  0  0  0
   89.0490   85.5697   91.7038 C   0  0  0  0  0  0  0  0  0  0  0  0
   88.5513   84.7878   92.7479 C   0  0  0  0  0  0  0  0  0  0  0  0
   89.0408   83.4999   92.9646 C   0  0  0  0  0  0  0  0  0  0  0  0
   90.0387   82.9674   92.1420 C   0  0  0  0  0  0  0  0  0  0  0  0
   90.4306   81.6464   92.3698 O   0  0  0  0  0  0  0  0  0  0  0  0
   90.5842   83.7598   91.1006 C   0  0  0  0  0  0  0  0  0  0  0  0
   90.0573   85.0443   90.8742 C   0  0  0  0  0  0  0  0  0  0  0  0
   90.0446   81.1573   93.0696 H   0  0  0  0  0  0  0  0  0  0  0  0
   91.7189   83.3107   90.2629 C   0  0  0  0  0  0  0  0  0  0  0  0
   91.8817   82.0896   89.9983 O   0  0  0  0  0  0  0  0  0  0  0  0
   92.6588   84.2348   89.8155 O   0  0  0  0  0  0  0  0  0  0  0  0
   92.5481   85.1455   90.0063 H   0  0  0  0  0  0  0  0  0  0  0  0
 20 21  1  0  0  0
 21 14  1  0  0  0
 14 15  2  0  0  0
 15 16  1  0  0  0
 16 17  2  0  0  0
 17 13  1  0  0  0
 13  7  1  0  0  0
  7  8  2  0  0  0
  8  9  1  0  0  0
  9 10  2  0  0  0
 10 11  1  0  0  0
 11  1  1  0  0  0
  1  2  2  0  0  0
  2  3  1  0  0  0
  3  4  2  0  0  0
  4  5  1  0  0  0
  5 22  1  0  0  0
 22 23  1  0  0  0
 23 24  1  0  0  0
 24 25  2  0  0  0
 25 26  1  0  0  0
 26 27  2  0  0  0
 27 28  1  0  0  0
 27 29  1  0  0  0
 29 32  1  0  0  0
 32 33  2  0  0  0
 32 34  1  0  0  0
 29 30  2  0  0  0
  5  6  2  0  0  0
 11 12  2  0  0  0
 17 18  1  0  0  0
 18 19  2  0  0  0
 19 14  1  0  0  0
 12  7  1  0  0  0
  6  1  1  0  0  0
 30 24  1  0  0  0
 28 31  1  0  0  0
 34 35  1  0  0  0
M  END
> <Activity>
13.0

> <minimizedAffinity>
-8.34172

> <CNNscore>
0.5101297498

> <CNNaffinity>
5.8269758224

> <CNN_VS>
2.9725136757

$$$$
HIPS6985


 32 35  0  0  0  0  0  0  0  0999 V2000
   88.7967   87.6678   90.6504 C   0  0  0  0  0  0  0  0  0  0  0  0
   89.9718   88.3034   90.2238 C   0  0  0  0  0  0  0  0  0  0  0  0
   91.1554   87.6054   90.1704 C   0  0  0  0  0  0  0  0  0  0  0  0
   91.2144   86.2748   90.5323 C   0  0  0  0  0  0  0  0  0  0  0  0
   90.0707   85.6168   90.9588 C   0  0  0  0  0  0  0  0  0  0  0  0
   88.9102   86.3480   90.9981 C   0  0  0  0  0  0  0  0  0  0  0  0
   90.1457   84.2105   91.3382 C   0  0  0  0  0  0  0  0  0  0  0  0
   89.5227   83.7217   92.4749 C   0  0  0  0  0  0  0  0  0  0  0  0
   89.6103   82.3836   92.8101 C   0  0  0  0  0  0  0  0  0  0  0  0
   90.3152   81.4694   92.0399 C   0  0  0  0  0  0  0  0  0  0  0  0
   90.9376   81.9427   90.9093 C   0  0  0  0  0  0  0  0  0  0  0  0
   90.8430   83.3014   90.5779 C   0  0  0  0  0  0  0  0  0  0  0  0
   91.6475   81.1070   90.1038 O   0  0  0  0  0  0  0  0  0  0  0  0
   91.5411   80.9815   88.7340 C   0  0  0  0  0  0  0  0  0  0  0  0
   92.3105   79.7632   88.2409 C   0  0  0  0  0  0  0  0  0  0  0  0
   91.7561   79.5656   86.8560 C   0  0  0  0  0  0  0  0  0  0  0  0
   90.4015   80.2133   86.8250 C   0  0  0  0  0  0  0  0  0  0  0  0
   90.1339   80.6029   88.2806 C   0  0  0  0  0  0  0  0  0  0  0  0
   87.5210   88.4463   90.7300 C   0  0  0  0  0  0  0  0  0  0  0  0
   86.6136   88.1453   89.7859 O   0  0  0  0  0  0  0  0  0  0  0  0
   85.8784   86.4884   86.6389 C   0  0  0  0  0  0  0  0  0  0  0  0
   86.2417   87.4247   87.5603 C   0  0  0  0  0  0  0  0  0  0  0  0
   86.2453   87.1731   88.9536 C   0  0  0  0  0  0  0  0  0  0  0  0
   85.8643   85.9292   89.3852 C   0  0  0  0  0  0  0  0  0  0  0  0
   85.4962   84.9774   88.4641 C   0  0  0  0  0  0  0  0  0  0  0  0
   85.5002   85.2461   87.0997 C   0  0  0  0  0  0  0  0  0  0  0  0
   85.1192   84.2491   86.2137 O   0  0  0  0  0  0  0  0  0  0  0  0
   84.8637   83.4076   86.5371 H   0  0  0  0  0  0  0  0  0  0  0  0
   85.2441   87.6560   84.6864 O   0  0  0  0  0  0  0  0  0  0  0  0
   85.8664   86.7211   85.2065 C   0  0  0  0  0  0  0  0  0  0  0  0
   86.5800   85.8624   84.3916 O   0  0  0  0  0  0  0  0  0  0  0  0
   87.0574   85.1488   84.7670 H   0  0  0  0  0  0  0  0  0  0  0  0
 29 30  2  0  0  0
 30 31  1  0  0  0
 30 21  1  0  0  0
 21 22  2  0  0  0
 22 23  1  0  0  0
 23 20  1  0  0  0
 20 19  1  0  0  0
 19  1  1  0  0  0
  1  2  2  0  0  0
  2  3  1  0  0  0
  3  4  2  0  0  0
  4  5  1  0  0  0
  5  7  1  0  0  0
  7  8  2  0  0  0
  8  9  1  0  0  0
  9 10  2  0  0  0
 10 11  1  0  0  0
 11 13  1  0  0  0
 13 14  1  0  0  0
 14 15  1  0  0  0
 15 16  1  0  0  0
 16 17  1  0  0  0
 17 18  1  0  0  0
 11 12  2  0  0  0
  5  6  2  0  0  0
 23 24  2  0  0  0
 24 25  1  0  0  0
 25 26  2  0  0  0
 26 27  1  0  0  0
 26 21  1  0  0  0
  6  1  1  0  0  0
 12  7  1  0  0  0
 18 14  1  0  0  0
 31 32  1  0  0  0
 27 28  1  0  0  0
M  END
> <Activity>
13.3

> <minimizedAffinity>
-10.20811

> <CNNscore>
0.8100327253

> <CNNaffinity>
6.5713968277

> <CNN_VS>
5.3230466843

$$$$
HIPS6985


 32 35  0  0  0  0  0  0  0  0999 V2000
   88.3633   90.0975   90.0046 C   0  0  0  0  0  0  0  0  0  0  0  0
   87.3805   90.1292   89.0046 C   0  0  0  0  0  0  0  0  0  0  0  0
   86.5712   89.0372   88.7955 C   0  0  0  0  0  0  0  0  0  0  0  0
   86.7059   87.8946   89.5579 C   0  0  0  0  0  0  0  0  0  0  0  0
   87.6680   87.8306   90.5546 C   0  0  0  0  0  0  0  0  0  0  0  0
   88.4552   88.9405   90.7316 C   0  0  0  0  0  0  0  0  0  0  0  0
   87.8003   86.6178   91.3538 C   0  0  0  0  0  0  0  0  0  0  0  0
   86.6992   85.9522   91.8671 C   0  0  0  0  0  0  0  0  0  0  0  0
   86.8543   84.8043   92.6213 C   0  0  0  0  0  0  0  0  0  0  0  0
   88.1007   84.2627   92.9021 C   0  0  0  0  0  0  0  0  0  0  0  0
   89.2010   84.9145   92.3980 C   0  0  0  0  0  0  0  0  0  0  0  0
   89.0334   86.0779   91.6344 C   0  0  0  0  0  0  0  0  0  0  0  0
   90.4562   84.4440   92.6310 O   0  0  0  0  0  0  0  0  0  0  0  0
   91.1600   83.5358   91.8672 C   0  0  0  0  0  0  0  0  0  0  0  0
   90.3992   82.2216   91.7516 C   0  0  0  0  0  0  0  0  0  0  0  0
   91.0893   81.5455   90.5979 C   0  0  0  0  0  0  0  0  0  0  0  0
   91.7399   82.6228   89.7785 C   0  0  0  0  0  0  0  0  0  0  0  0
   91.2299   83.9279   90.3940 C   0  0  0  0  0  0  0  0  0  0  0  0
   89.2556   91.2826   90.2034 C   0  0  0  0  0  0  0  0  0  0  0  0
   88.7183   92.2821   90.9227 O   0  0  0  0  0  0  0  0  0  0  0  0
   86.3070   94.6684   89.6263 C   0  0  0  0  0  0  0  0  0  0  0  0
   87.0323   93.5316   89.8240 C   0  0  0  0  0  0  0  0  0  0  0  0
   88.0570   93.4311   90.7958 C   0  0  0  0  0  0  0  0  0  0  0  0
   88.3243   94.5322   91.5671 C   0  0  0  0  0  0  0  0  0  0  0  0
   87.5985   95.6839   91.3760 C   0  0  0  0  0  0  0  0  0  0  0  0
   86.5959   95.7605   90.4154 C   0  0  0  0  0  0  0  0  0  0  0  0
   85.8943   96.9475   90.2644 O   0  0  0  0  0  0  0  0  0  0  0  0
   86.0983   97.6845   90.8059 H   0  0  0  0  0  0  0  0  0  0  0  0
   84.0565   94.8872   88.9442 O   0  0  0  0  0  0  0  0  0  0  0  0
   85.2522   94.7968   88.6378 C   0  0  0  0  0  0  0  0  0  0  0  0
   85.5996   94.8190   87.3001 O   0  0  0  0  0  0  0  0  0  0  0  0
   86.4997   94.7518   87.0486 H   0  0  0  0  0  0  0  0  0  0  0  0
 29 30  2  0  0  0
 30 31  1  0  0  0
 30 21  1  0  0  0
 21 22  2  0  0  0
 22 23  1  0  0  0
 23 20  1  0  0  0
 20 19  1  0  0  0
 19  1  1  0  0  0
  1  2  2  0  0  0
  2  3  1  0  0  0
  3  4  2  0  0  0
  4  5  1  0  0  0
  5  7  1  0  0  0
  7  8  2  0  0  0
  8  9  1  0  0  0
  9 10  2  0  0  0
 10 11  1  0  0  0
 11 13  1  0  0  0
 13 14  1  0  0  0
 14 15  1  0  0  0
 15 16  1  0  0  0
 16 17  1  0  0  0
 17 18  1  0  0  0
 11 12  2  0  0  0
  5  6  2  0  0  0
 23 24  2  0  0  0
 24 25  1  0  0  0
 25 26  2  0  0  0
 26 27  1  0  0  0
 26 21  1  0  0  0
  6  1  1  0  0  0
 12  7  1  0  0  0
 18 14  1  0  0  0
 31 32  1  0  0  0
 27 28  1  0  0  0
M  END
> <Activity>
13.3

> <minimizedAffinity>
-8.04652

> <CNNscore>
0.6478762627

> <CNNaffinity>
5.8632574081

> <CNN_VS>
3.7986652851

$$$$
HIPS6985


 32 35  0  0  0  0  0  0  0  0999 V2000
   91.5803   88.0725   90.3401 C   0  0  0  0  0  0  0  0  0  0  0  0
   90.3614   88.7658   90.3146 C   0  0  0  0  0  0  0  0  0  0  0  0
   89.1857   88.1078   90.5900 C   0  0  0  0  0  0  0  0  0  0  0  0
   89.1775   86.7620   90.8954 C   0  0  0  0  0  0  0  0  0  0  0  0
   90.3654   86.0472   90.9290 C   0  0  0  0  0  0  0  0  0  0  0  0
   91.5163   86.7396   90.6482 C   0  0  0  0  0  0  0  0  0  0  0  0
   90.3438   84.6254   91.2534 C   0  0  0  0  0  0  0  0  0  0  0  0
   89.5649   84.1177   92.2803 C   0  0  0  0  0  0  0  0  0  0  0  0
   89.5638   82.7652   92.5655 C   0  0  0  0  0  0  0  0  0  0  0  0
   90.3298   81.8547   91.8513 C   0  0  0  0  0  0  0  0  0  0  0  0
   91.1069   82.3468   90.8298 C   0  0  0  0  0  0  0  0  0  0  0  0
   91.1013   83.7200   90.5483 C   0  0  0  0  0  0  0  0  0  0  0  0
   91.8851   81.5159   90.0846 O   0  0  0  0  0  0  0  0  0  0  0  0
   91.4898   80.7462   89.0099 C   0  0  0  0  0  0  0  0  0  0  0  0
   91.6100   81.5301   87.7097 C   0  0  0  0  0  0  0  0  0  0  0  0
   91.5410   80.4465   86.6679 C   0  0  0  0  0  0  0  0  0  0  0  0
   91.9611   79.1667   87.3319 C   0  0  0  0  0  0  0  0  0  0  0  0
   92.4536   79.6005   88.7145 C   0  0  0  0  0  0  0  0  0  0  0  0
   92.8495   88.7943   90.0114 C   0  0  0  0  0  0  0  0  0  0  0  0
   92.7187   89.7962   89.1259 O   0  0  0  0  0  0  0  0  0  0  0  0
   92.5687   93.0812   87.5846 C   0  0  0  0  0  0  0  0  0  0  0  0
   92.4558   91.7398   87.7976 C   0  0  0  0  0  0  0  0  0  0  0  0
   92.8633   91.1142   89.0005 C   0  0  0  0  0  0  0  0  0  0  0  0
   93.3943   91.9014   89.9890 C   0  0  0  0  0  0  0  0  0  0  0  0
   93.5124   93.2557   89.7844 C   0  0  0  0  0  0  0  0  0  0  0  0
   93.1054   93.8495   88.5947 C   0  0  0  0  0  0  0  0  0  0  0  0
   93.2475   95.2208   88.4409 O   0  0  0  0  0  0  0  0  0  0  0  0
   93.6136   95.7345   89.1337 H   0  0  0  0  0  0  0  0  0  0  0  0
   92.5272   93.3716   85.2411 O   0  0  0  0  0  0  0  0  0  0  0  0
   92.1585   93.7463   86.3615 C   0  0  0  0  0  0  0  0  0  0  0  0
   91.3218   94.8426   86.4543 O   0  0  0  0  0  0  0  0  0  0  0  0
   91.0321   95.1412   87.2939 H   0  0  0  0  0  0  0  0  0  0  0  0
 29 30  2  0  0  0
 30 31  1  0  0  0
 30 21  1  0  0  0
 21 22  2  0  0  0
 22 23  1  0  0  0
 23 20  1  0  0  0
 20 19  1  0  0  0
 19  1  1  0  0  0
  1  2  2  0  0  0
  2  3  1  0  0  0
  3  4  2  0  0  0
  4  5  1  0  0  0
  5  7  1  0  0  0
  7  8  2  0  0  0
  8  9  1  0  0  0
  9 10  2  0  0  0
 10 11  1  0  0  0
 11 13  1  0  0  0
 13 14  1  0  0  0
 14 15  1  0  0  0
 15 16  1  0  0  0
 16 17  1  0  0  0
 17 18  1  0  0  0
 11 12  2  0  0  0
  5  6  2  0  0  0
 23 24  2  0  0  0
 24 25  1  0  0  0
 25 26  2  0  0  0
 26 27  1  0  0  0
 26 21  1  0  0  0
  6  1  1  0  0  0
 12  7  1  0  0  0
 18 14  1  0  0  0
 31 32  1  0  0  0
 27 28  1  0  0  0
M  END
> <Activity>
13.3

> <minimizedAffinity>
-8.94682

> <CNNscore>
0.6153613329

> <CNNaffinity>
5.8659181595

> <CNN_VS>
3.6096591949

$$$$
HIPS7779


 38 40  0  0  0  0  0  0  0  0999 V2000
   90.5940   86.0061   90.9183 C   0  0  0  0  0  0  0  0  0  0  0  0
   91.7939   86.5555   90.5816 N   0  0  0  0  0  0  0  0  0  0  0  0
   91.9048   87.8700   90.2591 C   0  0  0  0  0  0  0  0  0  0  0  0
   90.7709   88.6907   90.2743 C   0  0  0  0  0  0  0  0  0  0  0  0
   89.5439   88.1098   90.6128 C   0  0  0  0  0  0  0  0  0  0  0  0
   89.4806   86.7904   90.9263 N   0  0  0  0  0  0  0  0  0  0  0  0
   91.1948   82.2467   90.9053 C   0  0  0  0  0  0  0  0  0  0  0  0
   90.3119   81.8343   91.9114 C   0  0  0  0  0  0  0  0  0  0  0  0
   89.5470   82.7726   92.6067 C   0  0  0  0  0  0  0  0  0  0  0  0
   89.6429   84.1303   92.2910 C   0  0  0  0  0  0  0  0  0  0  0  0
   90.4988   84.5653   91.2615 C   0  0  0  0  0  0  0  0  0  0  0  0
   91.2668   83.6102   90.5686 C   0  0  0  0  0  0  0  0  0  0  0  0
   91.5609   80.6446   88.9820 C   0  0  0  0  0  0  0  0  0  0  0  0
   90.5608   81.0822   88.3494 O   0  0  0  0  0  0  0  0  0  0  0  0
   91.9782   81.2654   90.2086 N   0  0  0  0  0  0  0  0  0  0  0  0
   92.8468   81.0043   90.5916 H   0  0  0  0  0  0  0  0  0  0  0  0
   92.3069   79.4612   88.4449 C   0  0  0  0  0  0  0  0  0  0  0  0
   91.9633   79.2420   86.9688 C   0  0  0  0  0  0  0  0  0  0  0  0
   93.0476   79.8281   86.0563 C   0  0  0  0  0  0  0  0  0  0  0  0
   92.4725   80.8957   85.0969 C   0  0  0  0  0  0  0  0  0  0  0  0
   93.3026   81.0395   83.8083 C   0  0  0  0  0  0  0  0  0  0  0  0
   92.4970   81.6617   82.6447 C   0  0  0  0  0  0  0  0  0  0  0  0
   90.4221   80.2991   82.0395 C   0  0  0  0  0  0  0  0  0  0  0  0
   90.9745   81.5048   82.7960 C   0  0  0  0  0  0  0  0  0  0  0  0
   90.8566   90.1442   89.9116 C   0  0  0  0  0  0  0  0  0  0  0  0
   91.9922   90.7254   90.5468 O   0  0  0  0  0  0  0  0  0  0  0  0
   92.5173   91.9887   90.2302 C   0  0  0  0  0  0  0  0  0  0  0  0
   92.0202   93.1727   90.8001 C   0  0  0  0  0  0  0  0  0  0  0  0
   92.5617   94.4065   90.4423 C   0  0  0  0  0  0  0  0  0  0  0  0
   93.6009   94.4870   89.5094 C   0  0  0  0  0  0  0  0  0  0  0  0
   94.0440   95.7572   89.1366 O   0  0  0  0  0  0  0  0  0  0  0  0
   94.1375   93.2985   88.9564 C   0  0  0  0  0  0  0  0  0  0  0  0
   93.5733   92.0626   89.3158 C   0  0  0  0  0  0  0  0  0  0  0  0
   93.6630   96.5194   89.5263 H   0  0  0  0  0  0  0  0  0  0  0  0
   95.2899   93.3021   88.0305 C   0  0  0  0  0  0  0  0  0  0  0  0
   95.9659   94.3504   87.8510 O   0  0  0  0  0  0  0  0  0  0  0  0
   95.6629   92.1270   87.3845 O   0  0  0  0  0  0  0  0  0  0  0  0
   95.1653   91.3435   87.5129 H   0  0  0  0  0  0  0  0  0  0  0  0
 23 24  1  0  0  0
 24 22  1  0  0  0
 22 21  1  0  0  0
 21 20  1  0  0  0
 20 19  1  0  0  0
 19 18  1  0  0  0
 18 17  1  0  0  0
 17 13  1  0  0  0
 13 14  2  0  0  0
 13 15  1  0  0  0
 15  7  1  0  0  0
  7  8  2  0  0  0
  8  9  1  0  0  0
  9 10  2  0  0  0
 10 11  1  0  0  0
 11  1  1  0  0  0
  1  2  2  0  0  0
  2  3  2  0  0  0
  3  4  2  0  0  0
  4 25  1  0  0  0
 25 26  1  0  0  0
 26 27  1  0  0  0
 27 28  2  0  0  0
 28 29  1  0  0  0
 29 30  2  0  0  0
 30 31  1  0  0  0
 30 32  1  0  0  0
 32 35  1  0  0  0
 35 36  2  0  0  0
 35 37  1  0  0  0
 32 33  2  0  0  0
  4  5  1  0  0  0
  5  6  2  0  0  0
 11 12  2  0  0  0
 12  7  1  0  0  0
  6  1  2  0  0  0
 33 27  1  0  0  0
 15 16  1  0  0  0
 31 34  1  0  0  0
 37 38  1  0  0  0
M  END
> <Activity>
14.3

> <minimizedAffinity>
-8.38311

> <CNNscore>
0.5435184836

> <CNNaffinity>
6.4082622528

> <CNN_VS>
3.4830091000

$$$$
HIPS7779


 38 40  0  0  0  0  0  0  0  0999 V2000
   90.4823   86.0351   91.0372 C   0  0  0  0  0  0  0  0  0  0  0  0
   91.6714   86.6684   90.8376 N   0  0  0  0  0  0  0  0  0  0  0  0
   91.7296   88.0016   90.5855 C   0  0  0  0  0  0  0  0  0  0  0  0
   90.5505   88.7542   90.5322 C   0  0  0  0  0  0  0  0  0  0  0  0
   89.3363   88.0878   90.7296 C   0  0  0  0  0  0  0  0  0  0  0  0
   89.3265   86.7529   90.9771 N   0  0  0  0  0  0  0  0  0  0  0  0
   91.1899   82.3024   90.7917 C   0  0  0  0  0  0  0  0  0  0  0  0
   90.3697   81.8098   91.8147 C   0  0  0  0  0  0  0  0  0  0  0  0
   89.6131   82.6856   92.5954 C   0  0  0  0  0  0  0  0  0  0  0  0
   89.6542   84.0604   92.3496 C   0  0  0  0  0  0  0  0  0  0  0  0
   90.4457   84.5759   91.3058 C   0  0  0  0  0  0  0  0  0  0  0  0
   91.2060   83.6834   90.5264 C   0  0  0  0  0  0  0  0  0  0  0  0
   91.4270   80.6272   88.9108 C   0  0  0  0  0  0  0  0  0  0  0  0
   90.2774   80.8832   88.4585 O   0  0  0  0  0  0  0  0  0  0  0  0
   91.9662   81.3844   90.0064 N   0  0  0  0  0  0  0  0  0  0  0  0
   92.9177   81.2677   90.2305 H   0  0  0  0  0  0  0  0  0  0  0  0
   92.2244   79.5160   88.2986 C   0  0  0  0  0  0  0  0  0  0  0  0
   91.8914   79.3811   86.8100 C   0  0  0  0  0  0  0  0  0  0  0  0
   92.3736   80.6057   86.0229 C   0  0  0  0  0  0  0  0  0  0  0  0
   93.3388   80.2087   84.8818 C   0  0  0  0  0  0  0  0  0  0  0  0
   93.2157   81.1329   83.6566 C   0  0  0  0  0  0  0  0  0  0  0  0
   92.3046   80.5458   82.5543 C   0  0  0  0  0  0  0  0  0  0  0  0
   91.0699   82.7404   82.1209 C   0  0  0  0  0  0  0  0  0  0  0  0
   90.9434   81.2524   82.4386 C   0  0  0  0  0  0  0  0  0  0  0  0
   90.5787   90.2265   90.2438 C   0  0  0  0  0  0  0  0  0  0  0  0
   89.9834   90.9338   91.3283 O   0  0  0  0  0  0  0  0  0  0  0  0
   89.2622   92.1310   91.1931 C   0  0  0  0  0  0  0  0  0  0  0  0
   88.3493   92.3434   90.1466 C   0  0  0  0  0  0  0  0  0  0  0  0
   87.6684   93.5555   90.0427 C   0  0  0  0  0  0  0  0  0  0  0  0
   87.8859   94.5788   90.9712 C   0  0  0  0  0  0  0  0  0  0  0  0
   87.2320   95.7948   90.7649 O   0  0  0  0  0  0  0  0  0  0  0  0
   88.7744   94.3638   92.0533 C   0  0  0  0  0  0  0  0  0  0  0  0
   89.4640   93.1422   92.1384 C   0  0  0  0  0  0  0  0  0  0  0  0
   86.6515   95.8969   90.0365 H   0  0  0  0  0  0  0  0  0  0  0  0
   88.9889   95.3673   93.1174 C   0  0  0  0  0  0  0  0  0  0  0  0
   88.4712   96.5132   93.0330 O   0  0  0  0  0  0  0  0  0  0  0  0
   89.7307   95.0317   94.2464 O   0  0  0  0  0  0  0  0  0  0  0  0
   90.1187   94.1817   94.3164 H   0  0  0  0  0  0  0  0  0  0  0  0
 23 24  1  0  0  0
 24 22  1  0  0  0
 22 21  1  0  0  0
 21 20  1  0  0  0
 20 19  1  0  0  0
 19 18  1  0  0  0
 18 17  1  0  0  0
 17 13  1  0  0  0
 13 14  2  0  0  0
 13 15  1  0  0  0
 15  7  1  0  0  0
  7  8  2  0  0  0
  8  9  1  0  0  0
  9 10  2  0  0  0
 10 11  1  0  0  0
 11  1  1  0  0  0
  1  2  2  0  0  0
  2  3  2  0  0  0
  3  4  2  0  0  0
  4 25  1  0  0  0
 25 26  1  0  0  0
 26 27  1  0  0  0
 27 28  2  0  0  0
 28 29  1  0  0  0
 29 30  2  0  0  0
 30 31  1  0  0  0
 30 32  1  0  0  0
 32 35  1  0  0  0
 35 36  2  0  0  0
 35 37  1  0  0  0
 32 33  2  0  0  0
  4  5  1  0  0  0
  5  6  2  0  0  0
 11 12  2  0  0  0
 12  7  1  0  0  0
  6  1  2  0  0  0
 33 27  1  0  0  0
 15 16  1  0  0  0
 31 34  1  0  0  0
 37 38  1  0  0  0
M  END
> <Activity>
14.3

> <minimizedAffinity>
-8.40113

> <CNNscore>
0.5249298811

> <CNNaffinity>
6.2354164124

> <CNN_VS>
3.2731564045

$$$$
HIPS7779


 38 40  0  0  0  0  0  0  0  0999 V2000
   86.2825   86.7492   89.3748 C   0  0  0  0  0  0  0  0  0  0  0  0
   85.1524   86.1480   88.9097 N   0  0  0  0  0  0  0  0  0  0  0  0
   84.5063   86.6112   87.8086 C   0  0  0  0  0  0  0  0  0  0  0  0
   85.0044   87.7261   87.1242 C   0  0  0  0  0  0  0  0  0  0  0  0
   86.1606   88.3386   87.6197 C   0  0  0  0  0  0  0  0  0  0  0  0
   86.7720   87.8416   88.7252 N   0  0  0  0  0  0  0  0  0  0  0  0
   88.6798   84.8125   91.6099 C   0  0  0  0  0  0  0  0  0  0  0  0
   88.2583   85.2337   92.8776 C   0  0  0  0  0  0  0  0  0  0  0  0
   87.2213   86.1597   93.0043 C   0  0  0  0  0  0  0  0  0  0  0  0
   86.5827   86.6598   91.8667 C   0  0  0  0  0  0  0  0  0  0  0  0
   86.9668   86.2265   90.5835 C   0  0  0  0  0  0  0  0  0  0  0  0
   88.0153   85.2940   90.4679 C   0  0  0  0  0  0  0  0  0  0  0  0
   90.9985   84.1517   90.8437 C   0  0  0  0  0  0  0  0  0  0  0  0
   91.2832   85.3300   90.4941 O   0  0  0  0  0  0  0  0  0  0  0  0
   89.7541   83.8657   91.5024 N   0  0  0  0  0  0  0  0  0  0  0  0
   89.6315   82.9738   91.9010 H   0  0  0  0  0  0  0  0  0  0  0  0
   91.9699   83.0474   90.5565 C   0  0  0  0  0  0  0  0  0  0  0  0
   91.2754   81.6871   90.6672 C   0  0  0  0  0  0  0  0  0  0  0  0
   91.5970   80.8026   89.4564 C   0  0  0  0  0  0  0  0  0  0  0  0
   90.5917   81.0244   88.3027 C   0  0  0  0  0  0  0  0  0  0  0  0
   90.8422   80.0809   87.1121 C   0  0  0  0  0  0  0  0  0  0  0  0
   92.2218   79.3865   87.1799 C   0  0  0  0  0  0  0  0  0  0  0  0
   92.5465   80.7898   85.0695 C   0  0  0  0  0  0  0  0  0  0  0  0
   93.1683   79.7829   86.0343 C   0  0  0  0  0  0  0  0  0  0  0  0
   84.3081   88.2707   85.9117 C   0  0  0  0  0  0  0  0  0  0  0  0
   83.1216   88.9511   86.3116 O   0  0  0  0  0  0  0  0  0  0  0  0
   83.0948   90.2471   86.8516 C   0  0  0  0  0  0  0  0  0  0  0  0
   82.1210   90.6541   87.7787 C   0  0  0  0  0  0  0  0  0  0  0  0
   82.1237   91.9570   88.2749 C   0  0  0  0  0  0  0  0  0  0  0  0
   83.0884   92.8790   87.8556 C   0  0  0  0  0  0  0  0  0  0  0  0
   82.9876   94.1880   88.3303 O   0  0  0  0  0  0  0  0  0  0  0  0
   84.0991   92.4708   86.9511 C   0  0  0  0  0  0  0  0  0  0  0  0
   84.0766   91.1584   86.4487 C   0  0  0  0  0  0  0  0  0  0  0  0
   82.3039   94.4181   88.9282 H   0  0  0  0  0  0  0  0  0  0  0  0
   85.1982   93.3654   86.5302 C   0  0  0  0  0  0  0  0  0  0  0  0
   85.4332   93.5625   85.3079 O   0  0  0  0  0  0  0  0  0  0  0  0
   85.9529   94.0340   87.4898 O   0  0  0  0  0  0  0  0  0  0  0  0
   85.7841   93.8927   88.4006 H   0  0  0  0  0  0  0  0  0  0  0  0
 23 24  1  0  0  0
 24 22  1  0  0  0
 22 21  1  0  0  0
 21 20  1  0  0  0
 20 19  1  0  0  0
 19 18  1  0  0  0
 18 17  1  0  0  0
 17 13  1  0  0  0
 13 14  2  0  0  0
 13 15  1  0  0  0
 15  7  1  0  0  0
  7  8  2  0  0  0
  8  9  1  0  0  0
  9 10  2  0  0  0
 10 11  1  0  0  0
 11  1  1  0  0  0
  1  2  2  0  0  0
  2  3  2  0  0  0
  3  4  2  0  0  0
  4 25  1  0  0  0
 25 26  1  0  0  0
 26 27  1  0  0  0
 27 28  2  0  0  0
 28 29  1  0  0  0
 29 30  2  0  0  0
 30 31  1  0  0  0
 30 32  1  0  0  0
 32 35  1  0  0  0
 35 36  2  0  0  0
 35 37  1  0  0  0
 32 33  2  0  0  0
  4  5  1  0  0  0
  5  6  2  0  0  0
 11 12  2  0  0  0
 12  7  1  0  0  0
  6  1  2  0  0  0
 33 27  1  0  0  0
 15 16  1  0  0  0
 31 34  1  0  0  0
 37 38  1  0  0  0
M  END
> <Activity>
14.3

> <minimizedAffinity>
-7.94491

> <CNNscore>
0.4704246521

> <CNNaffinity>
6.3963947296

> <CNN_VS>
3.0090217590

$$$$
HIPS7004


 34 37  0  0  0  0  0  0  0  0999 V2000
   90.5005   85.3254   91.2123 C   0  0  0  0  0  0  0  0  0  0  0  0
   90.4725   84.3289   92.1988 C   0  0  0  0  0  0  0  0  0  0  0  0
   89.2629   83.9564   92.7879 C   0  0  0  0  0  0  0  0  0  0  0  0
   88.0716   84.5638   92.3902 C   0  0  0  0  0  0  0  0  0  0  0  0
   88.0738   85.5440   91.3826 C   0  0  0  0  0  0  0  0  0  0  0  0
   89.2990   85.9271   90.8048 C   0  0  0  0  0  0  0  0  0  0  0  0
   86.7978   86.1674   90.9569 C   0  0  0  0  0  0  0  0  0  0  0  0
   85.7276   86.3323   91.8524 C   0  0  0  0  0  0  0  0  0  0  0  0
   84.5559   86.9476   91.4145 C   0  0  0  0  0  0  0  0  0  0  0  0
   84.4497   87.3911   90.0962 C   0  0  0  0  0  0  0  0  0  0  0  0
   85.5274   87.2001   89.2149 C   0  0  0  0  0  0  0  0  0  0  0  0
   86.6630   86.6077   89.6742 N   0  0  0  0  0  0  0  0  0  0  0  0
   85.4799   87.5953   87.8688 O   0  0  0  0  0  0  0  0  0  0  0  0
   85.7391   88.9139   87.3856 C   0  0  0  0  0  0  0  0  0  0  0  0
   86.7730   89.6084   88.2343 C   0  0  0  0  0  0  0  0  0  0  0  0
   88.0241   89.0081   88.4575 C   0  0  0  0  0  0  0  0  0  0  0  0
   88.9804   89.6477   89.2528 C   0  0  0  0  0  0  0  0  0  0  0  0
   88.6906   90.8831   89.8380 C   0  0  0  0  0  0  0  0  0  0  0  0
   87.4448   91.4815   89.6315 C   0  0  0  0  0  0  0  0  0  0  0  0
   86.4860   90.8458   88.8364 C   0  0  0  0  0  0  0  0  0  0  0  0
   91.8018   85.7682   90.5989 C   0  0  0  0  0  0  0  0  0  0  0  0
   91.5904   86.8858   89.7343 O   0  0  0  0  0  0  0  0  0  0  0  0
   92.7754   90.3521   89.1252 C   0  0  0  0  0  0  0  0  0  0  0  0
   92.3745   89.0143   88.9296 C   0  0  0  0  0  0  0  0  0  0  0  0
   91.9741   88.2110   90.0038 C   0  0  0  0  0  0  0  0  0  0  0  0
   91.9813   88.7505   91.3008 C   0  0  0  0  0  0  0  0  0  0  0  0
   92.3781   90.0710   91.5121 C   0  0  0  0  0  0  0  0  0  0  0  0
   92.7747   90.8773   90.4379 C   0  0  0  0  0  0  0  0  0  0  0  0
   93.1681   92.1940   90.6816 O   0  0  0  0  0  0  0  0  0  0  0  0
   93.1632   92.5302   91.5562 H   0  0  0  0  0  0  0  0  0  0  0  0
   92.3994   91.3466   86.9896 O   0  0  0  0  0  0  0  0  0  0  0  0
   93.1906   91.1723   87.9562 C   0  0  0  0  0  0  0  0  0  0  0  0
   94.4513   91.7615   87.9075 O   0  0  0  0  0  0  0  0  0  0  0  0
   95.0518   91.6424   88.6169 H   0  0  0  0  0  0  0  0  0  0  0  0
 31 32  2  0  0  0
 32 33  1  0  0  0
 32 23  1  0  0  0
 23 24  2  0  0  0
 24 25  1  0  0  0
 25 22  1  0  0  0
 22 21  1  0  0  0
 21  1  1  0  0  0
  1  2  2  0  0  0
  2  3  1  0  0  0
  3  4  2  0  0  0
  4  5  1  0  0  0
  5  7  1  0  0  0
  7  8  2  0  0  0
  8  9  1  0  0  0
  9 10  2  0  0  0
 10 11  1  0  0  0
 11 13  1  0  0  0
 13 14  1  0  0  0
 14 15  1  0  0  0
 15 16  2  0  0  0
 16 17  1  0  0  0
 17 18  2  0  0  0
 18 19  1  0  0  0
 19 20  2  0  0  0
 11 12  2  0  0  0
  5  6  2  0  0  0
 25 26  2  0  0  0
 26 27  1  0  0  0
 27 28  2  0  0  0
 28 29  1  0  0  0
 28 23  1  0  0  0
  6  1  1  0  0  0
 12  7  2  0  0  0
 20 15  1  0  0  0
 33 34  1  0  0  0
 29 30  1  0  0  0
M  END
> <Activity>
16.3

> <minimizedAffinity>
-8.00159

> <CNNscore>
0.5693284869

> <CNNaffinity>
6.4329547882

> <CNN_VS>
3.6624643803

$$$$
HIPS7004


 34 37  0  0  0  0  0  0  0  0999 V2000
   90.5381   89.5017   90.2884 C   0  0  0  0  0  0  0  0  0  0  0  0
   91.7341   90.0900   89.8521 C   0  0  0  0  0  0  0  0  0  0  0  0
   92.8520   89.2971   89.5866 C   0  0  0  0  0  0  0  0  0  0  0  0
   92.7834   87.9122   89.7410 C   0  0  0  0  0  0  0  0  0  0  0  0
   91.5858   87.2997   90.1493 C   0  0  0  0  0  0  0  0  0  0  0  0
   90.4674   88.1066   90.4318 C   0  0  0  0  0  0  0  0  0  0  0  0
   91.5222   85.8253   90.2910 C   0  0  0  0  0  0  0  0  0  0  0  0
   92.2637   84.9754   89.4528 C   0  0  0  0  0  0  0  0  0  0  0  0
   92.1929   83.5958   89.6398 C   0  0  0  0  0  0  0  0  0  0  0  0
   91.3884   83.0675   90.6496 C   0  0  0  0  0  0  0  0  0  0  0  0
   90.6434   83.9369   91.4643 C   0  0  0  0  0  0  0  0  0  0  0  0
   90.7424   85.2795   91.2664 N   0  0  0  0  0  0  0  0  0  0  0  0
   89.7923   83.4744   92.4802 O   0  0  0  0  0  0  0  0  0  0  0  0
   89.0857   84.3012   93.4058 C   0  0  0  0  0  0  0  0  0  0  0  0
   87.8103   84.8266   92.7986 C   0  0  0  0  0  0  0  0  0  0  0  0
   87.6783   86.1945   92.5037 C   0  0  0  0  0  0  0  0  0  0  0  0
   86.4914   86.6842   91.9491 C   0  0  0  0  0  0  0  0  0  0  0  0
   85.4269   85.8152   91.6958 C   0  0  0  0  0  0  0  0  0  0  0  0
   85.5449   84.4557   91.9971 C   0  0  0  0  0  0  0  0  0  0  0  0
   86.7301   83.9617   92.5510 C   0  0  0  0  0  0  0  0  0  0  0  0
   89.3378   90.3472   90.6202 C   0  0  0  0  0  0  0  0  0  0  0  0
   88.1443   89.5643   90.5582 O   0  0  0  0  0  0  0  0  0  0  0  0
   85.7795   90.5414   87.8669 C   0  0  0  0  0  0  0  0  0  0  0  0
   86.6402   90.5885   88.9831 C   0  0  0  0  0  0  0  0  0  0  0  0
   87.3042   89.4432   89.4378 C   0  0  0  0  0  0  0  0  0  0  0  0
   87.0996   88.2241   88.7704 C   0  0  0  0  0  0  0  0  0  0  0  0
   86.2491   88.1594   87.6667 C   0  0  0  0  0  0  0  0  0  0  0  0
   85.5875   89.3053   87.2079 C   0  0  0  0  0  0  0  0  0  0  0  0
   84.7415   89.2083   86.1021 O   0  0  0  0  0  0  0  0  0  0  0  0
   84.6227   88.3833   85.6740 H   0  0  0  0  0  0  0  0  0  0  0  0
   85.6905   92.8926   87.4734 O   0  0  0  0  0  0  0  0  0  0  0  0
   85.0957   91.7821   87.4144 C   0  0  0  0  0  0  0  0  0  0  0  0
   83.7952   91.7416   86.9185 O   0  0  0  0  0  0  0  0  0  0  0  0
   83.3384   90.9251   86.8676 H   0  0  0  0  0  0  0  0  0  0  0  0
 31 32  2  0  0  0
 32 33  1  0  0  0
 32 23  1  0  0  0
 23 24  2  0  0  0
 24 25  1  0  0  0
 25 22  1  0  0  0
 22 21  1  0  0  0
 21  1  1  0  0  0
  1  2  2  0  0  0
  2  3  1  0  0  0
  3  4  2  0  0  0
  4  5  1  0  0  0
  5  7  1  0  0  0
  7  8  2  0  0  0
  8  9  1  0  0  0
  9 10  2  0  0  0
 10 11  1  0  0  0
 11 13  1  0  0  0
 13 14  1  0  0  0
 14 15  1  0  0  0
 15 16  2  0  0  0
 16 17  1  0  0  0
 17 18  2  0  0  0
 18 19  1  0  0  0
 19 20  2  0  0  0
 11 12  2  0  0  0
  5  6  2  0  0  0
 25 26  2  0  0  0
 26 27  1  0  0  0
 27 28  2  0  0  0
 28 29  1  0  0  0
 28 23  1  0  0  0
  6  1  1  0  0  0
 12  7  2  0  0  0
 20 15  1  0  0  0
 33 34  1  0  0  0
 29 30  1  0  0  0
M  END
> <Activity>
16.3

> <minimizedAffinity>
-8.38126

> <CNNscore>
0.5527286530

> <CNNaffinity>
6.2877140045

> <CNN_VS>
3.4753997326

$$$$
HIPS7004


 34 37  0  0  0  0  0  0  0  0999 V2000
   86.9387   89.0983   89.0751 C   0  0  0  0  0  0  0  0  0  0  0  0
   86.4036   88.7866   87.8167 C   0  0  0  0  0  0  0  0  0  0  0  0
   85.9526   87.4938   87.5448 C   0  0  0  0  0  0  0  0  0  0  0  0
   86.0189   86.5057   88.5275 C   0  0  0  0  0  0  0  0  0  0  0  0
   86.5247   86.8044   89.8047 C   0  0  0  0  0  0  0  0  0  0  0  0
   86.9936   88.1056   90.0667 C   0  0  0  0  0  0  0  0  0  0  0  0
   86.5717   85.7491   90.8449 C   0  0  0  0  0  0  0  0  0  0  0  0
   85.4669   84.9182   91.0970 C   0  0  0  0  0  0  0  0  0  0  0  0
   85.5656   83.9219   92.0670 C   0  0  0  0  0  0  0  0  0  0  0  0
   86.7522   83.7570   92.7817 C   0  0  0  0  0  0  0  0  0  0  0  0
   87.8378   84.6110   92.5232 C   0  0  0  0  0  0  0  0  0  0  0  0
   87.7163   85.5662   91.5618 N   0  0  0  0  0  0  0  0  0  0  0  0
   89.0513   84.5211   93.2231 O   0  0  0  0  0  0  0  0  0  0  0  0
   90.3423   84.7923   92.6760 C   0  0  0  0  0  0  0  0  0  0  0  0
   90.7359   83.7414   91.6700 C   0  0  0  0  0  0  0  0  0  0  0  0
   90.4894   82.3828   91.9329 C   0  0  0  0  0  0  0  0  0  0  0  0
   90.8632   81.4064   91.0040 C   0  0  0  0  0  0  0  0  0  0  0  0
   91.4939   81.7782   89.8137 C   0  0  0  0  0  0  0  0  0  0  0  0
   91.7539   83.1256   89.5495 C   0  0  0  0  0  0  0  0  0  0  0  0
   91.3812   84.1052   90.4752 C   0  0  0  0  0  0  0  0  0  0  0  0
   87.4688   90.4761   89.3690 C   0  0  0  0  0  0  0  0  0  0  0  0
   88.5277   90.4089   90.3259 O   0  0  0  0  0  0  0  0  0  0  0  0
   92.0005   90.2124   89.0257 C   0  0  0  0  0  0  0  0  0  0  0  0
   90.6949   90.6630   89.3105 C   0  0  0  0  0  0  0  0  0  0  0  0
   89.8149   89.8981   90.0851 C   0  0  0  0  0  0  0  0  0  0  0  0
   90.2430   88.6547   90.5793 C   0  0  0  0  0  0  0  0  0  0  0  0
   91.5302   88.1929   90.3042 C   0  0  0  0  0  0  0  0  0  0  0  0
   92.4132   88.9589   89.5330 C   0  0  0  0  0  0  0  0  0  0  0  0
   93.6940   88.4688   89.2734 O   0  0  0  0  0  0  0  0  0  0  0  0
   93.9555   87.6366   89.6154 H   0  0  0  0  0  0  0  0  0  0  0  0
   92.5555   91.4215   87.0454 O   0  0  0  0  0  0  0  0  0  0  0  0
   92.9050   91.0573   88.2012 C   0  0  0  0  0  0  0  0  0  0  0  0
   94.1458   91.4616   88.6869 O   0  0  0  0  0  0  0  0  0  0  0  0
   94.4215   91.2002   89.5434 H   0  0  0  0  0  0  0  0  0  0  0  0
 31 32  2  0  0  0
 32 33  1  0  0  0
 32 23  1  0  0  0
 23 24  2  0  0  0
 24 25  1  0  0  0
 25 22  1  0  0  0
 22 21  1  0  0  0
 21  1  1  0  0  0
  1  2  2  0  0  0
  2  3  1  0  0  0
  3  4  2  0  0  0
  4  5  1  0  0  0
  5  7  1  0  0  0
  7  8  2  0  0  0
  8  9  1  0  0  0
  9 10  2  0  0  0
 10 11  1  0  0  0
 11 13  1  0  0  0
 13 14  1  0  0  0
 14 15  1  0  0  0
 15 16  2  0  0  0
 16 17  1  0  0  0
 17 18  2  0  0  0
 18 19  1  0  0  0
 19 20  2  0  0  0
 11 12  2  0  0  0
  5  6  2  0  0  0
 25 26  2  0  0  0
 26 27  1  0  0  0
 27 28  2  0  0  0
 28 29  1  0  0  0
 28 23  1  0  0  0
  6  1  1  0  0  0
 12  7  2  0  0  0
 20 15  1  0  0  0
 33 34  1  0  0  0
 29 30  1  0  0  0
M  END
> <Activity>
16.3

> <minimizedAffinity>
-9.56411

> <CNNscore>
0.5415569544

> <CNNaffinity>
6.5575857162

> <CNN_VS>
3.5513062477

$$$$
HIPS7790


 38 41  0  0  0  0  0  0  0  0999 V2000
   91.0616   85.6738   90.4792 C   0  0  0  0  0  0  0  0  0  0  0  0
   90.3341   84.8239   91.2548 N   0  0  0  0  0  0  0  0  0  0  0  0
   90.5852   83.4896   91.2688 C   0  0  0  0  0  0  0  0  0  0  0  0
   91.6140   82.9625   90.4808 C   0  0  0  0  0  0  0  0  0  0  0  0
   92.3419   83.8466   89.6777 C   0  0  0  0  0  0  0  0  0  0  0  0
   92.0564   85.1735   89.6959 N   0  0  0  0  0  0  0  0  0  0  0  0
   89.1756   88.9690   90.2374 C   0  0  0  0  0  0  0  0  0  0  0  0
   90.2056   89.8830   90.4932 C   0  0  0  0  0  0  0  0  0  0  0  0
   91.4995   89.4319   90.7559 C   0  0  0  0  0  0  0  0  0  0  0  0
   91.7803   88.0640   90.7557 C   0  0  0  0  0  0  0  0  0  0  0  0
   90.7668   87.1282   90.4791 C   0  0  0  0  0  0  0  0  0  0  0  0
   89.4669   87.5952   90.2051 C   0  0  0  0  0  0  0  0  0  0  0  0
   87.8535   89.4559   89.9705 N   0  0  0  0  0  0  0  0  0  0  0  0
   87.5600   90.2861   90.4108 H   0  0  0  0  0  0  0  0  0  0  0  0
   86.7475   88.6461   88.9050 S   0  0  0  0  0  0  0  0  0  0  0  0
   85.5207   89.5018   88.7582 O   0  0  0  0  0  0  0  0  0  0  0  0
   87.3426   88.4616   87.5384 O   0  0  0  0  0  0  0  0  0  0  0  0
   85.5994   84.1885   92.1319 C   0  0  0  0  0  0  0  0  0  0  0  0
   85.7524   85.1841   91.0334 C   0  0  0  0  0  0  0  0  0  0  0  0
   85.5714   84.8869   89.7284 N   0  0  0  0  0  0  0  0  0  0  0  0
   85.8349   85.9479   88.9176 C   0  0  0  0  0  0  0  0  0  0  0  0
   85.7427   85.8108   87.4313 C   0  0  0  0  0  0  0  0  0  0  0  0
   86.2660   87.0969   89.5914 C   0  0  0  0  0  0  0  0  0  0  0  0
   86.2972   86.7598   91.2391 S   0  0  0  0  0  0  0  0  0  0  0  0
   91.9088   81.4866   90.4674 C   0  0  0  0  0  0  0  0  0  0  0  0
   90.9059   80.7735   89.7425 O   0  0  0  0  0  0  0  0  0  0  0  0
   90.8211   80.6859   88.3430 C   0  0  0  0  0  0  0  0  0  0  0  0
   89.5550   80.5582   87.7681 C   0  0  0  0  0  0  0  0  0  0  0  0
   89.4102   80.4748   86.3839 C   0  0  0  0  0  0  0  0  0  0  0  0
   90.5333   80.5174   85.5471 C   0  0  0  0  0  0  0  0  0  0  0  0
   90.3588   80.4384   84.1655 O   0  0  0  0  0  0  0  0  0  0  0  0
   91.8253   80.6407   86.1083 C   0  0  0  0  0  0  0  0  0  0  0  0
   91.9544   80.7208   87.5084 C   0  0  0  0  0  0  0  0  0  0  0  0
   89.4973   80.3568   83.8060 H   0  0  0  0  0  0  0  0  0  0  0  0
   93.0467   80.6885   85.2631 C   0  0  0  0  0  0  0  0  0  0  0  0
   93.9777   79.8538   85.4220 O   0  0  0  0  0  0  0  0  0  0  0  0
   93.1766   81.6639   84.2774 O   0  0  0  0  0  0  0  0  0  0  0  0
   92.4935   82.2917   84.1466 H   0  0  0  0  0  0  0  0  0  0  0  0
 18 19  1  0  0  0
 19 20  2  0  0  0
 20 21  2  0  0  0
 21 22  1  0  0  0
 21 23  2  0  0  0
 23 15  1  0  0  0
 15 16  2  0  0  0
 15 17  2  0  0  0
 15 13  1  0  0  0
 13  7  1  0  0  0
  7  8  2  0  0  0
  8  9  1  0  0  0
  9 10  2  0  0  0
 10 11  1  0  0  0
 11  1  1  0  0  0
  1  2  2  0  0  0
  2  3  2  0  0  0
  3  4  2  0  0  0
  4 25  1  0  0  0
 25 26  1  0  0  0
 26 27  1  0  0  0
 27 28  2  0  0  0
 28 29  1  0  0  0
 29 30  2  0  0  0
 30 31  1  0  0  0
 30 32  1  0  0  0
 32 35  1  0  0  0
 35 36  2  0  0  0
 35 37  1  0  0  0
 32 33  2  0  0  0
  4  5  1  0  0  0
  5  6  2  0  0  0
 11 12  2  0  0  0
 23 24  1  0  0  0
 24 19  1  0  0  0
 12  7  1  0  0  0
  6  1  2  0  0  0
 33 27  1  0  0  0
 13 14  1  0  0  0
 31 34  1  0  0  0
 37 38  1  0  0  0
M  END
> <Activity>
16.6

> <minimizedAffinity>
-8.65920

> <CNNscore>
0.7772752643

> <CNNaffinity>
7.4203863144

> <CNN_VS>
5.7676825523

$$$$
HIPS7790


 38 41  0  0  0  0  0  0  0  0999 V2000
   89.6472   87.1716   90.8356 C   0  0  0  0  0  0  0  0  0  0  0  0
   89.5810   88.5309   90.8011 N   0  0  0  0  0  0  0  0  0  0  0  0
   90.6915   89.2879   90.6084 C   0  0  0  0  0  0  0  0  0  0  0  0
   91.9361   88.6733   90.4331 C   0  0  0  0  0  0  0  0  0  0  0  0
   91.9899   87.2767   90.4869 C   0  0  0  0  0  0  0  0  0  0  0  0
   90.8537   86.5598   90.6812 N   0  0  0  0  0  0  0  0  0  0  0  0
   86.1098   85.8229   90.4600 C   0  0  0  0  0  0  0  0  0  0  0  0
   86.0993   84.8286   91.4465 C   0  0  0  0  0  0  0  0  0  0  0  0
   87.2368   84.5890   92.2181 C   0  0  0  0  0  0  0  0  0  0  0  0
   88.3930   85.3463   92.0195 C   0  0  0  0  0  0  0  0  0  0  0  0
   88.4198   86.3656   91.0499 C   0  0  0  0  0  0  0  0  0  0  0  0
   87.2628   86.6058   90.2842 C   0  0  0  0  0  0  0  0  0  0  0  0
   84.9290   86.0511   89.6789 N   0  0  0  0  0  0  0  0  0  0  0  0
   84.2219   85.3660   89.6840 H   0  0  0  0  0  0  0  0  0  0  0  0
   84.6913   87.4820   88.7249 S   0  0  0  0  0  0  0  0  0  0  0  0
   83.2237   87.8058   88.7165 O   0  0  0  0  0  0  0  0  0  0  0  0
   85.4158   88.6578   89.3150 O   0  0  0  0  0  0  0  0  0  0  0  0
   86.0100   87.7293   83.2658 C   0  0  0  0  0  0  0  0  0  0  0  0
   85.7977   87.3517   84.6918 C   0  0  0  0  0  0  0  0  0  0  0  0
   85.9050   86.0862   85.1511 N   0  0  0  0  0  0  0  0  0  0  0  0
   85.5985   85.9910   86.4738 C   0  0  0  0  0  0  0  0  0  0  0  0
   85.6074   84.6638   87.1631 C   0  0  0  0  0  0  0  0  0  0  0  0
   85.2077   87.1985   87.0647 C   0  0  0  0  0  0  0  0  0  0  0  0
   85.2679   88.4021   85.8911 S   0  0  0  0  0  0  0  0  0  0  0  0
   93.1860   89.4865   90.2282 C   0  0  0  0  0  0  0  0  0  0  0  0
   93.0404   90.3734   89.1184 O   0  0  0  0  0  0  0  0  0  0  0  0
   93.2362   91.7640   89.1570 C   0  0  0  0  0  0  0  0  0  0  0  0
   92.6309   92.4844   90.1887 C   0  0  0  0  0  0  0  0  0  0  0  0
   92.7971   93.8657   90.2811 C   0  0  0  0  0  0  0  0  0  0  0  0
   93.5743   94.5534   89.3395 C   0  0  0  0  0  0  0  0  0  0  0  0
   93.7290   95.9344   89.4597 O   0  0  0  0  0  0  0  0  0  0  0  0
   94.1917   93.8444   88.2834 C   0  0  0  0  0  0  0  0  0  0  0  0
   94.0114   92.4499   88.2027 C   0  0  0  0  0  0  0  0  0  0  0  0
   93.3146   96.3927   90.1642 H   0  0  0  0  0  0  0  0  0  0  0  0
   95.0237   94.5288   87.2597 C   0  0  0  0  0  0  0  0  0  0  0  0
   95.7839   95.4835   87.5751 O   0  0  0  0  0  0  0  0  0  0  0  0
   94.9726   94.1187   85.9296 O   0  0  0  0  0  0  0  0  0  0  0  0
   94.4126   93.4106   85.6789 H   0  0  0  0  0  0  0  0  0  0  0  0
 18 19  1  0  0  0
 19 20  2  0  0  0
 20 21  2  0  0  0
 21 22  1  0  0  0
 21 23  2  0  0  0
 23 15  1  0  0  0
 15 16  2  0  0  0
 15 17  2  0  0  0
 15 13  1  0  0  0
 13  7  1  0  0  0
  7  8  2  0  0  0
  8  9  1  0  0  0
  9 10  2  0  0  0
 10 11  1  0  0  0
 11  1  1  0  0  0
  1  2  2  0  0  0
  2  3  2  0  0  0
  3  4  2  0  0  0
  4 25  1  0  0  0
 25 26  1  0  0  0
 26 27  1  0  0  0
 27 28  2  0  0  0
 28 29  1  0  0  0
 29 30  2  0  0  0
 30 31  1  0  0  0
 30 32  1  0  0  0
 32 35  1  0  0  0
 35 36  2  0  0  0
 35 37  1  0  0  0
 32 33  2  0  0  0
  4  5  1  0  0  0
  5  6  2  0  0  0
 11 12  2  0  0  0
 23 24  1  0  0  0
 24 19  1  0  0  0
 12  7  1  0  0  0
  6  1  2  0  0  0
 33 27  1  0  0  0
 13 14  1  0  0  0
 31 34  1  0  0  0
 37 38  1  0  0  0
M  END
> <Activity>
16.6

> <minimizedAffinity>
-7.45590

> <CNNscore>
0.4912679195

> <CNNaffinity>
6.6277351379

> <CNN_VS>
3.2559936047

$$$$
HIPS7790


 38 41  0  0  0  0  0  0  0  0999 V2000
   88.3839   89.9454   90.3554 C   0  0  0  0  0  0  0  0  0  0  0  0
   87.5871   90.9142   89.8265 N   0  0  0  0  0  0  0  0  0  0  0  0
   87.9260   92.2269   89.9012 C   0  0  0  0  0  0  0  0  0  0  0  0
   89.1188   92.6075   90.5254 C   0  0  0  0  0  0  0  0  0  0  0  0
   89.9187   91.6017   91.0775 C   0  0  0  0  0  0  0  0  0  0  0  0
   89.5406   90.3018   90.9787 N   0  0  0  0  0  0  0  0  0  0  0  0
   88.2585   86.1944   90.9780 C   0  0  0  0  0  0  0  0  0  0  0  0
   87.2367   85.8139   90.0988 C   0  0  0  0  0  0  0  0  0  0  0  0
   86.5842   86.7703   89.3201 C   0  0  0  0  0  0  0  0  0  0  0  0
   86.9523   88.1147   89.4039 C   0  0  0  0  0  0  0  0  0  0  0  0
   87.9911   88.5173   90.2632 C   0  0  0  0  0  0  0  0  0  0  0  0
   88.6497   87.5422   91.0366 C   0  0  0  0  0  0  0  0  0  0  0  0
   88.9146   85.1939   91.7686 N   0  0  0  0  0  0  0  0  0  0  0  0
   88.3778   84.6737   92.4092 H   0  0  0  0  0  0  0  0  0  0  0  0
   90.6139   84.8596   91.6460 S   0  0  0  0  0  0  0  0  0  0  0  0
   91.2400   85.9093   90.7716 O   0  0  0  0  0  0  0  0  0  0  0  0
   91.2813   84.9260   92.9898 O   0  0  0  0  0  0  0  0  0  0  0  0
   91.7924   80.4942   88.3059 C   0  0  0  0  0  0  0  0  0  0  0  0
   91.4229   81.4079   89.4239 C   0  0  0  0  0  0  0  0  0  0  0  0
   90.8216   80.9907   90.5590 N   0  0  0  0  0  0  0  0  0  0  0  0
   90.5276   82.0236   91.3952 C   0  0  0  0  0  0  0  0  0  0  0  0
   89.8127   81.7778   92.6856 C   0  0  0  0  0  0  0  0  0  0  0  0
   90.8714   83.2860   90.8972 C   0  0  0  0  0  0  0  0  0  0  0  0
   91.5708   83.0808   89.3812 S   0  0  0  0  0  0  0  0  0  0  0  0
   89.5157   94.0554   90.6330 C   0  0  0  0  0  0  0  0  0  0  0  0
   90.3077   94.2810   91.7999 O   0  0  0  0  0  0  0  0  0  0  0  0
   89.9338   95.0767   92.8956 C   0  0  0  0  0  0  0  0  0  0  0  0
   90.9372   95.7652   93.5804 C   0  0  0  0  0  0  0  0  0  0  0  0
   90.6233   96.5757   94.6707 C   0  0  0  0  0  0  0  0  0  0  0  0
   89.2956   96.7122   95.0969 C   0  0  0  0  0  0  0  0  0  0  0  0
   89.0093   97.5348   96.1865 O   0  0  0  0  0  0  0  0  0  0  0  0
   88.2644   96.0197   94.4214 C   0  0  0  0  0  0  0  0  0  0  0  0
   88.5986   95.2027   93.3239 C   0  0  0  0  0  0  0  0  0  0  0  0
   89.7017   97.9883   96.6257 H   0  0  0  0  0  0  0  0  0  0  0  0
   86.8417   96.1307   94.8365 C   0  0  0  0  0  0  0  0  0  0  0  0
   86.4949   95.9074   96.0275 O   0  0  0  0  0  0  0  0  0  0  0  0
   85.8682   96.4865   93.9062 O   0  0  0  0  0  0  0  0  0  0  0  0
   86.1096   96.6559   93.0168 H   0  0  0  0  0  0  0  0  0  0  0  0
 18 19  1  0  0  0
 19 20  2  0  0  0
 20 21  2  0  0  0
 21 22  1  0  0  0
 21 23  2  0  0  0
 23 15  1  0  0  0
 15 16  2  0  0  0
 15 17  2  0  0  0
 15 13  1  0  0  0
 13  7  1  0  0  0
  7  8  2  0  0  0
  8  9  1  0  0  0
  9 10  2  0  0  0
 10 11  1  0  0  0
 11  1  1  0  0  0
  1  2  2  0  0  0
  2  3  2  0  0  0
  3  4  2  0  0  0
  4 25  1  0  0  0
 25 26  1  0  0  0
 26 27  1  0  0  0
 27 28  2  0  0  0
 28 29  1  0  0  0
 29 30  2  0  0  0
 30 31  1  0  0  0
 30 32  1  0  0  0
 32 35  1  0  0  0
 35 36  2  0  0  0
 35 37  1  0  0  0
 32 33  2  0  0  0
  4  5  1  0  0  0
  5  6  2  0  0  0
 11 12  2  0  0  0
 23 24  1  0  0  0
 24 19  1  0  0  0
 12  7  1  0  0  0
  6  1  2  0  0  0
 33 27  1  0  0  0
 13 14  1  0  0  0
 31 34  1  0  0  0
 37 38  1  0  0  0
M  END
> <Activity>
16.6

> <minimizedAffinity>
-7.92083

> <CNNscore>
0.3916975260

> <CNNaffinity>
6.3142518997

> <CNN_VS>
2.4732768536

$$$$
HIPS7792


 37 39  0  0  0  0  0  0  0  0999 V2000
   91.1530   82.9349   90.6464 C   0  0  0  0  0  0  0  0  0  0  0  0
   92.0137   83.7469   89.9034 C   0  0  0  0  0  0  0  0  0  0  0  0
   91.8513   85.0957   89.9087 N   0  0  0  0  0  0  0  0  0  0  0  0
   90.8590   85.6879   90.6309 C   0  0  0  0  0  0  0  0  0  0  0  0
   90.0174   84.9082   91.3686 N   0  0  0  0  0  0  0  0  0  0  0  0
   90.1459   83.5550   91.3955 C   0  0  0  0  0  0  0  0  0  0  0  0
   90.6954   87.1638   90.6044 C   0  0  0  0  0  0  0  0  0  0  0  0
   91.8084   88.0059   90.7797 C   0  0  0  0  0  0  0  0  0  0  0  0
   91.6643   89.3920   90.7217 C   0  0  0  0  0  0  0  0  0  0  0  0
   90.4079   89.9591   90.5017 C   0  0  0  0  0  0  0  0  0  0  0  0
   89.2744   89.1397   90.3509 C   0  0  0  0  0  0  0  0  0  0  0  0
   89.4333   87.7422   90.3868 C   0  0  0  0  0  0  0  0  0  0  0  0
   87.9567   89.6850   90.1554 N   0  0  0  0  0  0  0  0  0  0  0  0
   87.6175   90.3168   90.8299 H   0  0  0  0  0  0  0  0  0  0  0  0
   86.9239   89.3050   88.8114 S   0  0  0  0  0  0  0  0  0  0  0  0
   87.7850   88.7931   87.6875 O   0  0  0  0  0  0  0  0  0  0  0  0
   86.2249   90.5558   88.3505 O   0  0  0  0  0  0  0  0  0  0  0  0
   85.7527   88.0277   89.2795 C   0  0  0  0  0  0  0  0  0  0  0  0
   85.8543   86.7631   88.4055 C   0  0  0  0  0  0  0  0  0  0  0  0
   86.0065   85.4652   89.2080 C   0  0  0  0  0  0  0  0  0  0  0  0
   85.1194   85.4340   90.2664 F   0  0  0  0  0  0  0  0  0  0  0  0
   85.7905   84.3668   88.3918 F   0  0  0  0  0  0  0  0  0  0  0  0
   87.2924   85.3953   89.7130 F   0  0  0  0  0  0  0  0  0  0  0  0
   91.3443   81.4479   90.6769 C   0  0  0  0  0  0  0  0  0  0  0  0
   90.7542   80.8756   89.5165 O   0  0  0  0  0  0  0  0  0  0  0  0
   92.0089   80.6100   86.0011 C   0  0  0  0  0  0  0  0  0  0  0  0
   91.2167   80.9797   87.1033 C   0  0  0  0  0  0  0  0  0  0  0  0
   91.4730   80.4619   88.3863 C   0  0  0  0  0  0  0  0  0  0  0  0
   92.4883   79.5106   88.5468 C   0  0  0  0  0  0  0  0  0  0  0  0
   93.2691   79.1205   87.4595 C   0  0  0  0  0  0  0  0  0  0  0  0
   93.0380   79.6573   86.1881 C   0  0  0  0  0  0  0  0  0  0  0  0
   93.8402   79.2577   85.1207 O   0  0  0  0  0  0  0  0  0  0  0  0
   94.5190   78.6261   85.2556 H   0  0  0  0  0  0  0  0  0  0  0  0
   90.6403   81.0327   84.0842 O   0  0  0  0  0  0  0  0  0  0  0  0
   91.7518   81.2072   84.6644 C   0  0  0  0  0  0  0  0  0  0  0  0
   92.7069   82.0132   84.0502 O   0  0  0  0  0  0  0  0  0  0  0  0
   93.5359   82.1549   84.4633 H   0  0  0  0  0  0  0  0  0  0  0  0
 34 35  2  0  0  0
 35 36  1  0  0  0
 35 26  1  0  0  0
 26 27  2  0  0  0
 27 28  1  0  0  0
 28 25  1  0  0  0
 25 24  1  0  0  0
 24  1  1  0  0  0
  1  2  2  0  0  0
  2  3  2  0  0  0
  3  4  2  0  0  0
  4  7  1  0  0  0
  7  8  2  0  0  0
  8  9  1  0  0  0
  9 10  2  0  0  0
 10 11  1  0  0  0
 11 13  1  0  0  0
 13 15  1  0  0  0
 15 16  2  0  0  0
 15 17  2  0  0  0
 15 18  1  0  0  0
 18 19  1  0  0  0
 19 20  1  0  0  0
 20 21  1  0  0  0
 20 22  1  0  0  0
 20 23  1  0  0  0
 11 12  2  0  0  0
  4  5  2  0  0  0
  5  6  2  0  0  0
 28 29  2  0  0  0
 29 30  1  0  0  0
 30 31  2  0  0  0
 31 32  1  0  0  0
 31 26  1  0  0  0
  6  1  1  0  0  0
 12  7  1  0  0  0
 36 37  1  0  0  0
 13 14  1  0  0  0
 32 33  1  0  0  0
M  END
> <Activity>
18.5

> <minimizedAffinity>
-8.54164

> <CNNscore>
0.3979997635

> <CNNaffinity>
6.6370439529

> <CNN_VS>
2.6415419579

$$$$
HIPS7792


 37 39  0  0  0  0  0  0  0  0999 V2000
   84.5928   89.3165   87.5229 C   0  0  0  0  0  0  0  0  0  0  0  0
   83.8011   88.6227   88.4416 C   0  0  0  0  0  0  0  0  0  0  0  0
   84.3817   87.8228   89.3736 N   0  0  0  0  0  0  0  0  0  0  0  0
   85.7351   87.6776   89.4399 C   0  0  0  0  0  0  0  0  0  0  0  0
   86.5208   88.3565   88.5556 N   0  0  0  0  0  0  0  0  0  0  0  0
   85.9825   89.1708   87.6091 C   0  0  0  0  0  0  0  0  0  0  0  0
   86.3408   86.7832   90.4591 C   0  0  0  0  0  0  0  0  0  0  0  0
   85.7191   86.6047   91.7082 C   0  0  0  0  0  0  0  0  0  0  0  0
   86.2670   85.7395   92.6551 C   0  0  0  0  0  0  0  0  0  0  0  0
   87.4485   85.0502   92.3767 C   0  0  0  0  0  0  0  0  0  0  0  0
   88.1047   85.2323   91.1457 C   0  0  0  0  0  0  0  0  0  0  0  0
   87.5318   86.0886   90.1875 C   0  0  0  0  0  0  0  0  0  0  0  0
   89.3416   84.5664   90.8323 N   0  0  0  0  0  0  0  0  0  0  0  0
   89.6959   84.6637   89.9189 H   0  0  0  0  0  0  0  0  0  0  0  0
   90.2523   83.6027   91.9547 S   0  0  0  0  0  0  0  0  0  0  0  0
   89.3096   83.1020   93.0164 O   0  0  0  0  0  0  0  0  0  0  0  0
   91.3028   84.4591   92.6092 O   0  0  0  0  0  0  0  0  0  0  0  0
   90.9792   82.1970   91.1074 C   0  0  0  0  0  0  0  0  0  0  0  0
   91.2591   82.4668   89.6167 C   0  0  0  0  0  0  0  0  0  0  0  0
   91.2316   81.2071   88.7425 C   0  0  0  0  0  0  0  0  0  0  0  0
   92.0267   80.2153   89.2832 F   0  0  0  0  0  0  0  0  0  0  0  0
   89.9340   80.7395   88.6132 F   0  0  0  0  0  0  0  0  0  0  0  0
   91.7168   81.5197   87.4854 F   0  0  0  0  0  0  0  0  0  0  0  0
   83.9656   90.2301   86.5126 C   0  0  0  0  0  0  0  0  0  0  0  0
   83.0544   91.1015   87.1705 O   0  0  0  0  0  0  0  0  0  0  0  0
   84.6931   94.0429   88.8030 C   0  0  0  0  0  0  0  0  0  0  0  0
   84.3544   92.7117   88.4990 C   0  0  0  0  0  0  0  0  0  0  0  0
   83.3547   92.4159   87.5542 C   0  0  0  0  0  0  0  0  0  0  0  0
   82.6417   93.4674   86.9647 C   0  0  0  0  0  0  0  0  0  0  0  0
   82.9537   94.7914   87.2708 C   0  0  0  0  0  0  0  0  0  0  0  0
   83.9691   95.0902   88.1860 C   0  0  0  0  0  0  0  0  0  0  0  0
   84.2675   96.4225   88.4659 O   0  0  0  0  0  0  0  0  0  0  0  0
   83.7818   97.1084   88.0517 H   0  0  0  0  0  0  0  0  0  0  0  0
   85.5706   95.0459   90.7905 O   0  0  0  0  0  0  0  0  0  0  0  0
   85.7866   94.3324   89.7674 C   0  0  0  0  0  0  0  0  0  0  0  0
   87.0531   93.7808   89.5928 O   0  0  0  0  0  0  0  0  0  0  0  0
   87.2333   93.2496   88.8422 H   0  0  0  0  0  0  0  0  0  0  0  0
 34 35  2  0  0  0
 35 36  1  0  0  0
 35 26  1  0  0  0
 26 27  2  0  0  0
 27 28  1  0  0  0
 28 25  1  0  0  0
 25 24  1  0  0  0
 24  1  1  0  0  0
  1  2  2  0  0  0
  2  3  2  0  0  0
  3  4  2  0  0  0
  4  7  1  0  0  0
  7  8  2  0  0  0
  8  9  1  0  0  0
  9 10  2  0  0  0
 10 11  1  0  0  0
 11 13  1  0  0  0
 13 15  1  0  0  0
 15 16  2  0  0  0
 15 17  2  0  0  0
 15 18  1  0  0  0
 18 19  1  0  0  0
 19 20  1  0  0  0
 20 21  1  0  0  0
 20 22  1  0  0  0
 20 23  1  0  0  0
 11 12  2  0  0  0
  4  5  2  0  0  0
  5  6  2  0  0  0
 28 29  2  0  0  0
 29 30  1  0  0  0
 30 31  2  0  0  0
 31 32  1  0  0  0
 31 26  1  0  0  0
  6  1  1  0  0  0
 12  7  1  0  0  0
 36 37  1  0  0  0
 13 14  1  0  0  0
 32 33  1  0  0  0
M  END
> <Activity>
18.5

> <minimizedAffinity>
-7.42020

> <CNNscore>
0.3860763013

> <CNNaffinity>
5.9338111877

> <CNN_VS>
2.2909038067

$$$$
HIPS7792


 37 39  0  0  0  0  0  0  0  0999 V2000
   92.3511   89.7632   89.7178 C   0  0  0  0  0  0  0  0  0  0  0  0
   93.3346   90.3704   90.5027 C   0  0  0  0  0  0  0  0  0  0  0  0
   93.1863   91.6601   90.9028 N   0  0  0  0  0  0  0  0  0  0  0  0
   92.0879   92.3885   90.5565 C   0  0  0  0  0  0  0  0  0  0  0  0
   91.1153   91.8056   89.7986 N   0  0  0  0  0  0  0  0  0  0  0  0
   91.2206   90.5164   89.3796 C   0  0  0  0  0  0  0  0  0  0  0  0
   91.9609   93.8019   90.9947 C   0  0  0  0  0  0  0  0  0  0  0  0
   92.5324   94.8368   90.2324 C   0  0  0  0  0  0  0  0  0  0  0  0
   92.3863   96.1679   90.6226 C   0  0  0  0  0  0  0  0  0  0  0  0
   91.6807   96.4862   91.7842 C   0  0  0  0  0  0  0  0  0  0  0  0
   91.1231   95.4681   92.5789 C   0  0  0  0  0  0  0  0  0  0  0  0
   91.2550   94.1299   92.1646 C   0  0  0  0  0  0  0  0  0  0  0  0
   90.4169   95.7514   93.8007 N   0  0  0  0  0  0  0  0  0  0  0  0
   90.6845   95.2584   94.6097 H   0  0  0  0  0  0  0  0  0  0  0  0
   89.1248   96.9034   93.9459 S   0  0  0  0  0  0  0  0  0  0  0  0
   88.3438   96.8977   92.6588 O   0  0  0  0  0  0  0  0  0  0  0  0
   89.7030   98.2777   94.1517 O   0  0  0  0  0  0  0  0  0  0  0  0
   88.0350   96.4362   95.2937 C   0  0  0  0  0  0  0  0  0  0  0  0
   86.5899   96.1607   94.8363 C   0  0  0  0  0  0  0  0  0  0  0  0
   86.3549   94.7236   94.3554 C   0  0  0  0  0  0  0  0  0  0  0  0
   85.3519   94.1176   95.0868 F   0  0  0  0  0  0  0  0  0  0  0  0
   86.0165   94.7151   93.0120 F   0  0  0  0  0  0  0  0  0  0  0  0
   87.5192   93.9957   94.5231 F   0  0  0  0  0  0  0  0  0  0  0  0
   92.4864   88.3293   89.3000 C   0  0  0  0  0  0  0  0  0  0  0  0
   92.2855   87.4907   90.4307 O   0  0  0  0  0  0  0  0  0  0  0  0
   89.9379   84.7378   91.3861 C   0  0  0  0  0  0  0  0  0  0  0  0
   91.1272   85.4142   91.0589 C   0  0  0  0  0  0  0  0  0  0  0  0
   91.1098   86.7695   90.6811 C   0  0  0  0  0  0  0  0  0  0  0  0
   89.8794   87.4280   90.5625 C   0  0  0  0  0  0  0  0  0  0  0  0
   88.6911   86.7646   90.8651 C   0  0  0  0  0  0  0  0  0  0  0  0
   88.7069   85.4259   91.2722 C   0  0  0  0  0  0  0  0  0  0  0  0
   87.5053   84.7898   91.5788 O   0  0  0  0  0  0  0  0  0  0  0  0
   86.6956   85.2548   91.5000 H   0  0  0  0  0  0  0  0  0  0  0  0
   89.2802   82.9278   92.8065 O   0  0  0  0  0  0  0  0  0  0  0  0
   89.9845   83.3201   91.8306 C   0  0  0  0  0  0  0  0  0  0  0  0
   90.7612   82.3866   91.1493 O   0  0  0  0  0  0  0  0  0  0  0  0
   91.2896   82.6567   90.4241 H   0  0  0  0  0  0  0  0  0  0  0  0
 34 35  2  0  0  0
 35 36  1  0  0  0
 35 26  1  0  0  0
 26 27  2  0  0  0
 27 28  1  0  0  0
 28 25  1  0  0  0
 25 24  1  0  0  0
 24  1  1  0  0  0
  1  2  2  0  0  0
  2  3  2  0  0  0
  3  4  2  0  0  0
  4  7  1  0  0  0
  7  8  2  0  0  0
  8  9  1  0  0  0
  9 10  2  0  0  0
 10 11  1  0  0  0
 11 13  1  0  0  0
 13 15  1  0  0  0
 15 16  2  0  0  0
 15 17  2  0  0  0
 15 18  1  0  0  0
 18 19  1  0  0  0
 19 20  1  0  0  0
 20 21  1  0  0  0
 20 22  1  0  0  0
 20 23  1  0  0  0
 11 12  2  0  0  0
  4  5  2  0  0  0
  5  6  2  0  0  0
 28 29  2  0  0  0
 29 30  1  0  0  0
 30 31  2  0  0  0
 31 32  1  0  0  0
 31 26  1  0  0  0
  6  1  1  0  0  0
 12  7  1  0  0  0
 36 37  1  0  0  0
 13 14  1  0  0  0
 32 33  1  0  0  0
M  END
> <Activity>
18.5

> <minimizedAffinity>
-7.40330

> <CNNscore>
0.3837817907

> <CNNaffinity>
6.0135164261

> <CNN_VS>
2.3078780174

$$$$
HIPS6992


 35 38  0  0  0  0  0  0  0  0999 V2000
   89.9827   85.9144   91.2413 C   0  0  0  0  0  0  0  0  0  0  0  0
   90.7792   84.7621   91.3722 C   0  0  0  0  0  0  0  0  0  0  0  0
   90.2519   83.6013   91.9488 C   0  0  0  0  0  0  0  0  0  0  0  0
   88.9243   83.5745   92.3855 C   0  0  0  0  0  0  0  0  0  0  0  0
   88.1123   84.7125   92.2518 C   0  0  0  0  0  0  0  0  0  0  0  0
   88.6605   85.8887   91.7173 C   0  0  0  0  0  0  0  0  0  0  0  0
   90.1521   89.4079   89.7501 C   0  0  0  0  0  0  0  0  0  0  0  0
   91.4971   89.4739   89.3738 C   0  0  0  0  0  0  0  0  0  0  0  0
   92.3371   88.3716   89.5628 C   0  0  0  0  0  0  0  0  0  0  0  0
   91.8452   87.2035   90.1553 C   0  0  0  0  0  0  0  0  0  0  0  0
   90.5067   87.1330   90.5738 C   0  0  0  0  0  0  0  0  0  0  0  0
   89.6655   88.2423   90.3658 C   0  0  0  0  0  0  0  0  0  0  0  0
   89.3312   90.5269   89.5429 O   0  0  0  0  0  0  0  0  0  0  0  0
   88.8104   93.7887   92.1695 C   0  0  0  0  0  0  0  0  0  0  0  0
   89.5779   92.6899   92.5804 C   0  0  0  0  0  0  0  0  0  0  0  0
   89.7783   91.6077   91.7121 C   0  0  0  0  0  0  0  0  0  0  0  0
   89.2104   91.6180   90.4202 C   0  0  0  0  0  0  0  0  0  0  0  0
   88.4493   92.7227   90.0165 C   0  0  0  0  0  0  0  0  0  0  0  0
   88.2502   93.8056   90.8846 C   0  0  0  0  0  0  0  0  0  0  0  0
   88.3831   95.7645   93.8062 N   0  0  0  0  0  0  0  0  0  0  0  0
   88.5729   94.8844   93.0772 C   0  0  0  0  0  0  0  0  0  0  0  0
   86.6682   84.6758   92.6884 C   0  0  0  0  0  0  0  0  0  0  0  0
   85.7956   84.4218   91.5809 O   0  0  0  0  0  0  0  0  0  0  0  0
   85.5109   85.3331   90.5438 C   0  0  0  0  0  0  0  0  0  0  0  0
   85.0346   86.6355   90.7881 C   0  0  0  0  0  0  0  0  0  0  0  0
   84.7328   87.4865   89.7207 C   0  0  0  0  0  0  0  0  0  0  0  0
   84.9116   87.0605   88.3954 C   0  0  0  0  0  0  0  0  0  0  0  0
   84.5665   87.9121   87.3428 O   0  0  0  0  0  0  0  0  0  0  0  0
   85.4109   85.7630   88.1374 C   0  0  0  0  0  0  0  0  0  0  0  0
   85.6990   84.9117   89.2202 C   0  0  0  0  0  0  0  0  0  0  0  0
   84.2365   88.7703   87.5234 H   0  0  0  0  0  0  0  0  0  0  0  0
   85.6232   85.2706   86.7560 C   0  0  0  0  0  0  0  0  0  0  0  0
   86.2554   85.9686   85.9184 O   0  0  0  0  0  0  0  0  0  0  0  0
   85.1459   84.0175   86.3743 O   0  0  0  0  0  0  0  0  0  0  0  0
   84.6744   83.4890   86.9878 H   0  0  0  0  0  0  0  0  0  0  0  0
 20 21  3  0  0  0
 21 14  1  0  0  0
 14 15  2  0  0  0
 15 16  1  0  0  0
 16 17  2  0  0  0
 17 13  1  0  0  0
 13  7  1  0  0  0
  7  8  2  0  0  0
  8  9  1  0  0  0
  9 10  2  0  0  0
 10 11  1  0  0  0
 11  1  1  0  0  0
  1  2  2  0  0  0
  2  3  1  0  0  0
  3  4  2  0  0  0
  4  5  1  0  0  0
  5 22  1  0  0  0
 22 23  1  0  0  0
 23 24  1  0  0  0
 24 25  2  0  0  0
 25 26  1  0  0  0
 26 27  2  0  0  0
 27 28  1  0  0  0
 27 29  1  0  0  0
 29 32  1  0  0  0
 32 33  2  0  0  0
 32 34  1  0  0  0
 29 30  2  0  0  0
  5  6  2  0  0  0
 11 12  2  0  0  0
 17 18  1  0  0  0
 18 19  2  0  0  0
 19 14  1  0  0  0
 12  7  1  0  0  0
  6  1  1  0  0  0
 30 24  1  0  0  0
 28 31  1  0  0  0
 34 35  1  0  0  0
M  END
> <Activity>
18.6

> <minimizedAffinity>
-9.24014

> <CNNscore>
0.5025922060

> <CNNaffinity>
6.5068168640

> <CNN_VS>
3.2702753544

$$$$
HIPS6992


 35 38  0  0  0  0  0  0  0  0999 V2000
   89.7420   88.9596   90.2472 C   0  0  0  0  0  0  0  0  0  0  0  0
   90.8482   88.8790   89.3817 C   0  0  0  0  0  0  0  0  0  0  0  0
   91.4329   90.0441   88.8731 C   0  0  0  0  0  0  0  0  0  0  0  0
   90.9302   91.2975   89.2338 C   0  0  0  0  0  0  0  0  0  0  0  0
   89.8337   91.3959   90.1057 C   0  0  0  0  0  0  0  0  0  0  0  0
   89.2210   90.2234   90.5742 C   0  0  0  0  0  0  0  0  0  0  0  0
   89.4352   85.5086   91.8133 C   0  0  0  0  0  0  0  0  0  0  0  0
   88.0579   85.4402   92.0440 C   0  0  0  0  0  0  0  0  0  0  0  0
   87.2243   86.4928   91.6522 C   0  0  0  0  0  0  0  0  0  0  0  0
   87.7651   87.6346   91.0513 C   0  0  0  0  0  0  0  0  0  0  0  0
   89.1505   87.7363   90.8461 C   0  0  0  0  0  0  0  0  0  0  0  0
   89.9795   86.6655   91.2305 C   0  0  0  0  0  0  0  0  0  0  0  0
   90.2465   84.4350   92.2113 O   0  0  0  0  0  0  0  0  0  0  0  0
   91.5079   81.3282   89.6488 C   0  0  0  0  0  0  0  0  0  0  0  0
   91.8540   82.6526   89.3468 C   0  0  0  0  0  0  0  0  0  0  0  0
   91.4611   83.6942   90.1989 C   0  0  0  0  0  0  0  0  0  0  0  0
   90.7165   83.4163   91.3651 C   0  0  0  0  0  0  0  0  0  0  0  0
   90.3798   82.0891   91.6615 C   0  0  0  0  0  0  0  0  0  0  0  0
   90.7741   81.0474   90.8098 C   0  0  0  0  0  0  0  0  0  0  0  0
   92.1789   79.4052   88.0310 N   0  0  0  0  0  0  0  0  0  0  0  0
   91.8796   80.2615   88.7517 C   0  0  0  0  0  0  0  0  0  0  0  0
   89.3114   92.7478   90.5264 C   0  0  0  0  0  0  0  0  0  0  0  0
   89.4392   92.9385   91.9405 O   0  0  0  0  0  0  0  0  0  0  0  0
   89.1053   94.1184   92.6358 C   0  0  0  0  0  0  0  0  0  0  0  0
   90.0728   95.0530   93.0521 C   0  0  0  0  0  0  0  0  0  0  0  0
   89.6905   96.1892   93.7714 C   0  0  0  0  0  0  0  0  0  0  0  0
   88.3401   96.4198   94.0769 C   0  0  0  0  0  0  0  0  0  0  0  0
   87.9835   97.5408   94.8309 O   0  0  0  0  0  0  0  0  0  0  0  0
   87.3566   95.5004   93.6447 C   0  0  0  0  0  0  0  0  0  0  0  0
   87.7558   94.3544   92.9322 C   0  0  0  0  0  0  0  0  0  0  0  0
   88.6421   98.1446   95.1129 H   0  0  0  0  0  0  0  0  0  0  0  0
   85.9182   95.7041   93.9366 C   0  0  0  0  0  0  0  0  0  0  0  0
   85.4420   96.8677   94.0241 O   0  0  0  0  0  0  0  0  0  0  0  0
   85.0700   94.6088   94.0941 O   0  0  0  0  0  0  0  0  0  0  0  0
   85.4119   93.7387   94.0313 H   0  0  0  0  0  0  0  0  0  0  0  0
 20 21  3  0  0  0
 21 14  1  0  0  0
 14 15  2  0  0  0
 15 16  1  0  0  0
 16 17  2  0  0  0
 17 13  1  0  0  0
 13  7  1  0  0  0
  7  8  2  0  0  0
  8  9  1  0  0  0
  9 10  2  0  0  0
 10 11  1  0  0  0
 11  1  1  0  0  0
  1  2  2  0  0  0
  2  3  1  0  0  0
  3  4  2  0  0  0
  4  5  1  0  0  0
  5 22  1  0  0  0
 22 23  1  0  0  0
 23 24  1  0  0  0
 24 25  2  0  0  0
 25 26  1  0  0  0
 26 27  2  0  0  0
 27 28  1  0  0  0
 27 29  1  0  0  0
 29 32  1  0  0  0
 32 33  2  0  0  0
 32 34  1  0  0  0
 29 30  2  0  0  0
  5  6  2  0  0  0
 11 12  2  0  0  0
 17 18  1  0  0  0
 18 19  2  0  0  0
 19 14  1  0  0  0
 12  7  1  0  0  0
  6  1  1  0  0  0
 30 24  1  0  0  0
 28 31  1  0  0  0
 34 35  1  0  0  0
M  END
> <Activity>
18.6

> <minimizedAffinity>
-8.97643

> <CNNscore>
0.4865572751

> <CNNaffinity>
5.9983711243

> <CNN_VS>
2.9185512066

$$$$
HIPS6992


 35 38  0  0  0  0  0  0  0  0999 V2000
   88.6800   86.0618   91.5134 C   0  0  0  0  0  0  0  0  0  0  0  0
   88.7234   84.7325   91.9721 C   0  0  0  0  0  0  0  0  0  0  0  0
   87.5751   84.1287   92.4961 C   0  0  0  0  0  0  0  0  0  0  0  0
   86.3722   84.8384   92.5536 C   0  0  0  0  0  0  0  0  0  0  0  0
   86.3089   86.1624   92.0895 C   0  0  0  0  0  0  0  0  0  0  0  0
   87.4750   86.7788   91.6099 C   0  0  0  0  0  0  0  0  0  0  0  0
   91.0351   88.7034   90.1233 C   0  0  0  0  0  0  0  0  0  0  0  0
   92.1468   87.9233   89.7910 C   0  0  0  0  0  0  0  0  0  0  0  0
   92.1164   86.5373   89.9762 C   0  0  0  0  0  0  0  0  0  0  0  0
   90.9837   85.9233   90.5212 C   0  0  0  0  0  0  0  0  0  0  0  0
   89.8724   86.6957   90.8958 C   0  0  0  0  0  0  0  0  0  0  0  0
   89.9070   88.0881   90.6918 C   0  0  0  0  0  0  0  0  0  0  0  0
   91.0915   90.0908   89.9209 O   0  0  0  0  0  0  0  0  0  0  0  0
   87.8708   92.8152   90.0409 C   0  0  0  0  0  0  0  0  0  0  0  0
   87.6263   91.4746   89.7123 C   0  0  0  0  0  0  0  0  0  0  0  0
   88.6818   90.5522   89.6888 C   0  0  0  0  0  0  0  0  0  0  0  0
   89.9952   90.9668   89.9963 C   0  0  0  0  0  0  0  0  0  0  0  0
   90.2291   92.3075   90.3287 C   0  0  0  0  0  0  0  0  0  0  0  0
   89.1731   93.2294   90.3535 C   0  0  0  0  0  0  0  0  0  0  0  0
   85.9231   94.5389   90.0176 N   0  0  0  0  0  0  0  0  0  0  0  0
   86.7907   93.7712   90.0275 C   0  0  0  0  0  0  0  0  0  0  0  0
   85.0037   86.9194   92.1160 C   0  0  0  0  0  0  0  0  0  0  0  0
   84.3467   86.8694   90.8440 O   0  0  0  0  0  0  0  0  0  0  0  0
   84.9618   87.1181   89.6003 C   0  0  0  0  0  0  0  0  0  0  0  0
   85.4173   88.3956   89.2214 C   0  0  0  0  0  0  0  0  0  0  0  0
   85.9872   88.5945   87.9604 C   0  0  0  0  0  0  0  0  0  0  0  0
   86.1242   87.5248   87.0620 C   0  0  0  0  0  0  0  0  0  0  0  0
   86.6599   87.7528   85.7919 O   0  0  0  0  0  0  0  0  0  0  0  0
   85.6914   86.2326   87.4395 C   0  0  0  0  0  0  0  0  0  0  0  0
   85.1082   86.0481   88.7067 C   0  0  0  0  0  0  0  0  0  0  0  0
   86.9440   88.6125   85.5507 H   0  0  0  0  0  0  0  0  0  0  0  0
   85.8214   85.0709   86.5287 C   0  0  0  0  0  0  0  0  0  0  0  0
   85.8843   83.9000   86.9908 O   0  0  0  0  0  0  0  0  0  0  0  0
   85.8513   85.2592   85.1476 O   0  0  0  0  0  0  0  0  0  0  0  0
   85.8052   86.1248   84.7917 H   0  0  0  0  0  0  0  0  0  0  0  0
 20 21  3  0  0  0
 21 14  1  0  0  0
 14 15  2  0  0  0
 15 16  1  0  0  0
 16 17  2  0  0  0
 17 13  1  0  0  0
 13  7  1  0  0  0
  7  8  2  0  0  0
  8  9  1  0  0  0
  9 10  2  0  0  0
 10 11  1  0  0  0
 11  1  1  0  0  0
  1  2  2  0  0  0
  2  3  1  0  0  0
  3  4  2  0  0  0
  4  5  1  0  0  0
  5 22  1  0  0  0
 22 23  1  0  0  0
 23 24  1  0  0  0
 24 25  2  0  0  0
 25 26  1  0  0  0
 26 27  2  0  0  0
 27 28  1  0  0  0
 27 29  1  0  0  0
 29 32  1  0  0  0
 32 33  2  0  0  0
 32 34  1  0  0  0
 29 30  2  0  0  0
  5  6  2  0  0  0
 11 12  2  0  0  0
 17 18  1  0  0  0
 18 19  2  0  0  0
 19 14  1  0  0  0
 12  7  1  0  0  0
  6  1  1  0  0  0
 30 24  1  0  0  0
 28 31  1  0  0  0
 34 35  1  0  0  0
M  END
> <Activity>
18.6

> <minimizedAffinity>
-8.70804

> <CNNscore>
0.4722536802

> <CNNaffinity>
6.5261135101

> <CNN_VS>
3.0819811821

$$$$
HIPS7001


 36 39  0  0  0  0  0  0  0  0999 V2000
   89.9713   87.5063   90.4598 C   0  0  0  0  0  0  0  0  0  0  0  0
   89.1677   88.2708   89.5973 C   0  0  0  0  0  0  0  0  0  0  0  0
   89.7255   89.3044   88.8435 C   0  0  0  0  0  0  0  0  0  0  0  0
   91.0853   89.5970   88.9467 C   0  0  0  0  0  0  0  0  0  0  0  0
   91.9138   88.8386   89.7975 C   0  0  0  0  0  0  0  0  0  0  0  0
   91.3472   87.7907   90.5422 C   0  0  0  0  0  0  0  0  0  0  0  0
   87.4173   85.4659   92.3996 C   0  0  0  0  0  0  0  0  0  0  0  0
   88.2119   84.3871   92.8295 C   0  0  0  0  0  0  0  0  0  0  0  0
   89.5680   84.3386   92.5017 C   0  0  0  0  0  0  0  0  0  0  0  0
   90.1455   85.3617   91.7479 C   0  0  0  0  0  0  0  0  0  0  0  0
   89.3689   86.4491   91.3105 C   0  0  0  0  0  0  0  0  0  0  0  0
   88.0039   86.4968   91.6542 C   0  0  0  0  0  0  0  0  0  0  0  0
   86.0460   85.5499   92.6881 O   0  0  0  0  0  0  0  0  0  0  0  0
   85.1110   86.3649   91.9789 C   0  0  0  0  0  0  0  0  0  0  0  0
   85.6909   86.0390   87.7199 C   0  0  0  0  0  0  0  0  0  0  0  0
   85.5213   87.3018   88.3054 C   0  0  0  0  0  0  0  0  0  0  0  0
   85.3553   87.4128   89.6894 C   0  0  0  0  0  0  0  0  0  0  0  0
   85.3642   86.2645   90.5003 C   0  0  0  0  0  0  0  0  0  0  0  0
   85.5295   85.0027   89.9069 C   0  0  0  0  0  0  0  0  0  0  0  0
   85.7003   84.8922   88.5236 C   0  0  0  0  0  0  0  0  0  0  0  0
   85.9907   85.8246   85.1504 N   0  0  0  0  0  0  0  0  0  0  0  0
   85.8586   85.9203   86.2961 C   0  0  0  0  0  0  0  0  0  0  0  0
   93.3910   89.1190   89.9612 C   0  0  0  0  0  0  0  0  0  0  0  0
   93.6685   90.1292   90.9337 O   0  0  0  0  0  0  0  0  0  0  0  0
   93.1012   91.4152   90.9670 C   0  0  0  0  0  0  0  0  0  0  0  0
   92.0929   91.6632   91.9016 C   0  0  0  0  0  0  0  0  0  0  0  0
   91.4688   92.9093   91.9584 C   0  0  0  0  0  0  0  0  0  0  0  0
   91.8403   93.9333   91.0812 C   0  0  0  0  0  0  0  0  0  0  0  0
   91.1147   95.1251   91.1204 O   0  0  0  0  0  0  0  0  0  0  0  0
   92.9000   93.7196   90.1663 C   0  0  0  0  0  0  0  0  0  0  0  0
   93.5023   92.4496   90.1000 C   0  0  0  0  0  0  0  0  0  0  0  0
   90.4198   95.2303   91.7401 H   0  0  0  0  0  0  0  0  0  0  0  0
   93.4291   94.8044   89.3125 C   0  0  0  0  0  0  0  0  0  0  0  0
   93.5670   94.6221   88.0746 O   0  0  0  0  0  0  0  0  0  0  0  0
   93.8331   96.0112   89.8752 O   0  0  0  0  0  0  0  0  0  0  0  0
   93.7341   96.1553   90.7957 H   0  0  0  0  0  0  0  0  0  0  0  0
 21 22  3  0  0  0
 22 15  1  0  0  0
 15 16  2  0  0  0
 16 17  1  0  0  0
 17 18  2  0  0  0
 18 14  1  0  0  0
 14 13  1  0  0  0
 13  7  1  0  0  0
  7  8  2  0  0  0
  8  9  1  0  0  0
  9 10  2  0  0  0
 10 11  1  0  0  0
 11  1  1  0  0  0
  1  2  2  0  0  0
  2  3  1  0  0  0
  3  4  2  0  0  0
  4  5  1  0  0  0
  5 23  1  0  0  0
 23 24  1  0  0  0
 24 25  1  0  0  0
 25 26  2  0  0  0
 26 27  1  0  0  0
 27 28  2  0  0  0
 28 29  1  0  0  0
 28 30  1  0  0  0
 30 33  1  0  0  0
 33 34  2  0  0  0
 33 35  1  0  0  0
 30 31  2  0  0  0
  5  6  2  0  0  0
 11 12  2  0  0  0
 18 19  1  0  0  0
 19 20  2  0  0  0
 20 15  1  0  0  0
 12  7  1  0  0  0
  6  1  1  0  0  0
 31 25  1  0  0  0
 29 32  1  0  0  0
 35 36  1  0  0  0
M  END
> <Activity>
23.7

> <minimizedAffinity>
-8.60161

> <CNNscore>
0.5975806117

> <CNNaffinity>
6.4525909424

> <CNN_VS>
3.8559432030

$$$$
HIPS7001


 36 39  0  0  0  0  0  0  0  0999 V2000
   87.9798   88.0853   90.6695 C   0  0  0  0  0  0  0  0  0  0  0  0
   87.0132   88.7969   89.9390 C   0  0  0  0  0  0  0  0  0  0  0  0
   87.3252   90.0336   89.3726 C   0  0  0  0  0  0  0  0  0  0  0  0
   88.5973   90.5820   89.5352 C   0  0  0  0  0  0  0  0  0  0  0  0
   89.5866   89.8834   90.2554 C   0  0  0  0  0  0  0  0  0  0  0  0
   89.2687   88.6326   90.8104 C   0  0  0  0  0  0  0  0  0  0  0  0
   88.3087   84.7915   92.5382 C   0  0  0  0  0  0  0  0  0  0  0  0
   86.9565   84.4241   92.6668 C   0  0  0  0  0  0  0  0  0  0  0  0
   85.9538   85.2364   92.1343 C   0  0  0  0  0  0  0  0  0  0  0  0
   86.2862   86.4169   91.4677 C   0  0  0  0  0  0  0  0  0  0  0  0
   87.6315   86.8006   91.3271 C   0  0  0  0  0  0  0  0  0  0  0  0
   88.6383   85.9707   91.8574 C   0  0  0  0  0  0  0  0  0  0  0  0
   89.3510   84.0176   93.0726 O   0  0  0  0  0  0  0  0  0  0  0  0
   90.7237   84.1213   92.6901 C   0  0  0  0  0  0  0  0  0  0  0  0
   91.3428   81.6129   89.2395 C   0  0  0  0  0  0  0  0  0  0  0  0
   91.7313   82.9597   89.2007 C   0  0  0  0  0  0  0  0  0  0  0  0
   91.5525   83.7705   90.3258 C   0  0  0  0  0  0  0  0  0  0  0  0
   90.9905   83.2412   91.5007 C   0  0  0  0  0  0  0  0  0  0  0  0
   90.5990   81.8931   91.5310 C   0  0  0  0  0  0  0  0  0  0  0  0
   90.7824   81.0812   90.4075 C   0  0  0  0  0  0  0  0  0  0  0  0
   91.6673   80.1016   87.1541 N   0  0  0  0  0  0  0  0  0  0  0  0
   91.5220   80.7765   88.0830 C   0  0  0  0  0  0  0  0  0  0  0  0
   90.9776   90.4346   90.4768 C   0  0  0  0  0  0  0  0  0  0  0  0
   91.1120   91.1473   91.7086 O   0  0  0  0  0  0  0  0  0  0  0  0
   90.8028   92.5039   91.9106 C   0  0  0  0  0  0  0  0  0  0  0  0
   91.7157   93.4593   91.4572 C   0  0  0  0  0  0  0  0  0  0  0  0
   91.4796   94.8189   91.6601 C   0  0  0  0  0  0  0  0  0  0  0  0
   90.3255   95.2511   92.3213 C   0  0  0  0  0  0  0  0  0  0  0  0
   90.1912   96.6160   92.5806 O   0  0  0  0  0  0  0  0  0  0  0  0
   89.3606   94.3011   92.7364 C   0  0  0  0  0  0  0  0  0  0  0  0
   89.6237   92.9313   92.5508 C   0  0  0  0  0  0  0  0  0  0  0  0
   90.8505   97.2152   92.2902 H   0  0  0  0  0  0  0  0  0  0  0  0
   88.0609   94.7051   93.3137 C   0  0  0  0  0  0  0  0  0  0  0  0
   87.6456   94.1645   94.3719 O   0  0  0  0  0  0  0  0  0  0  0  0
   87.2607   95.6397   92.6638 O   0  0  0  0  0  0  0  0  0  0  0  0
   87.5619   96.0470   91.8755 H   0  0  0  0  0  0  0  0  0  0  0  0
 21 22  3  0  0  0
 22 15  1  0  0  0
 15 16  2  0  0  0
 16 17  1  0  0  0
 17 18  2  0  0  0
 18 14  1  0  0  0
 14 13  1  0  0  0
 13  7  1  0  0  0
  7  8  2  0  0  0
  8  9  1  0  0  0
  9 10  2  0  0  0
 10 11  1  0  0  0
 11  1  1  0  0  0
  1  2  2  0  0  0
  2  3  1  0  0  0
  3  4  2  0  0  0
  4  5  1  0  0  0
  5 23  1  0  0  0
 23 24  1  0  0  0
 24 25  1  0  0  0
 25 26  2  0  0  0
 26 27  1  0  0  0
 27 28  2  0  0  0
 28 29  1  0  0  0
 28 30  1  0  0  0
 30 33  1  0  0  0
 33 34  2  0  0  0
 33 35  1  0  0  0
 30 31  2  0  0  0
  5  6  2  0  0  0
 11 12  2  0  0  0
 18 19  1  0  0  0
 19 20  2  0  0  0
 20 15  1  0  0  0
 12  7  1  0  0  0
  6  1  1  0  0  0
 31 25  1  0  0  0
 29 32  1  0  0  0
 35 36  1  0  0  0
M  END
> <Activity>
23.7

> <minimizedAffinity>
-8.75544

> <CNNscore>
0.5713360310

> <CNNaffinity>
6.3188562393

> <CNN_VS>
3.6101901531

$$$$
HIPS7001


 36 39  0  0  0  0  0  0  0  0999 V2000
   91.0576   87.0437   90.3272 C   0  0  0  0  0  0  0  0  0  0  0  0
   92.1999   87.8044   90.0261 C   0  0  0  0  0  0  0  0  0  0  0  0
   92.0951   89.1783   89.8041 C   0  0  0  0  0  0  0  0  0  0  0  0
   90.8528   89.8093   89.8678 C   0  0  0  0  0  0  0  0  0  0  0  0
   89.6941   89.0699   90.1773 C   0  0  0  0  0  0  0  0  0  0  0  0
   89.8102   87.6899   90.4133 C   0  0  0  0  0  0  0  0  0  0  0  0
   90.3739   83.5064   91.5393 C   0  0  0  0  0  0  0  0  0  0  0  0
   91.2739   82.7751   90.7424 C   0  0  0  0  0  0  0  0  0  0  0  0
   92.1035   83.4342   89.8335 C   0  0  0  0  0  0  0  0  0  0  0  0
   92.0480   84.8236   89.7115 C   0  0  0  0  0  0  0  0  0  0  0  0
   91.1568   85.5725   90.5000 C   0  0  0  0  0  0  0  0  0  0  0  0
   90.3306   84.9018   91.4226 C   0  0  0  0  0  0  0  0  0  0  0  0
   89.5068   82.8875   92.4536 O   0  0  0  0  0  0  0  0  0  0  0  0
   88.7645   83.5705   93.4655 C   0  0  0  0  0  0  0  0  0  0  0  0
   85.6374   86.0089   91.7753 C   0  0  0  0  0  0  0  0  0  0  0  0
   86.7960   86.6145   92.2826 C   0  0  0  0  0  0  0  0  0  0  0  0
   87.8219   85.8251   92.8112 C   0  0  0  0  0  0  0  0  0  0  0  0
   87.7021   84.4245   92.8312 C   0  0  0  0  0  0  0  0  0  0  0  0
   86.5372   83.8250   92.3261 C   0  0  0  0  0  0  0  0  0  0  0  0
   85.5135   84.6142   91.7932 C   0  0  0  0  0  0  0  0  0  0  0  0
   83.7268   87.4677   90.7955 N   0  0  0  0  0  0  0  0  0  0  0  0
   84.5783   86.8178   91.2337 C   0  0  0  0  0  0  0  0  0  0  0  0
   88.3194   89.6968   90.2456 C   0  0  0  0  0  0  0  0  0  0  0  0
   87.7377   89.9214   88.9593 O   0  0  0  0  0  0  0  0  0  0  0  0
   86.7117   89.1567   88.3770 C   0  0  0  0  0  0  0  0  0  0  0  0
   85.5866   89.8288   87.8932 C   0  0  0  0  0  0  0  0  0  0  0  0
   84.5217   89.1206   87.3365 C   0  0  0  0  0  0  0  0  0  0  0  0
   84.5601   87.7251   87.2524 C   0  0  0  0  0  0  0  0  0  0  0  0
   83.4259   87.0660   86.7754 O   0  0  0  0  0  0  0  0  0  0  0  0
   85.7163   87.0305   87.6840 C   0  0  0  0  0  0  0  0  0  0  0  0
   86.7719   87.7540   88.2692 C   0  0  0  0  0  0  0  0  0  0  0  0
   82.6790   87.5594   86.4984 H   0  0  0  0  0  0  0  0  0  0  0  0
   85.8719   85.5727   87.4929 C   0  0  0  0  0  0  0  0  0  0  0  0
   86.0338   84.8200   88.4887 O   0  0  0  0  0  0  0  0  0  0  0  0
   85.8999   85.0284   86.2126 O   0  0  0  0  0  0  0  0  0  0  0  0
   85.7802   85.5814   85.4657 H   0  0  0  0  0  0  0  0  0  0  0  0
 21 22  3  0  0  0
 22 15  1  0  0  0
 15 16  2  0  0  0
 16 17  1  0  0  0
 17 18  2  0  0  0
 18 14  1  0  0  0
 14 13  1  0  0  0
 13  7  1  0  0  0
  7  8  2  0  0  0
  8  9  1  0  0  0
  9 10  2  0  0  0
 10 11  1  0  0  0
 11  1  1  0  0  0
  1  2  2  0  0  0
  2  3  1  0  0  0
  3  4  2  0  0  0
  4  5  1  0  0  0
  5 23  1  0  0  0
 23 24  1  0  0  0
 24 25  1  0  0  0
 25 26  2  0  0  0
 26 27  1  0  0  0
 27 28  2  0  0  0
 28 29  1  0  0  0
 28 30  1  0  0  0
 30 33  1  0  0  0
 33 34  2  0  0  0
 33 35  1  0  0  0
 30 31  2  0  0  0
  5  6  2  0  0  0
 11 12  2  0  0  0
 18 19  1  0  0  0
 19 20  2  0  0  0
 20 15  1  0  0  0
 12  7  1  0  0  0
  6  1  1  0  0  0
 31 25  1  0  0  0
 29 32  1  0  0  0
 35 36  1  0  0  0
M  END
> <Activity>
23.7

> <minimizedAffinity>
-9.24440

> <CNNscore>
0.5096455812

> <CNNaffinity>
6.6508531570

> <CNN_VS>
3.3895778656

$$$$
HIPS7784


 38 41  0  0  0  0  0  0  0  0999 V2000
   91.5479   88.9552   90.5404 C   0  0  0  0  0  0  0  0  0  0  0  0
   90.3535   89.5707   90.1518 C   0  0  0  0  0  0  0  0  0  0  0  0
   90.2558   90.9256   90.1494 N   0  0  0  0  0  0  0  0  0  0  0  0
   91.3070   91.7133   90.5082 C   0  0  0  0  0  0  0  0  0  0  0  0
   92.4817   91.1296   90.8713 N   0  0  0  0  0  0  0  0  0  0  0  0
   92.6242   89.7789   90.8897 C   0  0  0  0  0  0  0  0  0  0  0  0
   91.1727   93.1914   90.5063 C   0  0  0  0  0  0  0  0  0  0  0  0
   90.7754   93.8726   89.3413 C   0  0  0  0  0  0  0  0  0  0  0  0
   90.6393   95.2623   89.3452 C   0  0  0  0  0  0  0  0  0  0  0  0
   90.8859   95.9898   90.5094 C   0  0  0  0  0  0  0  0  0  0  0  0
   91.2711   95.3300   91.6874 C   0  0  0  0  0  0  0  0  0  0  0  0
   91.4290   93.9357   91.6731 C   0  0  0  0  0  0  0  0  0  0  0  0
   91.4956   96.0500   92.9093 N   0  0  0  0  0  0  0  0  0  0  0  0
   92.4232   96.2350   93.1822 H   0  0  0  0  0  0  0  0  0  0  0  0
   90.2048   96.6094   93.9275 S   0  0  0  0  0  0  0  0  0  0  0  0
   89.3136   97.5413   93.1556 O   0  0  0  0  0  0  0  0  0  0  0  0
   90.7918   97.3577   95.0917 O   0  0  0  0  0  0  0  0  0  0  0  0
   89.2500   95.2319   94.5533 C   0  0  0  0  0  0  0  0  0  0  0  0
   87.9553   95.0947   93.8010 C   0  0  0  0  0  0  0  0  0  0  0  0
   87.9588   94.6975   92.4531 C   0  0  0  0  0  0  0  0  0  0  0  0
   86.7575   94.5961   91.7437 C   0  0  0  0  0  0  0  0  0  0  0  0
   85.5450   94.8981   92.3712 C   0  0  0  0  0  0  0  0  0  0  0  0
   85.5330   95.2959   93.7112 C   0  0  0  0  0  0  0  0  0  0  0  0
   86.7316   95.3938   94.4252 C   0  0  0  0  0  0  0  0  0  0  0  0
   91.6805   87.4554   90.5450 C   0  0  0  0  0  0  0  0  0  0  0  0
   90.4679   86.8359   90.9757 O   0  0  0  0  0  0  0  0  0  0  0  0
   90.7725   83.0943   90.9872 C   0  0  0  0  0  0  0  0  0  0  0  0
   90.9329   84.4405   90.5978 C   0  0  0  0  0  0  0  0  0  0  0  0
   90.3251   85.4814   91.3248 C   0  0  0  0  0  0  0  0  0  0  0  0
   89.5439   85.1682   92.4392 C   0  0  0  0  0  0  0  0  0  0  0  0
   89.3723   83.8423   92.8354 C   0  0  0  0  0  0  0  0  0  0  0  0
   89.9818   82.8014   92.1219 C   0  0  0  0  0  0  0  0  0  0  0  0
   89.7998   81.4847   92.5467 O   0  0  0  0  0  0  0  0  0  0  0  0
   89.2733   81.3041   93.3005 H   0  0  0  0  0  0  0  0  0  0  0  0
   91.9573   81.0338   90.7886 O   0  0  0  0  0  0  0  0  0  0  0  0
   91.4355   82.0202   90.2012 C   0  0  0  0  0  0  0  0  0  0  0  0
   91.4916   82.0808   88.8098 O   0  0  0  0  0  0  0  0  0  0  0  0
   91.1092   82.8064   88.3567 H   0  0  0  0  0  0  0  0  0  0  0  0
 35 36  2  0  0  0
 36 37  1  0  0  0
 36 27  1  0  0  0
 27 28  2  0  0  0
 28 29  1  0  0  0
 29 26  1  0  0  0
 26 25  1  0  0  0
 25  1  1  0  0  0
  1  2  2  0  0  0
  2  3  2  0  0  0
  3  4  2  0  0  0
  4  7  1  0  0  0
  7  8  2  0  0  0
  8  9  1  0  0  0
  9 10  2  0  0  0
 10 11  1  0  0  0
 11 13  1  0  0  0
 13 15  1  0  0  0
 15 16  2  0  0  0
 15 17  2  0  0  0
 15 18  1  0  0  0
 18 19  1  0  0  0
 19 20  2  0  0  0
 20 21  1  0  0  0
 21 22  2  0  0  0
 22 23  1  0  0  0
 23 24  2  0  0  0
 11 12  2  0  0  0
  4  5  2  0  0  0
  5  6  2  0  0  0
 29 30  2  0  0  0
 30 31  1  0  0  0
 31 32  2  0  0  0
 32 33  1  0  0  0
 32 27  1  0  0  0
  6  1  1  0  0  0
 12  7  1  0  0  0
 24 19  1  0  0  0
 37 38  1  0  0  0
 13 14  1  0  0  0
 33 34  1  0  0  0
M  END
> <Activity>
29.3

> <minimizedAffinity>
-7.18676

> <CNNscore>
0.3621869981

> <CNNaffinity>
6.1295003891

> <CNN_VS>
2.2200253010

$$$$
HIPS7784


 38 41  0  0  0  0  0  0  0  0999 V2000
   89.1591   86.3059   90.9225 C   0  0  0  0  0  0  0  0  0  0  0  0
   90.5406   86.2922   90.7041 C   0  0  0  0  0  0  0  0  0  0  0  0
   91.2231   87.4613   90.5912 N   0  0  0  0  0  0  0  0  0  0  0  0
   90.5931   88.6637   90.6983 C   0  0  0  0  0  0  0  0  0  0  0  0
   89.2521   88.6936   90.9291 N   0  0  0  0  0  0  0  0  0  0  0  0
   88.5294   87.5495   91.0475 C   0  0  0  0  0  0  0  0  0  0  0  0
   91.3593   89.9276   90.5622 C   0  0  0  0  0  0  0  0  0  0  0  0
   92.3240   90.0744   89.5489 C   0  0  0  0  0  0  0  0  0  0  0  0
   93.0357   91.2683   89.4163 C   0  0  0  0  0  0  0  0  0  0  0  0
   92.7892   92.3339   90.2820 C   0  0  0  0  0  0  0  0  0  0  0  0
   91.8219   92.2147   91.2927 C   0  0  0  0  0  0  0  0  0  0  0  0
   91.1252   91.0051   91.4371 C   0  0  0  0  0  0  0  0  0  0  0  0
   91.5219   93.3078   92.1741 N   0  0  0  0  0  0  0  0  0  0  0  0
   92.0151   93.3757   93.0234 H   0  0  0  0  0  0  0  0  0  0  0  0
   90.3284   94.5156   91.8098 S   0  0  0  0  0  0  0  0  0  0  0  0
   89.1152   93.8675   91.2041 O   0  0  0  0  0  0  0  0  0  0  0  0
   90.9040   95.4851   90.8154 O   0  0  0  0  0  0  0  0  0  0  0  0
   89.8662   95.4143   93.2861 C   0  0  0  0  0  0  0  0  0  0  0  0
   88.3718   95.4368   93.4510 C   0  0  0  0  0  0  0  0  0  0  0  0
   87.5903   96.3298   92.6983 C   0  0  0  0  0  0  0  0  0  0  0  0
   86.2027   96.3716   92.8702 C   0  0  0  0  0  0  0  0  0  0  0  0
   85.5857   95.5289   93.8000 C   0  0  0  0  0  0  0  0  0  0  0  0
   86.3562   94.6391   94.5542 C   0  0  0  0  0  0  0  0  0  0  0  0
   87.7432   94.5910   94.3816 C   0  0  0  0  0  0  0  0  0  0  0  0
   88.3835   85.0223   91.0567 C   0  0  0  0  0  0  0  0  0  0  0  0
   86.9816   85.2788   91.1491 O   0  0  0  0  0  0  0  0  0  0  0  0
   85.3848   85.7619   87.7861 C   0  0  0  0  0  0  0  0  0  0  0  0
   86.2201   85.2489   88.8005 C   0  0  0  0  0  0  0  0  0  0  0  0
   86.1733   85.7682   90.1080 C   0  0  0  0  0  0  0  0  0  0  0  0
   85.2935   86.8142   90.3944 C   0  0  0  0  0  0  0  0  0  0  0  0
   84.4636   87.3352   89.4023 C   0  0  0  0  0  0  0  0  0  0  0  0
   84.4981   86.8171   88.1006 C   0  0  0  0  0  0  0  0  0  0  0  0
   83.6499   87.3521   87.1303 O   0  0  0  0  0  0  0  0  0  0  0  0
   83.0668   88.0514   87.3518 H   0  0  0  0  0  0  0  0  0  0  0  0
   86.0905   85.7822   85.5079 O   0  0  0  0  0  0  0  0  0  0  0  0
   85.4543   85.1842   86.4177 C   0  0  0  0  0  0  0  0  0  0  0  0
   84.8238   83.9783   86.1161 O   0  0  0  0  0  0  0  0  0  0  0  0
   84.3466   83.5203   86.7798 H   0  0  0  0  0  0  0  0  0  0  0  0
 35 36  2  0  0  0
 36 37  1  0  0  0
 36 27  1  0  0  0
 27 28  2  0  0  0
 28 29  1  0  0  0
 29 26  1  0  0  0
 26 25  1  0  0  0
 25  1  1  0  0  0
  1  2  2  0  0  0
  2  3  2  0  0  0
  3  4  2  0  0  0
  4  7  1  0  0  0
  7  8  2  0  0  0
  8  9  1  0  0  0
  9 10  2  0  0  0
 10 11  1  0  0  0
 11 13  1  0  0  0
 13 15  1  0  0  0
 15 16  2  0  0  0
 15 17  2  0  0  0
 15 18  1  0  0  0
 18 19  1  0  0  0
 19 20  2  0  0  0
 20 21  1  0  0  0
 21 22  2  0  0  0
 22 23  1  0  0  0
 23 24  2  0  0  0
 11 12  2  0  0  0
  4  5  2  0  0  0
  5  6  2  0  0  0
 29 30  2  0  0  0
 30 31  1  0  0  0
 31 32  2  0  0  0
 32 33  1  0  0  0
 32 27  1  0  0  0
  6  1  1  0  0  0
 12  7  1  0  0  0
 24 19  1  0  0  0
 37 38  1  0  0  0
 13 14  1  0  0  0
 33 34  1  0  0  0
M  END
> <Activity>
29.3

> <minimizedAffinity>
-8.45791

> <CNNscore>
0.3210996985

> <CNNaffinity>
6.2733917236

> <CNN_VS>
2.0143842697

$$$$
HIPS7784


 38 41  0  0  0  0  0  0  0  0999 V2000
   90.1683   92.2535   90.8324 C   0  0  0  0  0  0  0  0  0  0  0  0
   91.2765   91.4865   91.2069 C   0  0  0  0  0  0  0  0  0  0  0  0
   91.2095   90.1303   91.1682 N   0  0  0  0  0  0  0  0  0  0  0  0
   90.0817   89.4872   90.7575 C   0  0  0  0  0  0  0  0  0  0  0  0
   89.0012   90.2199   90.3724 N   0  0  0  0  0  0  0  0  0  0  0  0
   89.0229   91.5779   90.3963 C   0  0  0  0  0  0  0  0  0  0  0  0
   90.0299   88.0041   90.7325 C   0  0  0  0  0  0  0  0  0  0  0  0
   91.2142   87.2473   90.6700 C   0  0  0  0  0  0  0  0  0  0  0  0
   91.1631   85.8521   90.6577 C   0  0  0  0  0  0  0  0  0  0  0  0
   89.9355   85.1926   90.7183 C   0  0  0  0  0  0  0  0  0  0  0  0
   88.7413   85.9270   90.7942 C   0  0  0  0  0  0  0  0  0  0  0  0
   88.7957   87.3293   90.7831 C   0  0  0  0  0  0  0  0  0  0  0  0
   87.4664   85.2742   90.8947 N   0  0  0  0  0  0  0  0  0  0  0  0
   87.3393   84.4169   90.4277 H   0  0  0  0  0  0  0  0  0  0  0  0
   86.1385   85.9284   91.8027 S   0  0  0  0  0  0  0  0  0  0  0  0
   86.6074   87.0983   92.6211 O   0  0  0  0  0  0  0  0  0  0  0  0
   85.6147   84.8691   92.7319 O   0  0  0  0  0  0  0  0  0  0  0  0
   84.8160   86.4392   90.7112 C   0  0  0  0  0  0  0  0  0  0  0  0
   85.3610   86.8663   89.3765 C   0  0  0  0  0  0  0  0  0  0  0  0
   85.9221   88.1448   89.2175 C   0  0  0  0  0  0  0  0  0  0  0  0
   86.4044   88.5542   87.9699 C   0  0  0  0  0  0  0  0  0  0  0  0
   86.3230   87.6944   86.8702 C   0  0  0  0  0  0  0  0  0  0  0  0
   85.7644   86.4217   87.0194 C   0  0  0  0  0  0  0  0  0  0  0  0
   85.2856   86.0070   88.2663 C   0  0  0  0  0  0  0  0  0  0  0  0
   90.2222   93.7580   90.8620 C   0  0  0  0  0  0  0  0  0  0  0  0
   90.0746   94.2492   92.1949 O   0  0  0  0  0  0  0  0  0  0  0  0
   87.6991   96.0684   94.4620 C   0  0  0  0  0  0  0  0  0  0  0  0
   88.8841   95.4780   93.9752 C   0  0  0  0  0  0  0  0  0  0  0  0
   88.9125   94.8411   92.7202 C   0  0  0  0  0  0  0  0  0  0  0  0
   87.7440   94.7866   91.9573 C   0  0  0  0  0  0  0  0  0  0  0  0
   86.5634   95.3621   92.4256 C   0  0  0  0  0  0  0  0  0  0  0  0
   86.5298   96.0059   93.6699 C   0  0  0  0  0  0  0  0  0  0  0  0
   85.3364   96.5806   94.1091 O   0  0  0  0  0  0  0  0  0  0  0  0
   84.5685   96.5322   93.5744 H   0  0  0  0  0  0  0  0  0  0  0  0
   86.6906   96.6857   96.5334 O   0  0  0  0  0  0  0  0  0  0  0  0
   87.7066   96.7403   95.7885 C   0  0  0  0  0  0  0  0  0  0  0  0
   88.8290   97.4373   96.2324 O   0  0  0  0  0  0  0  0  0  0  0  0
   89.5929   97.4883   95.6921 H   0  0  0  0  0  0  0  0  0  0  0  0
 35 36  2  0  0  0
 36 37  1  0  0  0
 36 27  1  0  0  0
 27 28  2  0  0  0
 28 29  1  0  0  0
 29 26  1  0  0  0
 26 25  1  0  0  0
 25  1  1  0  0  0
  1  2  2  0  0  0
  2  3  2  0  0  0
  3  4  2  0  0  0
  4  7  1  0  0  0
  7  8  2  0  0  0
  8  9  1  0  0  0
  9 10  2  0  0  0
 10 11  1  0  0  0
 11 13  1  0  0  0
 13 15  1  0  0  0
 15 16  2  0  0  0
 15 17  2  0  0  0
 15 18  1  0  0  0
 18 19  1  0  0  0
 19 20  2  0  0  0
 20 21  1  0  0  0
 21 22  2  0  0  0
 22 23  1  0  0  0
 23 24  2  0  0  0
 11 12  2  0  0  0
  4  5  2  0  0  0
  5  6  2  0  0  0
 29 30  2  0  0  0
 30 31  1  0  0  0
 31 32  2  0  0  0
 32 33  1  0  0  0
 32 27  1  0  0  0
  6  1  1  0  0  0
 12  7  1  0  0  0
 24 19  1  0  0  0
 37 38  1  0  0  0
 13 14  1  0  0  0
 33 34  1  0  0  0
M  END
> <Activity>
29.3

> <minimizedAffinity>
-8.24332

> <CNNscore>
0.3041230440

> <CNNaffinity>
6.3333539963

> <CNN_VS>
1.9261188507

$$$$
HIPS6986


 30 32  0  0  0  0  0  0  0  0999 V2000
   90.1597   85.6075   90.8744 C   0  0  0  0  0  0  0  0  0  0  0  0
   91.2403   86.4576   90.5773 C   0  0  0  0  0  0  0  0  0  0  0  0
   91.0363   87.8288   90.4060 C   0  0  0  0  0  0  0  0  0  0  0  0
   89.7537   88.3683   90.5200 C   0  0  0  0  0  0  0  0  0  0  0  0
   88.6596   87.5368   90.8044 C   0  0  0  0  0  0  0  0  0  0  0  0
   88.8717   86.1617   90.9992 C   0  0  0  0  0  0  0  0  0  0  0  0
   91.1668   82.0077   90.1604 C   0  0  0  0  0  0  0  0  0  0  0  0
   90.7505   81.3759   91.3475 C   0  0  0  0  0  0  0  0  0  0  0  0
   90.1491   82.1185   92.3653 C   0  0  0  0  0  0  0  0  0  0  0  0
   89.9578   83.4935   92.2148 C   0  0  0  0  0  0  0  0  0  0  0  0
   90.3716   84.1456   91.0396 C   0  0  0  0  0  0  0  0  0  0  0  0
   90.9790   83.3888   90.0199 C   0  0  0  0  0  0  0  0  0  0  0  0
   91.7760   81.3131   89.1015 O   0  0  0  0  0  0  0  0  0  0  0  0
   90.0778   80.4719   87.5790 C   0  0  0  0  0  0  0  0  0  0  0  0
   91.2713   80.1306   88.4771 C   0  0  0  0  0  0  0  0  0  0  0  0
   92.3895   79.4994   87.6505 C   0  0  0  0  0  0  0  0  0  0  0  0
   87.2778   88.1132   90.9399 C   0  0  0  0  0  0  0  0  0  0  0  0
   86.7061   88.2975   89.6466 O   0  0  0  0  0  0  0  0  0  0  0  0
   86.3084   87.2567   88.7945 C   0  0  0  0  0  0  0  0  0  0  0  0
   85.9120   85.9975   89.2758 C   0  0  0  0  0  0  0  0  0  0  0  0
   85.5071   85.0019   88.3851 C   0  0  0  0  0  0  0  0  0  0  0  0
   85.5009   85.2395   87.0036 C   0  0  0  0  0  0  0  0  0  0  0  0
   85.0875   84.2254   86.1389 O   0  0  0  0  0  0  0  0  0  0  0  0
   85.9076   86.4977   86.5028 C   0  0  0  0  0  0  0  0  0  0  0  0
   86.3060   87.4948   87.4159 C   0  0  0  0  0  0  0  0  0  0  0  0
   84.8204   83.3960   86.4833 H   0  0  0  0  0  0  0  0  0  0  0  0
   85.9212   86.7919   85.0457 C   0  0  0  0  0  0  0  0  0  0  0  0
   85.3327   87.8140   84.5989 O   0  0  0  0  0  0  0  0  0  0  0  0
   86.5775   85.9498   84.1526 O   0  0  0  0  0  0  0  0  0  0  0  0
   87.0198   85.1861   84.4675 H   0  0  0  0  0  0  0  0  0  0  0  0
 14 15  1  0  0  0
 15 16  1  0  0  0
 15 13  1  0  0  0
 13  7  1  0  0  0
  7  8  2  0  0  0
  8  9  1  0  0  0
  9 10  2  0  0  0
 10 11  1  0  0  0
 11  1  1  0  0  0
  1  2  2  0  0  0
  2  3  1  0  0  0
  3  4  2  0  0  0
  4  5  1  0  0  0
  5 17  1  0  0  0
 17 18  1  0  0  0
 18 19  1  0  0  0
 19 20  2  0  0  0
 20 21  1  0  0  0
 21 22  2  0  0  0
 22 23  1  0  0  0
 22 24  1  0  0  0
 24 27  1  0  0  0
 27 28  2  0  0  0
 27 29  1  0  0  0
 24 25  2  0  0  0
  5  6  2  0  0  0
 11 12  2  0  0  0
 12  7  1  0  0  0
  6  1  1  0  0  0
 25 19  1  0  0  0
 23 26  1  0  0  0
 29 30  1  0  0  0
M  END
> <Activity>
32.3

> <minimizedAffinity>
-9.35241

> <CNNscore>
0.7172454596

> <CNNaffinity>
6.1650438309

> <CNN_VS>
4.4218497276

$$$$
HIPS6986


 30 32  0  0  0  0  0  0  0  0999 V2000
   89.6228   89.5394   90.6350 C   0  0  0  0  0  0  0  0  0  0  0  0
   90.9391   89.0768   90.4556 C   0  0  0  0  0  0  0  0  0  0  0  0
   92.0265   89.8884   90.7873 C   0  0  0  0  0  0  0  0  0  0  0  0
   91.8165   91.1726   91.2932 C   0  0  0  0  0  0  0  0  0  0  0  0
   90.5118   91.6587   91.4693 C   0  0  0  0  0  0  0  0  0  0  0  0
   89.4204   90.8312   91.1566 C   0  0  0  0  0  0  0  0  0  0  0  0
   87.2734   86.5541   90.4091 C   0  0  0  0  0  0  0  0  0  0  0  0
   86.2822   87.0619   89.5479 C   0  0  0  0  0  0  0  0  0  0  0  0
   86.3831   88.3621   89.0495 C   0  0  0  0  0  0  0  0  0  0  0  0
   87.4663   89.1695   89.4026 C   0  0  0  0  0  0  0  0  0  0  0  0
   88.4644   88.6842   90.2662 C   0  0  0  0  0  0  0  0  0  0  0  0
   88.3529   87.3728   90.7653 C   0  0  0  0  0  0  0  0  0  0  0  0
   87.2269   85.2542   90.9407 O   0  0  0  0  0  0  0  0  0  0  0  0
   85.9152   83.9659   92.5310 C   0  0  0  0  0  0  0  0  0  0  0  0
   87.0955   84.9207   92.3243 C   0  0  0  0  0  0  0  0  0  0  0  0
   88.3923   84.2653   92.7941 C   0  0  0  0  0  0  0  0  0  0  0  0
   90.2790   93.0362   92.0244 C   0  0  0  0  0  0  0  0  0  0  0  0
   89.0759   93.0476   92.7900 O   0  0  0  0  0  0  0  0  0  0  0  0
   88.2630   94.1746   92.9816 C   0  0  0  0  0  0  0  0  0  0  0  0
   87.3922   94.6543   91.9886 C   0  0  0  0  0  0  0  0  0  0  0  0
   86.5906   95.7695   92.2379 C   0  0  0  0  0  0  0  0  0  0  0  0
   86.6509   96.4303   93.4727 C   0  0  0  0  0  0  0  0  0  0  0  0
   85.8346   97.5403   93.6930 O   0  0  0  0  0  0  0  0  0  0  0  0
   87.5303   95.9668   94.4783 C   0  0  0  0  0  0  0  0  0  0  0  0
   88.3271   94.8347   94.2135 C   0  0  0  0  0  0  0  0  0  0  0  0
   85.2561   97.8377   93.0185 H   0  0  0  0  0  0  0  0  0  0  0  0
   87.6303   96.6393   95.8001 C   0  0  0  0  0  0  0  0  0  0  0  0
   86.6156   96.7326   96.5434 O   0  0  0  0  0  0  0  0  0  0  0  0
   88.8369   97.1770   96.2390 O   0  0  0  0  0  0  0  0  0  0  0  0
   89.6005   97.1166   95.6995 H   0  0  0  0  0  0  0  0  0  0  0  0
 14 15  1  0  0  0
 15 16  1  0  0  0
 15 13  1  0  0  0
 13  7  1  0  0  0
  7  8  2  0  0  0
  8  9  1  0  0  0
  9 10  2  0  0  0
 10 11  1  0  0  0
 11  1  1  0  0  0
  1  2  2  0  0  0
  2  3  1  0  0  0
  3  4  2  0  0  0
  4  5  1  0  0  0
  5 17  1  0  0  0
 17 18  1  0  0  0
 18 19  1  0  0  0
 19 20  2  0  0  0
 20 21  1  0  0  0
 21 22  2  0  0  0
 22 23  1  0  0  0
 22 24  1  0  0  0
 24 27  1  0  0  0
 27 28  2  0  0  0
 27 29  1  0  0  0
 24 25  2  0  0  0
  5  6  2  0  0  0
 11 12  2  0  0  0
 12  7  1  0  0  0
  6  1  1  0  0  0
 25 19  1  0  0  0
 23 26  1  0  0  0
 29 30  1  0  0  0
M  END
> <Activity>
32.3

> <minimizedAffinity>
-8.11374

> <CNNscore>
0.6656508446

> <CNNaffinity>
5.6068668365

> <CNN_VS>
3.7322156429

$$$$
HIPS6986


 30 32  0  0  0  0  0  0  0  0999 V2000
   89.9808   86.1781   91.1574 C   0  0  0  0  0  0  0  0  0  0  0  0
   90.6623   84.9646   91.3618 C   0  0  0  0  0  0  0  0  0  0  0  0
   90.0197   83.8858   91.9738 C   0  0  0  0  0  0  0  0  0  0  0  0
   88.6945   84.0050   92.3969 C   0  0  0  0  0  0  0  0  0  0  0  0
   87.9994   85.2102   92.2134 C   0  0  0  0  0  0  0  0  0  0  0  0
   88.6412   86.2855   91.5766 C   0  0  0  0  0  0  0  0  0  0  0  0
   90.6657   89.6745   89.8201 C   0  0  0  0  0  0  0  0  0  0  0  0
   91.9637   89.5096   89.3005 C   0  0  0  0  0  0  0  0  0  0  0  0
   92.6034   88.2718   89.3873 C   0  0  0  0  0  0  0  0  0  0  0  0
   91.9622   87.1886   89.9917 C   0  0  0  0  0  0  0  0  0  0  0  0
   90.6681   87.3330   90.5225 C   0  0  0  0  0  0  0  0  0  0  0  0
   90.0319   88.5854   90.4322 C   0  0  0  0  0  0  0  0  0  0  0  0
   89.9712   90.8947   89.7608 O   0  0  0  0  0  0  0  0  0  0  0  0
   89.9058   91.9745   91.9377 C   0  0  0  0  0  0  0  0  0  0  0  0
   89.0956   91.4084   90.7670 C   0  0  0  0  0  0  0  0  0  0  0  0
   88.2287   92.5025   90.1479 C   0  0  0  0  0  0  0  0  0  0  0  0
   86.5688   85.3412   92.6562 C   0  0  0  0  0  0  0  0  0  0  0  0
   85.7015   84.9064   91.6111 O   0  0  0  0  0  0  0  0  0  0  0  0
   85.3701   85.6682   90.4808 C   0  0  0  0  0  0  0  0  0  0  0  0
   84.8053   86.9514   90.5751 C   0  0  0  0  0  0  0  0  0  0  0  0
   84.5117   87.6751   89.4182 C   0  0  0  0  0  0  0  0  0  0  0  0
   84.7646   87.1300   88.1517 C   0  0  0  0  0  0  0  0  0  0  0  0
   84.4634   87.8795   87.0139 O   0  0  0  0  0  0  0  0  0  0  0  0
   85.3223   85.8355   88.0398 C   0  0  0  0  0  0  0  0  0  0  0  0
   85.6203   85.1210   89.2178 C   0  0  0  0  0  0  0  0  0  0  0  0
   84.0941   88.7362   87.1014 H   0  0  0  0  0  0  0  0  0  0  0  0
   85.6026   85.2165   86.7177 C   0  0  0  0  0  0  0  0  0  0  0  0
   86.2270   85.8637   85.8334 O   0  0  0  0  0  0  0  0  0  0  0  0
   85.1824   83.9208   86.4316 O   0  0  0  0  0  0  0  0  0  0  0  0
   84.7173   83.4258   87.0771 H   0  0  0  0  0  0  0  0  0  0  0  0
 14 15  1  0  0  0
 15 16  1  0  0  0
 15 13  1  0  0  0
 13  7  1  0  0  0
  7  8  2  0  0  0
  8  9  1  0  0  0
  9 10  2  0  0  0
 10 11  1  0  0  0
 11  1  1  0  0  0
  1  2  2  0  0  0
  2  3  1  0  0  0
  3  4  2  0  0  0
  4  5  1  0  0  0
  5 17  1  0  0  0
 17 18  1  0  0  0
 18 19  1  0  0  0
 19 20  2  0  0  0
 20 21  1  0  0  0
 21 22  2  0  0  0
 22 23  1  0  0  0
 22 24  1  0  0  0
 24 27  1  0  0  0
 27 28  2  0  0  0
 27 29  1  0  0  0
 24 25  2  0  0  0
  5  6  2  0  0  0
 11 12  2  0  0  0
 12  7  1  0  0  0
  6  1  1  0  0  0
 25 19  1  0  0  0
 23 26  1  0  0  0
 29 30  1  0  0  0
M  END
> <Activity>
32.3

> <minimizedAffinity>
-8.66386

> <CNNscore>
0.5530222058

> <CNNaffinity>
6.0388669968

> <CNN_VS>
3.3396275043

$$$$
HIPS7781


 41 44  0  0  0  0  0  0  0  0999 V2000
   90.0225   88.4736   90.6233 C   0  0  0  0  0  0  0  0  0  0  0  0
   91.0350   87.5201   90.4382 C   0  0  0  0  0  0  0  0  0  0  0  0
   92.3154   87.9151   90.0499 C   0  0  0  0  0  0  0  0  0  0  0  0
   92.5976   89.2647   89.8322 C   0  0  0  0  0  0  0  0  0  0  0  0
   91.5902   90.2395   89.9802 C   0  0  0  0  0  0  0  0  0  0  0  0
   90.3007   89.8290   90.3661 C   0  0  0  0  0  0  0  0  0  0  0  0
   91.8844   91.6744   89.7459 C   0  0  0  0  0  0  0  0  0  0  0  0
   91.9451   92.1650   88.4776 N   0  0  0  0  0  0  0  0  0  0  0  0
   92.2362   93.4683   88.2367 C   0  0  0  0  0  0  0  0  0  0  0  0
   92.4707   94.3437   89.3037 C   0  0  0  0  0  0  0  0  0  0  0  0
   92.4134   93.8234   90.6010 C   0  0  0  0  0  0  0  0  0  0  0  0
   92.1219   92.5100   90.7937 N   0  0  0  0  0  0  0  0  0  0  0  0
   92.8244   95.7842   89.0518 C   0  0  0  0  0  0  0  0  0  0  0  0
   94.1980   96.0214   89.3586 O   0  0  0  0  0  0  0  0  0  0  0  0
   95.2807   95.2632   88.8814 C   0  0  0  0  0  0  0  0  0  0  0  0
   96.2025   94.6309   89.7345 C   0  0  0  0  0  0  0  0  0  0  0  0
   97.2472   93.8763   89.1976 C   0  0  0  0  0  0  0  0  0  0  0  0
   97.4100   93.7478   87.8102 C   0  0  0  0  0  0  0  0  0  0  0  0
   98.5226   93.0279   87.3575 O   0  0  0  0  0  0  0  0  0  0  0  0
   96.4732   94.3623   86.9366 C   0  0  0  0  0  0  0  0  0  0  0  0
   95.4267   95.1231   87.4963 C   0  0  0  0  0  0  0  0  0  0  0  0
   99.1125   92.6405   87.9739 H   0  0  0  0  0  0  0  0  0  0  0  0
   96.5141   94.2074   85.4601 C   0  0  0  0  0  0  0  0  0  0  0  0
   95.8364   94.9581   84.7040 O   0  0  0  0  0  0  0  0  0  0  0  0
   97.3731   93.2647   84.8881 O   0  0  0  0  0  0  0  0  0  0  0  0
   97.8821   92.7010   85.4368 H   0  0  0  0  0  0  0  0  0  0  0  0
   87.7131   88.2357   88.9144 O   0  0  0  0  0  0  0  0  0  0  0  0
   87.5941   87.9341   90.1346 C   0  0  0  0  0  0  0  0  0  0  0  0
   88.7135   88.0406   91.0266 N   0  0  0  0  0  0  0  0  0  0  0  0
   88.5759   87.8026   91.9719 H   0  0  0  0  0  0  0  0  0  0  0  0
   86.2531   87.5026   90.6565 C   0  0  0  0  0  0  0  0  0  0  0  0
   86.3079   87.1448   92.1469 C   0  0  0  0  0  0  0  0  0  0  0  0
   86.6732   85.6721   92.4010 C   0  0  0  0  0  0  0  0  0  0  0  0
   88.0399   85.5176   92.7893 O   0  0  0  0  0  0  0  0  0  0  0  0
   88.9276   84.5566   92.2784 C   0  0  0  0  0  0  0  0  0  0  0  0
   89.0667   83.3487   92.9735 C   0  0  0  0  0  0  0  0  0  0  0  0
   89.9041   82.3410   92.4820 C   0  0  0  0  0  0  0  0  0  0  0  0
   90.6164   82.5393   91.2940 C   0  0  0  0  0  0  0  0  0  0  0  0
   91.6483   81.2656   90.6675 Cl  0  0  0  0  0  0  0  0  0  0  0  0
   90.5019   83.7481   90.6054 C   0  0  0  0  0  0  0  0  0  0  0  0
   89.6673   84.7589   91.0973 C   0  0  0  0  0  0  0  0  0  0  0  0
 27 28  2  0  0  0
 28 31  1  0  0  0
 31 32  1  0  0  0
 32 33  1  0  0  0
 33 34  1  0  0  0
 34 35  1  0  0  0
 35 36  2  0  0  0
 36 37  1  0  0  0
 37 38  2  0  0  0
 38 39  1  0  0  0
 38 40  1  0  0  0
 40 41  2  0  0  0
 28 29  1  0  0  0
 29  1  1  0  0  0
  1  2  2  0  0  0
  2  3  1  0  0  0
  3  4  2  0  0  0
  4  5  1  0  0  0
  5  7  1  0  0  0
  7  8  2  0  0  0
  8  9  2  0  0  0
  9 10  2  0  0  0
 10 13  1  0  0  0
 13 14  1  0  0  0
 14 15  1  0  0  0
 15 16  2  0  0  0
 16 17  1  0  0  0
 17 18  2  0  0  0
 18 19  1  0  0  0
 18 20  1  0  0  0
 20 23  1  0  0  0
 23 24  2  0  0  0
 23 25  1  0  0  0
 20 21  2  0  0  0
 10 11  1  0  0  0
 11 12  2  0  0  0
  5  6  2  0  0  0
 41 35  1  0  0  0
  6  1  1  0  0  0
 12  7  2  0  0  0
 21 15  1  0  0  0
 29 30  1  0  0  0
 19 22  1  0  0  0
 25 26  1  0  0  0
M  END
> <Activity>
32.3

> <minimizedAffinity>
-7.18648

> <CNNscore>
0.3900377154

> <CNNaffinity>
6.4748458862

> <CNN_VS>
2.5254340172

$$$$
HIPS7781


 41 44  0  0  0  0  0  0  0  0999 V2000
   89.5774   86.4881   90.8528 C   0  0  0  0  0  0  0  0  0  0  0  0
   90.9320   86.1938   90.6365 C   0  0  0  0  0  0  0  0  0  0  0  0
   91.8448   87.2164   90.3773 C   0  0  0  0  0  0  0  0  0  0  0  0
   91.4148   88.5433   90.3209 C   0  0  0  0  0  0  0  0  0  0  0  0
   90.0541   88.8629   90.5030 C   0  0  0  0  0  0  0  0  0  0  0  0
   89.1411   87.8227   90.7577 C   0  0  0  0  0  0  0  0  0  0  0  0
   89.5918   90.2711   90.4399 C   0  0  0  0  0  0  0  0  0  0  0  0
   90.3926   91.2776   90.8855 N   0  0  0  0  0  0  0  0  0  0  0  0
   89.9828   92.5710   90.8605 C   0  0  0  0  0  0  0  0  0  0  0  0
   88.7171   92.8964   90.3587 C   0  0  0  0  0  0  0  0  0  0  0  0
   87.9020   91.8507   89.9123 C   0  0  0  0  0  0  0  0  0  0  0  0
   88.3536   90.5698   89.9602 N   0  0  0  0  0  0  0  0  0  0  0  0
   88.2367   94.3222   90.3525 C   0  0  0  0  0  0  0  0  0  0  0  0
   87.0282   94.4445   91.1020 O   0  0  0  0  0  0  0  0  0  0  0  0
   86.9361   94.8996   92.4283 C   0  0  0  0  0  0  0  0  0  0  0  0
   85.7462   94.8348   93.1750 C   0  0  0  0  0  0  0  0  0  0  0  0
   85.7248   95.2876   94.4953 C   0  0  0  0  0  0  0  0  0  0  0  0
   86.8720   95.8280   95.0951 C   0  0  0  0  0  0  0  0  0  0  0  0
   86.7445   96.3187   96.4005 O   0  0  0  0  0  0  0  0  0  0  0  0
   88.0868   95.8789   94.3603 C   0  0  0  0  0  0  0  0  0  0  0  0
   88.0892   95.4204   93.0272 C   0  0  0  0  0  0  0  0  0  0  0  0
   85.9210   96.2622   96.8439 H   0  0  0  0  0  0  0  0  0  0  0  0
   89.3699   96.3510   94.9405 C   0  0  0  0  0  0  0  0  0  0  0  0
   89.3993   97.2785   95.7969 O   0  0  0  0  0  0  0  0  0  0  0  0
   90.5625   95.7110   94.5917 O   0  0  0  0  0  0  0  0  0  0  0  0
   90.5559   95.0211   93.9577 H   0  0  0  0  0  0  0  0  0  0  0  0
   88.9632   85.3895   93.4463 O   0  0  0  0  0  0  0  0  0  0  0  0
   88.3829   84.9071   92.4342 C   0  0  0  0  0  0  0  0  0  0  0  0
   88.6587   85.4167   91.1211 N   0  0  0  0  0  0  0  0  0  0  0  0
   88.1901   85.0073   90.3582 H   0  0  0  0  0  0  0  0  0  0  0  0
   87.4294   83.7599   92.6123 C   0  0  0  0  0  0  0  0  0  0  0  0
   85.9672   84.2099   92.5046 C   0  0  0  0  0  0  0  0  0  0  0  0
   85.7904   85.7300   92.6619 C   0  0  0  0  0  0  0  0  0  0  0  0
   84.9390   86.2783   91.6534 O   0  0  0  0  0  0  0  0  0  0  0  0
   85.2953   86.4827   90.3103 C   0  0  0  0  0  0  0  0  0  0  0  0
   85.4742   85.3583   89.4947 C   0  0  0  0  0  0  0  0  0  0  0  0
   85.7854   85.5090   88.1387 C   0  0  0  0  0  0  0  0  0  0  0  0
   85.9289   86.7886   87.5908 C   0  0  0  0  0  0  0  0  0  0  0  0
   86.2967   86.9757   85.8851 Cl  0  0  0  0  0  0  0  0  0  0  0  0
   85.7745   87.9154   88.4000 C   0  0  0  0  0  0  0  0  0  0  0  0
   85.4667   87.7666   89.7578 C   0  0  0  0  0  0  0  0  0  0  0  0
 27 28  2  0  0  0
 28 31  1  0  0  0
 31 32  1  0  0  0
 32 33  1  0  0  0
 33 34  1  0  0  0
 34 35  1  0  0  0
 35 36  2  0  0  0
 36 37  1  0  0  0
 37 38  2  0  0  0
 38 39  1  0  0  0
 38 40  1  0  0  0
 40 41  2  0  0  0
 28 29  1  0  0  0
 29  1  1  0  0  0
  1  2  2  0  0  0
  2  3  1  0  0  0
  3  4  2  0  0  0
  4  5  1  0  0  0
  5  7  1  0  0  0
  7  8  2  0  0  0
  8  9  2  0  0  0
  9 10  2  0  0  0
 10 13  1  0  0  0
 13 14  1  0  0  0
 14 15  1  0  0  0
 15 16  2  0  0  0
 16 17  1  0  0  0
 17 18  2  0  0  0
 18 19  1  0  0  0
 18 20  1  0  0  0
 20 23  1  0  0  0
 23 24  2  0  0  0
 23 25  1  0  0  0
 20 21  2  0  0  0
 10 11  1  0  0  0
 11 12  2  0  0  0
  5  6  2  0  0  0
 41 35  1  0  0  0
  6  1  1  0  0  0
 12  7  2  0  0  0
 21 15  1  0  0  0
 29 30  1  0  0  0
 19 22  1  0  0  0
 25 26  1  0  0  0
M  END
> <Activity>
32.3

> <minimizedAffinity>
-8.85638

> <CNNscore>
0.3441098034

> <CNNaffinity>
6.7965202332

> <CNN_VS>
2.3387491703

$$$$
HIPS7781


 41 44  0  0  0  0  0  0  0  0999 V2000
   87.6245   87.3296   90.0621 C   0  0  0  0  0  0  0  0  0  0  0  0
   86.5651   87.4369   89.1486 C   0  0  0  0  0  0  0  0  0  0  0  0
   86.2516   88.6676   88.5712 C   0  0  0  0  0  0  0  0  0  0  0  0
   86.9850   89.8071   88.9062 C   0  0  0  0  0  0  0  0  0  0  0  0
   88.0338   89.7327   89.8451 C   0  0  0  0  0  0  0  0  0  0  0  0
   88.3371   88.4874   90.4260 C   0  0  0  0  0  0  0  0  0  0  0  0
   88.8133   90.9417   90.2073 C   0  0  0  0  0  0  0  0  0  0  0  0
   90.0965   90.8257   90.6463 N   0  0  0  0  0  0  0  0  0  0  0  0
   90.8219   91.9146   91.0064 C   0  0  0  0  0  0  0  0  0  0  0  0
   90.2581   93.1931   90.9202 C   0  0  0  0  0  0  0  0  0  0  0  0
   88.9357   93.2959   90.4755 C   0  0  0  0  0  0  0  0  0  0  0  0
   88.2467   92.1768   90.1293 N   0  0  0  0  0  0  0  0  0  0  0  0
   91.0391   94.4070   91.3444 C   0  0  0  0  0  0  0  0  0  0  0  0
   90.1549   95.4615   91.7231 O   0  0  0  0  0  0  0  0  0  0  0  0
   90.0011   95.9657   93.0258 C   0  0  0  0  0  0  0  0  0  0  0  0
   91.0922   96.3189   93.8396 C   0  0  0  0  0  0  0  0  0  0  0  0
   90.8718   96.8315   95.1193 C   0  0  0  0  0  0  0  0  0  0  0  0
   89.5722   96.9875   95.6238 C   0  0  0  0  0  0  0  0  0  0  0  0
   89.4446   97.4462   96.9409 O   0  0  0  0  0  0  0  0  0  0  0  0
   88.4599   96.6562   94.8045 C   0  0  0  0  0  0  0  0  0  0  0  0
   88.7013   96.1367   93.5164 C   0  0  0  0  0  0  0  0  0  0  0  0
   90.2095   97.6519   97.4415 H   0  0  0  0  0  0  0  0  0  0  0  0
   87.0502   96.8709   95.2200 C   0  0  0  0  0  0  0  0  0  0  0  0
   86.1980   97.3504   94.4212 O   0  0  0  0  0  0  0  0  0  0  0  0
   86.6364   96.4678   96.4928 O   0  0  0  0  0  0  0  0  0  0  0  0
   87.2578   96.1102   97.0960 H   0  0  0  0  0  0  0  0  0  0  0  0
   86.6522   86.3335   92.5865 O   0  0  0  0  0  0  0  0  0  0  0  0
   87.4145   85.5969   91.9008 C   0  0  0  0  0  0  0  0  0  0  0  0
   87.9287   86.0499   90.6397 N   0  0  0  0  0  0  0  0  0  0  0  0
   88.5259   85.4472   90.1403 H   0  0  0  0  0  0  0  0  0  0  0  0
   87.8160   84.2532   92.4395 C   0  0  0  0  0  0  0  0  0  0  0  0
   89.0719   84.3406   93.3154 C   0  0  0  0  0  0  0  0  0  0  0  0
   90.2568   85.0183   92.6058 C   0  0  0  0  0  0  0  0  0  0  0  0
   91.3111   84.0962   92.3223 O   0  0  0  0  0  0  0  0  0  0  0  0
   91.3570   83.2256   91.2210 C   0  0  0  0  0  0  0  0  0  0  0  0
   90.8366   81.9346   91.3761 C   0  0  0  0  0  0  0  0  0  0  0  0
   90.8176   81.0442   90.2967 C   0  0  0  0  0  0  0  0  0  0  0  0
   91.3286   81.4375   89.0549 C   0  0  0  0  0  0  0  0  0  0  0  0
   91.2830   80.3272   87.6966 Cl  0  0  0  0  0  0  0  0  0  0  0  0
   91.8697   82.7143   88.8958 C   0  0  0  0  0  0  0  0  0  0  0  0
   91.8929   83.6055   89.9754 C   0  0  0  0  0  0  0  0  0  0  0  0
 27 28  2  0  0  0
 28 31  1  0  0  0
 31 32  1  0  0  0
 32 33  1  0  0  0
 33 34  1  0  0  0
 34 35  1  0  0  0
 35 36  2  0  0  0
 36 37  1  0  0  0
 37 38  2  0  0  0
 38 39  1  0  0  0
 38 40  1  0  0  0
 40 41  2  0  0  0
 28 29  1  0  0  0
 29  1  1  0  0  0
  1  2  2  0  0  0
  2  3  1  0  0  0
  3  4  2  0  0  0
  4  5  1  0  0  0
  5  7  1  0  0  0
  7  8  2  0  0  0
  8  9  2  0  0  0
  9 10  2  0  0  0
 10 13  1  0  0  0
 13 14  1  0  0  0
 14 15  1  0  0  0
 15 16  2  0  0  0
 16 17  1  0  0  0
 17 18  2  0  0  0
 18 19  1  0  0  0
 18 20  1  0  0  0
 20 23  1  0  0  0
 23 24  2  0  0  0
 23 25  1  0  0  0
 20 21  2  0  0  0
 10 11  1  0  0  0
 11 12  2  0  0  0
  5  6  2  0  0  0
 41 35  1  0  0  0
  6  1  1  0  0  0
 12  7  2  0  0  0
 21 15  1  0  0  0
 29 30  1  0  0  0
 19 22  1  0  0  0
 25 26  1  0  0  0
M  END
> <Activity>
32.3

> <minimizedAffinity>
-8.83251

> <CNNscore>
0.3205926418

> <CNNaffinity>
6.3337650299

> <CNN_VS>
2.0305583477

$$$$
HIPS7785


 42 46  0  0  0  0  0  0  0  0999 V2000
   91.4953   90.2624   89.9471 C   0  0  0  0  0  0  0  0  0  0  0  0
   92.4109   90.1173   88.9274 C   0  0  0  0  0  0  0  0  0  0  0  0
   93.0037   88.9076   88.6276 C   0  0  0  0  0  0  0  0  0  0  0  0
   92.6649   87.7942   89.3821 C   0  0  0  0  0  0  0  0  0  0  0  0
   91.7506   87.8981   90.4136 C   0  0  0  0  0  0  0  0  0  0  0  0
   91.1871   89.1306   90.6718 C   0  0  0  0  0  0  0  0  0  0  0  0
   89.6988   93.9984   90.8153 C   0  0  0  0  0  0  0  0  0  0  0  0
   89.5609   92.9218   91.6674 C   0  0  0  0  0  0  0  0  0  0  0  0
   90.1404   91.7387   91.3747 N   0  0  0  0  0  0  0  0  0  0  0  0
   90.8684   91.5429   90.2635 C   0  0  0  0  0  0  0  0  0  0  0  0
   91.0058   92.5878   89.4304 N   0  0  0  0  0  0  0  0  0  0  0  0
   90.4484   93.7896   89.6752 C   0  0  0  0  0  0  0  0  0  0  0  0
   89.0666   95.3125   91.1208 C   0  0  0  0  0  0  0  0  0  0  0  0
   90.0175   96.1430   91.7536 O   0  0  0  0  0  0  0  0  0  0  0  0
   88.5649   96.9997   95.0130 C   0  0  0  0  0  0  0  0  0  0  0  0
   88.6645   96.6647   93.6733 C   0  0  0  0  0  0  0  0  0  0  0  0
   89.8918   96.4743   93.0748 C   0  0  0  0  0  0  0  0  0  0  0  0
   91.0326   96.6234   93.8358 C   0  0  0  0  0  0  0  0  0  0  0  0
   90.9729   96.9570   95.1751 C   0  0  0  0  0  0  0  0  0  0  0  0
   89.7244   97.1346   95.7195 C   0  0  0  0  0  0  0  0  0  0  0  0
   89.6355   97.4704   97.0635 O   0  0  0  0  0  0  0  0  0  0  0  0
   90.4148   97.5700   97.5741 H   0  0  0  0  0  0  0  0  0  0  0  0
   86.5053   98.0677   95.1573 O   0  0  0  0  0  0  0  0  0  0  0  0
   87.2587   97.1966   95.6273 C   0  0  0  0  0  0  0  0  0  0  0  0
   86.8855   96.4180   96.7113 O   0  0  0  0  0  0  0  0  0  0  0  0
   87.4723   95.7685   97.0457 H   0  0  0  0  0  0  0  0  0  0  0  0
   91.4339   86.7300   91.1597 N   0  0  0  0  0  0  0  0  0  0  0  0
   90.2034   86.0726   90.9224 C   0  0  0  0  0  0  0  0  0  0  0  0
   89.4471   86.5680   90.0499 O   0  0  0  0  0  0  0  0  0  0  0  0
   92.0628   86.3828   91.8329 H   0  0  0  0  0  0  0  0  0  0  0  0
   89.7771   84.8471   91.6490 C   0  0  0  0  0  0  0  0  0  0  0  0
   90.1395   84.9417   93.1141 C   0  0  0  0  0  0  0  0  0  0  0  0
   88.9000   85.3630   93.8341 C   0  0  0  0  0  0  0  0  0  0  0  0
   87.8815   85.6933   92.7617 C   0  0  0  0  0  0  0  0  0  0  0  0
   88.2885   84.7653   91.6255 C   0  0  0  0  0  0  0  0  0  0  0  0
   90.4346   83.6607   91.0468 C   0  0  0  0  0  0  0  0  0  0  0  0
   91.1854   83.7142   89.8920 C   0  0  0  0  0  0  0  0  0  0  0  0
   91.7901   82.5848   89.3422 C   0  0  0  0  0  0  0  0  0  0  0  0
   91.6455   81.3581   89.9587 C   0  0  0  0  0  0  0  0  0  0  0  0
   90.8995   81.2777   91.1148 C   0  0  0  0  0  0  0  0  0  0  0  0
   90.3200   82.4035   91.6276 C   0  0  0  0  0  0  0  0  0  0  0  0
   89.5913   82.2954   92.7606 F   0  0  0  0  0  0  0  0  0  0  0  0
 23 24  2  0  0  0
 24 25  1  0  0  0
 24 15  1  0  0  0
 15 16  2  0  0  0
 16 17  1  0  0  0
 17 14  1  0  0  0
 14 13  1  0  0  0
 13  7  1  0  0  0
  7  8  2  0  0  0
  8  9  2  0  0  0
  9 10  2  0  0  0
 10  1  1  0  0  0
  1  2  2  0  0  0
  2  3  1  0  0  0
  3  4  2  0  0  0
  4  5  1  0  0  0
  5 27  1  0  0  0
 27 28  1  0  0  0
 28 29  2  0  0  0
 28 31  1  0  0  0
 31 36  1  0  0  0
 36 37  2  0  0  0
 37 38  1  0  0  0
 38 39  2  0  0  0
 39 40  1  0  0  0
 40 41  2  0  0  0
 41 42  1  0  0  0
 31 32  1  0  0  0
 32 33  1  0  0  0
 33 34  1  0  0  0
 34 35  1  0  0  0
  5  6  2  0  0  0
 10 11  2  0  0  0
 11 12  2  0  0  0
 17 18  2  0  0  0
 18 19  1  0  0  0
 19 20  2  0  0  0
 20 21  1  0  0  0
 20 15  1  0  0  0
 12  7  1  0  0  0
  6  1  1  0  0  0
 35 31  1  0  0  0
 41 36  1  0  0  0
 25 26  1  0  0  0
 27 30  1  0  0  0
 21 22  1  0  0  0
M  END
> <Activity>
34.7

> <minimizedAffinity>
-9.28072

> <CNNscore>
0.4735592306

> <CNNaffinity>
6.6564235687

> <CNN_VS>
3.1522107124

$$$$
HIPS7785


 42 46  0  0  0  0  0  0  0  0999 V2000
   91.8496   90.4700   90.3863 C   0  0  0  0  0  0  0  0  0  0  0  0
   92.9874   90.0698   89.7196 C   0  0  0  0  0  0  0  0  0  0  0  0
   93.1611   88.7828   89.2528 C   0  0  0  0  0  0  0  0  0  0  0  0
   92.1512   87.8556   89.4628 C   0  0  0  0  0  0  0  0  0  0  0  0
   90.9944   88.2174   90.1272 C   0  0  0  0  0  0  0  0  0  0  0  0
   90.8710   89.5169   90.5736 C   0  0  0  0  0  0  0  0  0  0  0  0
   91.2785   94.4012   91.8556 C   0  0  0  0  0  0  0  0  0  0  0  0
   92.1821   94.1376   90.8465 C   0  0  0  0  0  0  0  0  0  0  0  0
   92.3511   92.8787   90.3906 N   0  0  0  0  0  0  0  0  0  0  0  0
   91.6665   91.8322   90.8799 C   0  0  0  0  0  0  0  0  0  0  0  0
   90.7855   92.0833   91.8624 N   0  0  0  0  0  0  0  0  0  0  0  0
   90.5786   93.3206   92.3534 C   0  0  0  0  0  0  0  0  0  0  0  0
   91.0779   95.7841   92.3723 C   0  0  0  0  0  0  0  0  0  0  0  0
   90.8932   95.7289   93.7713 O   0  0  0  0  0  0  0  0  0  0  0  0
   87.4071   96.6126   94.5019 C   0  0  0  0  0  0  0  0  0  0  0  0
   88.5107   96.0410   93.8919 C   0  0  0  0  0  0  0  0  0  0  0  0
   89.7866   96.2811   94.3559 C   0  0  0  0  0  0  0  0  0  0  0  0
   89.9521   97.1073   95.4479 C   0  0  0  0  0  0  0  0  0  0  0  0
   88.8752   97.6955   96.0826 C   0  0  0  0  0  0  0  0  0  0  0  0
   87.6272   97.4217   95.5783 C   0  0  0  0  0  0  0  0  0  0  0  0
   86.5273   97.9998   96.1971 O   0  0  0  0  0  0  0  0  0  0  0  0
   86.6475   98.5600   96.9386 H   0  0  0  0  0  0  0  0  0  0  0  0
   85.3268   97.3119   93.7360 O   0  0  0  0  0  0  0  0  0  0  0  0
   86.0667   96.3466   93.9968 C   0  0  0  0  0  0  0  0  0  0  0  0
   85.6474   95.0379   93.8188 O   0  0  0  0  0  0  0  0  0  0  0  0
   86.2250   94.3289   94.0230 H   0  0  0  0  0  0  0  0  0  0  0  0
   89.9863   87.2334   90.3192 N   0  0  0  0  0  0  0  0  0  0  0  0
   90.1830   86.2253   91.2927 C   0  0  0  0  0  0  0  0  0  0  0  0
   91.2572   86.2582   91.9437 O   0  0  0  0  0  0  0  0  0  0  0  0
   89.1618   87.2530   89.7816 H   0  0  0  0  0  0  0  0  0  0  0  0
   89.1929   85.1508   91.5694 C   0  0  0  0  0  0  0  0  0  0  0  0
   88.5659   85.3406   92.9324 C   0  0  0  0  0  0  0  0  0  0  0  0
   87.2450   86.0013   92.7063 C   0  0  0  0  0  0  0  0  0  0  0  0
   87.2004   86.3612   91.2349 C   0  0  0  0  0  0  0  0  0  0  0  0
   88.0625   85.2760   90.6052 C   0  0  0  0  0  0  0  0  0  0  0  0
   89.8662   83.8296   91.5084 C   0  0  0  0  0  0  0  0  0  0  0  0
   89.6053   82.8040   92.3916 C   0  0  0  0  0  0  0  0  0  0  0  0
   90.2541   81.5723   92.3174 C   0  0  0  0  0  0  0  0  0  0  0  0
   91.1955   81.3489   91.3326 C   0  0  0  0  0  0  0  0  0  0  0  0
   91.4747   82.3585   90.4370 C   0  0  0  0  0  0  0  0  0  0  0  0
   90.8211   83.5539   90.5372 C   0  0  0  0  0  0  0  0  0  0  0  0
   91.1166   84.5276   89.6478 F   0  0  0  0  0  0  0  0  0  0  0  0
 23 24  2  0  0  0
 24 25  1  0  0  0
 24 15  1  0  0  0
 15 16  2  0  0  0
 16 17  1  0  0  0
 17 14  1  0  0  0
 14 13  1  0  0  0
 13  7  1  0  0  0
  7  8  2  0  0  0
  8  9  2  0  0  0
  9 10  2  0  0  0
 10  1  1  0  0  0
  1  2  2  0  0  0
  2  3  1  0  0  0
  3  4  2  0  0  0
  4  5  1  0  0  0
  5 27  1  0  0  0
 27 28  1  0  0  0
 28 29  2  0  0  0
 28 31  1  0  0  0
 31 36  1  0  0  0
 36 37  2  0  0  0
 37 38  1  0  0  0
 38 39  2  0  0  0
 39 40  1  0  0  0
 40 41  2  0  0  0
 41 42  1  0  0  0
 31 32  1  0  0  0
 32 33  1  0  0  0
 33 34  1  0  0  0
 34 35  1  0  0  0
  5  6  2  0  0  0
 10 11  2  0  0  0
 11 12  2  0  0  0
 17 18  2  0  0  0
 18 19  1  0  0  0
 19 20  2  0  0  0
 20 21  1  0  0  0
 20 15  1  0  0  0
 12  7  1  0  0  0
  6  1  1  0  0  0
 35 31  1  0  0  0
 41 36  1  0  0  0
 25 26  1  0  0  0
 27 30  1  0  0  0
 21 22  1  0  0  0
M  END
> <Activity>
34.7

> <minimizedAffinity>
-10.16386

> <CNNscore>
0.4340335727

> <CNNaffinity>
6.6709814072

> <CNN_VS>
2.8954298496

$$$$
HIPS7785


 42 46  0  0  0  0  0  0  0  0999 V2000
   91.8848   92.4448   90.2269 C   0  0  0  0  0  0  0  0  0  0  0  0
   93.0338   93.1533   89.9497 C   0  0  0  0  0  0  0  0  0  0  0  0
   93.0831   94.5321   89.9844 C   0  0  0  0  0  0  0  0  0  0  0  0
   91.9312   95.2322   90.3109 C   0  0  0  0  0  0  0  0  0  0  0  0
   90.7583   94.5585   90.5956 C   0  0  0  0  0  0  0  0  0  0  0  0
   90.7629   93.1798   90.5468 C   0  0  0  0  0  0  0  0  0  0  0  0
   91.6815   88.2151   90.1407 C   0  0  0  0  0  0  0  0  0  0  0  0
   92.8199   88.8859   89.7430 C   0  0  0  0  0  0  0  0  0  0  0  0
   92.8670   90.2342   89.7771 N   0  0  0  0  0  0  0  0  0  0  0  0
   91.8336   90.9858   90.1902 C   0  0  0  0  0  0  0  0  0  0  0  0
   90.7228   90.3376   90.5786 N   0  0  0  0  0  0  0  0  0  0  0  0
   90.6236   88.9942   90.5641 C   0  0  0  0  0  0  0  0  0  0  0  0
   91.6101   86.7272   90.1103 C   0  0  0  0  0  0  0  0  0  0  0  0
   91.1796   86.2626   91.3724 O   0  0  0  0  0  0  0  0  0  0  0  0
   90.8650   82.6332   90.9296 C   0  0  0  0  0  0  0  0  0  0  0  0
   91.2536   83.9463   90.7261 C   0  0  0  0  0  0  0  0  0  0  0  0
   90.8106   84.9576   91.5518 C   0  0  0  0  0  0  0  0  0  0  0  0
   89.9658   84.6415   92.5954 C   0  0  0  0  0  0  0  0  0  0  0  0
   89.5565   83.3430   92.8297 C   0  0  0  0  0  0  0  0  0  0  0  0
   90.0283   82.3758   91.9762 C   0  0  0  0  0  0  0  0  0  0  0  0
   89.6327   81.0622   92.1889 O   0  0  0  0  0  0  0  0  0  0  0  0
   89.0586   80.8551   92.8998 H   0  0  0  0  0  0  0  0  0  0  0  0
   92.0356   80.6651   90.5304 O   0  0  0  0  0  0  0  0  0  0  0  0
   91.3440   81.5785   90.0461 C   0  0  0  0  0  0  0  0  0  0  0  0
   91.0231   81.6134   88.6984 O   0  0  0  0  0  0  0  0  0  0  0  0
   90.5003   82.3131   88.3593 H   0  0  0  0  0  0  0  0  0  0  0  0
   89.6026   95.3181   90.9254 N   0  0  0  0  0  0  0  0  0  0  0  0
   88.8979   95.0200   92.1158 C   0  0  0  0  0  0  0  0  0  0  0  0
   89.3422   94.0838   92.8264 O   0  0  0  0  0  0  0  0  0  0  0  0
   89.2964   96.0423   90.3330 H   0  0  0  0  0  0  0  0  0  0  0  0
   87.6785   95.7521   92.5500 C   0  0  0  0  0  0  0  0  0  0  0  0
   87.3310   96.8435   91.5626 C   0  0  0  0  0  0  0  0  0  0  0  0
   86.2518   96.2975   90.6853 C   0  0  0  0  0  0  0  0  0  0  0  0
   86.1157   94.8323   91.0472 C   0  0  0  0  0  0  0  0  0  0  0  0
   86.5168   94.8181   92.5157 C   0  0  0  0  0  0  0  0  0  0  0  0
   87.9086   96.3456   93.8907 C   0  0  0  0  0  0  0  0  0  0  0  0
   87.1281   96.0601   94.9905 C   0  0  0  0  0  0  0  0  0  0  0  0
   87.3607   96.6338   96.2396 C   0  0  0  0  0  0  0  0  0  0  0  0
   88.4041   97.5225   96.4050 C   0  0  0  0  0  0  0  0  0  0  0  0
   89.1993   97.8249   95.3207 C   0  0  0  0  0  0  0  0  0  0  0  0
   88.9445   97.2454   94.1102 C   0  0  0  0  0  0  0  0  0  0  0  0
   89.7381   97.5622   93.0632 F   0  0  0  0  0  0  0  0  0  0  0  0
 23 24  2  0  0  0
 24 25  1  0  0  0
 24 15  1  0  0  0
 15 16  2  0  0  0
 16 17  1  0  0  0
 17 14  1  0  0  0
 14 13  1  0  0  0
 13  7  1  0  0  0
  7  8  2  0  0  0
  8  9  2  0  0  0
  9 10  2  0  0  0
 10  1  1  0  0  0
  1  2  2  0  0  0
  2  3  1  0  0  0
  3  4  2  0  0  0
  4  5  1  0  0  0
  5 27  1  0  0  0
 27 28  1  0  0  0
 28 29  2  0  0  0
 28 31  1  0  0  0
 31 36  1  0  0  0
 36 37  2  0  0  0
 37 38  1  0  0  0
 38 39  2  0  0  0
 39 40  1  0  0  0
 40 41  2  0  0  0
 41 42  1  0  0  0
 31 32  1  0  0  0
 32 33  1  0  0  0
 33 34  1  0  0  0
 34 35  1  0  0  0
  5  6  2  0  0  0
 10 11  2  0  0  0
 11 12  2  0  0  0
 17 18  2  0  0  0
 18 19  1  0  0  0
 19 20  2  0  0  0
 20 21  1  0  0  0
 20 15  1  0  0  0
 12  7  1  0  0  0
  6  1  1  0  0  0
 35 31  1  0  0  0
 41 36  1  0  0  0
 25 26  1  0  0  0
 27 30  1  0  0  0
 21 22  1  0  0  0
M  END
> <Activity>
34.7

> <minimizedAffinity>
-8.52692

> <CNNscore>
0.3269006610

> <CNNaffinity>
6.3399829865

> <CNN_VS>
2.0725445747

$$$$
HIPS6458


 42 45  0  0  0  0  0  0  0  0999 V2000
   91.0836   88.9236   90.4726 C   0  0  0  0  0  0  0  0  0  0  0  0
   89.7176   89.2230   90.6409 C   0  0  0  0  0  0  0  0  0  0  0  0
   88.7595   88.1990   90.6990 C   0  0  0  0  0  0  0  0  0  0  0  0
   89.1695   86.8627   90.5930 C   0  0  0  0  0  0  0  0  0  0  0  0
   90.5347   86.5342   90.4534 C   0  0  0  0  0  0  0  0  0  0  0  0
   91.4794   87.5764   90.3839 C   0  0  0  0  0  0  0  0  0  0  0  0
   93.9656   92.0868   90.2845 C   0  0  0  0  0  0  0  0  0  0  0  0
   92.7754   92.1740   89.6256 N   0  0  0  0  0  0  0  0  0  0  0  0
   91.8484   91.1853   89.6745 C   0  0  0  0  0  0  0  0  0  0  0  0
   92.0916   90.0150   90.4188 C   0  0  0  0  0  0  0  0  0  0  0  0
   93.3139   89.9084   91.1042 C   0  0  0  0  0  0  0  0  0  0  0  0
   94.2528   90.9421   91.0403 C   0  0  0  0  0  0  0  0  0  0  0  0
   95.7764   90.7961   91.9073 Cl  0  0  0  0  0  0  0  0  0  0  0  0
   94.9074   93.1206   90.2013 O   0  0  0  0  0  0  0  0  0  0  0  0
   97.1730   93.6794   89.6145 C   0  0  0  0  0  0  0  0  0  0  0  0
   95.7823   93.3261   89.0885 C   0  0  0  0  0  0  0  0  0  0  0  0
   95.2404   94.4431   88.1864 C   0  0  0  0  0  0  0  0  0  0  0  0
   90.9803   85.1126   90.4352 C   0  0  0  0  0  0  0  0  0  0  0  0
   91.9964   84.6791   89.5602 C   0  0  0  0  0  0  0  0  0  0  0  0
   92.3458   83.3714   89.5107 N   0  0  0  0  0  0  0  0  0  0  0  0
   91.7487   82.4260   90.2880 C   0  0  0  0  0  0  0  0  0  0  0  0
   90.7386   82.8072   91.1809 C   0  0  0  0  0  0  0  0  0  0  0  0
   89.9421   81.6167   92.1999 Cl  0  0  0  0  0  0  0  0  0  0  0  0
   90.3615   84.1498   91.2562 C   0  0  0  0  0  0  0  0  0  0  0  0
   92.1150   81.0803   90.1894 O   0  0  0  0  0  0  0  0  0  0  0  0
   91.5668   80.1681   89.2359 C   0  0  0  0  0  0  0  0  0  0  0  0
   92.7119   79.3905   88.5835 C   0  0  0  0  0  0  0  0  0  0  0  0
   90.7733   80.9428   88.1784 C   0  0  0  0  0  0  0  0  0  0  0  0
   87.3410   88.5146   91.0934 C   0  0  0  0  0  0  0  0  0  0  0  0
   86.5540   88.4563   89.9041 O   0  0  0  0  0  0  0  0  0  0  0  0
   86.2065   87.2913   89.2047 C   0  0  0  0  0  0  0  0  0  0  0  0
   85.8447   86.0847   89.8298 C   0  0  0  0  0  0  0  0  0  0  0  0
   85.5261   84.9641   89.0564 C   0  0  0  0  0  0  0  0  0  0  0  0
   85.5575   85.0284   87.6503 C   0  0  0  0  0  0  0  0  0  0  0  0
   85.2526   83.8893   86.9072 O   0  0  0  0  0  0  0  0  0  0  0  0
   85.9208   86.2390   87.0103 C   0  0  0  0  0  0  0  0  0  0  0  0
   86.2260   87.3570   87.8040 C   0  0  0  0  0  0  0  0  0  0  0  0
   85.0140   83.0952   87.3437 H   0  0  0  0  0  0  0  0  0  0  0  0
   86.0189   86.3713   85.5303 C   0  0  0  0  0  0  0  0  0  0  0  0
   86.0724   85.3526   84.7893 O   0  0  0  0  0  0  0  0  0  0  0  0
   86.0555   87.6346   84.9422 O   0  0  0  0  0  0  0  0  0  0  0  0
   86.0167   88.4022   85.4782 H   0  0  0  0  0  0  0  0  0  0  0  0
 15 16  1  0  0  0
 16 17  1  0  0  0
 16 14  1  0  0  0
 14  7  1  0  0  0
  7  8  2  0  0  0
  8  9  2  0  0  0
  9 10  2  0  0  0
 10  1  1  0  0  0
  1  2  2  0  0  0
  2  3  1  0  0  0
  3 29  1  0  0  0
 29 30  1  0  0  0
 30 31  1  0  0  0
 31 32  2  0  0  0
 32 33  1  0  0  0
 33 34  2  0  0  0
 34 35  1  0  0  0
 34 36  1  0  0  0
 36 39  1  0  0  0
 39 40  2  0  0  0
 39 41  1  0  0  0
 36 37  2  0  0  0
  3  4  2  0  0  0
  4  5  1  0  0  0
  5 18  1  0  0  0
 18 19  2  0  0  0
 19 20  2  0  0  0
 20 21  2  0  0  0
 21 25  1  0  0  0
 25 26  1  0  0  0
 26 27  1  0  0  0
 26 28  1  0  0  0
 21 22  1  0  0  0
 22 23  1  0  0  0
 22 24  2  0  0  0
  5  6  2  0  0  0
 10 11  1  0  0  0
 11 12  2  0  0  0
 12 13  1  0  0  0
 12  7  1  0  0  0
  6  1  1  0  0  0
 37 31  1  0  0  0
 24 18  1  0  0  0
 35 38  1  0  0  0
 41 42  1  0  0  0
M  END
> <Activity>
4.1

> <minimizedAffinity>
-9.41305

> <CNNscore>
0.6954221725

> <CNNaffinity>
7.6785373688

> <CNN_VS>
5.3398251534

$$$$
HIPS6458


 42 45  0  0  0  0  0  0  0  0999 V2000
   90.4392   86.4700   90.6018 C   0  0  0  0  0  0  0  0  0  0  0  0
   89.0884   86.7719   90.8631 C   0  0  0  0  0  0  0  0  0  0  0  0
   88.6571   88.1033   90.9679 C   0  0  0  0  0  0  0  0  0  0  0  0
   89.5823   89.1439   90.8056 C   0  0  0  0  0  0  0  0  0  0  0  0
   90.9352   88.8694   90.5141 C   0  0  0  0  0  0  0  0  0  0  0  0
   91.3512   87.5268   90.4259 C   0  0  0  0  0  0  0  0  0  0  0  0
   91.7464   82.4078   90.2316 C   0  0  0  0  0  0  0  0  0  0  0  0
   92.3018   83.4010   89.4809 N   0  0  0  0  0  0  0  0  0  0  0  0
   91.9045   84.6935   89.5850 C   0  0  0  0  0  0  0  0  0  0  0  0
   90.8852   85.0566   90.4861 C   0  0  0  0  0  0  0  0  0  0  0  0
   90.3014   84.0450   91.2678 C   0  0  0  0  0  0  0  0  0  0  0  0
   90.7296   82.7201   91.1441 C   0  0  0  0  0  0  0  0  0  0  0  0
   89.9923   81.4656   92.1326 Cl  0  0  0  0  0  0  0  0  0  0  0  0
   92.1705   81.0802   90.0891 O   0  0  0  0  0  0  0  0  0  0  0  0
   92.7475   79.3388   88.5323 C   0  0  0  0  0  0  0  0  0  0  0  0
   91.6131   80.1521   89.1544 C   0  0  0  0  0  0  0  0  0  0  0  0
   90.8207   80.8990   88.0729 C   0  0  0  0  0  0  0  0  0  0  0  0
   91.8989   89.9744   90.2487 C   0  0  0  0  0  0  0  0  0  0  0  0
   92.9466   90.2585   91.1473 C   0  0  0  0  0  0  0  0  0  0  0  0
   93.7753   91.3063   90.9239 N   0  0  0  0  0  0  0  0  0  0  0  0
   93.6451   92.1226   89.8418 C   0  0  0  0  0  0  0  0  0  0  0  0
   92.6245   91.8773   88.9138 C   0  0  0  0  0  0  0  0  0  0  0  0
   92.4221   92.9092   87.5051 Cl  0  0  0  0  0  0  0  0  0  0  0  0
   91.7582   90.8008   89.1167 C   0  0  0  0  0  0  0  0  0  0  0  0
   94.5011   93.2128   89.6584 O   0  0  0  0  0  0  0  0  0  0  0  0
   95.8716   93.0993   89.2701 C   0  0  0  0  0  0  0  0  0  0  0  0
   96.6780   94.1844   89.9871 C   0  0  0  0  0  0  0  0  0  0  0  0
   95.9917   93.2575   87.7507 C   0  0  0  0  0  0  0  0  0  0  0  0
   87.1856   88.4168   91.0304 C   0  0  0  0  0  0  0  0  0  0  0  0
   86.7012   88.4168   89.6877 O   0  0  0  0  0  0  0  0  0  0  0  0
   86.3120   87.2865   88.9544 C   0  0  0  0  0  0  0  0  0  0  0  0
   86.0030   86.0455   89.5391 C   0  0  0  0  0  0  0  0  0  0  0  0
   85.6370   84.9636   88.7322 C   0  0  0  0  0  0  0  0  0  0  0  0
   85.5681   85.1013   87.3327 C   0  0  0  0  0  0  0  0  0  0  0  0
   85.2181   83.9995   86.5541 O   0  0  0  0  0  0  0  0  0  0  0  0
   85.8776   86.3471   86.7332 C   0  0  0  0  0  0  0  0  0  0  0  0
   86.2316   87.4252   87.5611 C   0  0  0  0  0  0  0  0  0  0  0  0
   85.0159   83.1815   86.9639 H   0  0  0  0  0  0  0  0  0  0  0  0
   85.8696   86.5572   85.2590 C   0  0  0  0  0  0  0  0  0  0  0  0
   86.2403   85.6455   84.4710 O   0  0  0  0  0  0  0  0  0  0  0  0
   85.4503   87.7763   84.7289 O   0  0  0  0  0  0  0  0  0  0  0  0
   85.1715   88.4646   85.3002 H   0  0  0  0  0  0  0  0  0  0  0  0
 15 16  1  0  0  0
 16 17  1  0  0  0
 16 14  1  0  0  0
 14  7  1  0  0  0
  7  8  2  0  0  0
  8  9  2  0  0  0
  9 10  2  0  0  0
 10  1  1  0  0  0
  1  2  2  0  0  0
  2  3  1  0  0  0
  3 29  1  0  0  0
 29 30  1  0  0  0
 30 31  1  0  0  0
 31 32  2  0  0  0
 32 33  1  0  0  0
 33 34  2  0  0  0
 34 35  1  0  0  0
 34 36  1  0  0  0
 36 39  1  0  0  0
 39 40  2  0  0  0
 39 41  1  0  0  0
 36 37  2  0  0  0
  3  4  2  0  0  0
  4  5  1  0  0  0
  5 18  1  0  0  0
 18 19  2  0  0  0
 19 20  2  0  0  0
 20 21  2  0  0  0
 21 25  1  0  0  0
 25 26  1  0  0  0
 26 27  1  0  0  0
 26 28  1  0  0  0
 21 22  1  0  0  0
 22 23  1  0  0  0
 22 24  2  0  0  0
  5  6  2  0  0  0
 10 11  1  0  0  0
 11 12  2  0  0  0
 12 13  1  0  0  0
 12  7  1  0  0  0
  6  1  1  0  0  0
 37 31  1  0  0  0
 24 18  1  0  0  0
 35 38  1  0  0  0
 41 42  1  0  0  0
M  END
> <Activity>
4.1

> <minimizedAffinity>
-9.61263

> <CNNscore>
0.6848998666

> <CNNaffinity>
7.6172504425

> <CNN_VS>
5.2170538902

$$$$
HIPS6458


 42 45  0  0  0  0  0  0  0  0999 V2000
   89.6884   88.4246   90.3044 C   0  0  0  0  0  0  0  0  0  0  0  0
   88.3650   88.6034   89.8564 C   0  0  0  0  0  0  0  0  0  0  0  0
   87.8998   89.8725   89.4785 C   0  0  0  0  0  0  0  0  0  0  0  0
   88.7655   90.9731   89.5438 C   0  0  0  0  0  0  0  0  0  0  0  0
   90.1042   90.8162   89.9609 C   0  0  0  0  0  0  0  0  0  0  0  0
   90.5483   89.5372   90.3486 C   0  0  0  0  0  0  0  0  0  0  0  0
   91.1195   84.5400   91.4040 C   0  0  0  0  0  0  0  0  0  0  0  0
   91.8666   85.3758   90.6283 N   0  0  0  0  0  0  0  0  0  0  0  0
   91.4333   86.6104   90.2715 C   0  0  0  0  0  0  0  0  0  0  0  0
   90.1738   87.0752   90.6963 C   0  0  0  0  0  0  0  0  0  0  0  0
   89.3902   86.2261   91.4965 C   0  0  0  0  0  0  0  0  0  0  0  0
   89.8597   84.9586   91.8531 C   0  0  0  0  0  0  0  0  0  0  0  0
   88.8693   83.9090   92.8589 Cl  0  0  0  0  0  0  0  0  0  0  0  0
   91.5911   83.2650   91.7427 O   0  0  0  0  0  0  0  0  0  0  0  0
   91.4795   82.6410   89.4216 C   0  0  0  0  0  0  0  0  0  0  0  0
   91.5717   82.1383   90.8618 C   0  0  0  0  0  0  0  0  0  0  0  0
   90.3864   81.2229   91.1969 C   0  0  0  0  0  0  0  0  0  0  0  0
   91.0504   91.9670   89.9410 C   0  0  0  0  0  0  0  0  0  0  0  0
   90.5935   93.2817   89.7199 C   0  0  0  0  0  0  0  0  0  0  0  0
   91.4734   94.3084   89.6413 N   0  0  0  0  0  0  0  0  0  0  0  0
   92.8172   94.1301   89.7709 C   0  0  0  0  0  0  0  0  0  0  0  0
   93.3215   92.8434   90.0006 C   0  0  0  0  0  0  0  0  0  0  0  0
   95.0498   92.5715   90.1715 Cl  0  0  0  0  0  0  0  0  0  0  0  0
   92.4366   91.7667   90.0908 C   0  0  0  0  0  0  0  0  0  0  0  0
   93.6984   95.2094   89.6551 O   0  0  0  0  0  0  0  0  0  0  0  0
   94.1057   95.7819   88.4109 C   0  0  0  0  0  0  0  0  0  0  0  0
   93.2213   96.9949   88.1141 C   0  0  0  0  0  0  0  0  0  0  0  0
   93.9765   94.7382   87.2963 C   0  0  0  0  0  0  0  0  0  0  0  0
   86.5626   90.0148   88.8010 C   0  0  0  0  0  0  0  0  0  0  0  0
   85.7598   88.9137   89.2260 O   0  0  0  0  0  0  0  0  0  0  0  0
   85.6835   87.6617   88.5986 C   0  0  0  0  0  0  0  0  0  0  0  0
   85.5385   86.4481   89.2940 C   0  0  0  0  0  0  0  0  0  0  0  0
   85.4851   85.2406   88.5907 C   0  0  0  0  0  0  0  0  0  0  0  0
   85.5701   85.2227   87.1854 C   0  0  0  0  0  0  0  0  0  0  0  0
   85.5324   84.0019   86.5141 O   0  0  0  0  0  0  0  0  0  0  0  0
   85.7165   86.4397   86.4749 C   0  0  0  0  0  0  0  0  0  0  0  0
   85.7562   87.6431   87.1982 C   0  0  0  0  0  0  0  0  0  0  0  0
   85.4352   83.2046   86.9967 H   0  0  0  0  0  0  0  0  0  0  0  0
   85.8568   86.4971   84.9935 C   0  0  0  0  0  0  0  0  0  0  0  0
   86.2493   85.4936   84.3389 O   0  0  0  0  0  0  0  0  0  0  0  0
   85.5552   87.6726   84.3077 O   0  0  0  0  0  0  0  0  0  0  0  0
   85.2622   88.4277   84.7788 H   0  0  0  0  0  0  0  0  0  0  0  0
 15 16  1  0  0  0
 16 17  1  0  0  0
 16 14  1  0  0  0
 14  7  1  0  0  0
  7  8  2  0  0  0
  8  9  2  0  0  0
  9 10  2  0  0  0
 10  1  1  0  0  0
  1  2  2  0  0  0
  2  3  1  0  0  0
  3 29  1  0  0  0
 29 30  1  0  0  0
 30 31  1  0  0  0
 31 32  2  0  0  0
 32 33  1  0  0  0
 33 34  2  0  0  0
 34 35  1  0  0  0
 34 36  1  0  0  0
 36 39  1  0  0  0
 39 40  2  0  0  0
 39 41  1  0  0  0
 36 37  2  0  0  0
  3  4  2  0  0  0
  4  5  1  0  0  0
  5 18  1  0  0  0
 18 19  2  0  0  0
 19 20  2  0  0  0
 20 21  2  0  0  0
 21 25  1  0  0  0
 25 26  1  0  0  0
 26 27  1  0  0  0
 26 28  1  0  0  0
 21 22  1  0  0  0
 22 23  1  0  0  0
 22 24  2  0  0  0
  5  6  2  0  0  0
 10 11  1  0  0  0
 11 12  2  0  0  0
 12 13  1  0  0  0
 12  7  1  0  0  0
  6  1  1  0  0  0
 37 31  1  0  0  0
 24 18  1  0  0  0
 35 38  1  0  0  0
 41 42  1  0  0  0
M  END
> <Activity>
4.1

> <minimizedAffinity>
-8.28887

> <CNNscore>
0.6700444221

> <CNNaffinity>
7.5358896255

> <CNN_VS>
5.0493807793

$$$$
HIPS7116


 36 39  0  0  0  0  0  0  0  0999 V2000
   91.2742   84.8424   90.5712 C   0  0  0  0  0  0  0  0  0  0  0  0
   92.0388   84.4568   89.5365 N   0  0  0  0  0  0  0  0  0  0  0  0
   92.1544   83.1949   89.1239 C   0  0  0  0  0  0  0  0  0  0  0  0
   91.4383   82.2208   89.8083 C   0  0  0  0  0  0  0  0  0  0  0  0
   90.6441   82.5990   90.8781 C   0  0  0  0  0  0  0  0  0  0  0  0
   90.5889   83.9068   91.2256 N   0  0  0  0  0  0  0  0  0  0  0  0
   91.9229   89.7266   90.1004 C   0  0  0  0  0  0  0  0  0  0  0  0
   93.1431   89.9152   89.8643 O   0  0  0  0  0  0  0  0  0  0  0  0
   91.3469   88.4301   90.1552 N   0  0  0  0  0  0  0  0  0  0  0  0
   91.9805   87.1449   89.9662 C   0  0  0  0  0  0  0  0  0  0  0  0
   91.2304   86.2761   90.9331 C   0  0  0  0  0  0  0  0  0  0  0  0
   89.8645   86.8334   90.8814 C   0  0  0  0  0  0  0  0  0  0  0  0
   88.6136   86.3262   91.1961 C   0  0  0  0  0  0  0  0  0  0  0  0
   87.5142   87.1334   91.0312 C   0  0  0  0  0  0  0  0  0  0  0  0
   87.6125   88.4263   90.5650 C   0  0  0  0  0  0  0  0  0  0  0  0
   88.8559   88.9269   90.2535 C   0  0  0  0  0  0  0  0  0  0  0  0
   89.9753   88.1223   90.4153 C   0  0  0  0  0  0  0  0  0  0  0  0
   91.1619   90.8799   90.3071 O   0  0  0  0  0  0  0  0  0  0  0  0
   90.0655   92.0523   92.1244 C   0  0  0  0  0  0  0  0  0  0  0  0
   91.3521   91.7403   91.3926 C   0  0  0  0  0  0  0  0  0  0  0  0
   92.0232   93.0297   91.0540 C   0  0  0  0  0  0  0  0  0  0  0  0
   92.2412   91.0001   92.3924 C   0  0  0  0  0  0  0  0  0  0  0  0
   91.5341   80.7908   89.3873 C   0  0  0  0  0  0  0  0  0  0  0  0
   90.9289   80.6930   88.1307 O   0  0  0  0  0  0  0  0  0  0  0  0
   91.6177   80.5810   86.9381 C   0  0  0  0  0  0  0  0  0  0  0  0
   92.8114   79.9106   86.8428 C   0  0  0  0  0  0  0  0  0  0  0  0
   93.4502   79.8387   85.6038 C   0  0  0  0  0  0  0  0  0  0  0  0
   92.9299   80.4155   84.4667 C   0  0  0  0  0  0  0  0  0  0  0  0
   93.5680   80.3435   83.2296 O   0  0  0  0  0  0  0  0  0  0  0  0
   91.7219   81.0874   84.5897 C   0  0  0  0  0  0  0  0  0  0  0  0
   91.0938   81.1577   85.8098 C   0  0  0  0  0  0  0  0  0  0  0  0
   94.3836   79.8893   83.1489 H   0  0  0  0  0  0  0  0  0  0  0  0
   91.1466   81.7062   83.4071 C   0  0  0  0  0  0  0  0  0  0  0  0
   91.5231   82.8598   83.0471 O   0  0  0  0  0  0  0  0  0  0  0  0
   90.1863   81.0978   82.6272 O   0  0  0  0  0  0  0  0  0  0  0  0
   89.8736   80.2433   82.8507 H   0  0  0  0  0  0  0  0  0  0  0  0
 19 20  1  0  0  0
 20 21  1  0  0  0
 20 22  1  0  0  0
 20 18  1  0  0  0
 18  7  1  0  0  0
  7  8  2  0  0  0
  7  9  1  0  0  0
  9 10  1  0  0  0
 10 11  1  0  0  0
 11  1  1  0  0  0
  1  2  2  0  0  0
  2  3  2  0  0  0
  3  4  2  0  0  0
  4 23  1  0  0  0
 23 24  1  0  0  0
 24 25  1  0  0  0
 25 26  2  0  0  0
 26 27  1  0  0  0
 27 28  2  0  0  0
 28 29  1  0  0  0
 28 30  1  0  0  0
 30 33  1  0  0  0
 33 34  2  0  0  0
 33 35  1  0  0  0
 30 31  2  0  0  0
  4  5  1  0  0  0
  5  6  2  0  0  0
 11 12  1  0  0  0
 12 13  2  0  0  0
 13 14  1  0  0  0
 14 15  2  0  0  0
 15 16  1  0  0  0
 16 17  2  0  0  0
 17  9  1  0  0  0
  6  1  2  0  0  0
 17 12  1  0  0  0
 31 25  1  0  0  0
 29 32  1  0  0  0
 35 36  1  0  0  0
M  END
> <Activity>
8.1

> <minimizedAffinity>
-9.15301

> <CNNscore>
0.7263593674

> <CNNaffinity>
6.6405858994

> <CNN_VS>
4.8234519958

$$$$
HIPS7116


 36 39  0  0  0  0  0  0  0  0999 V2000
   90.8970   85.5744   90.9409 C   0  0  0  0  0  0  0  0  0  0  0  0
   91.7265   84.9860   90.0638 N   0  0  0  0  0  0  0  0  0  0  0  0
   91.8365   83.6666   89.9107 C   0  0  0  0  0  0  0  0  0  0  0  0
   91.0424   82.8530   90.7091 C   0  0  0  0  0  0  0  0  0  0  0  0
   90.1805   83.4414   91.6197 C   0  0  0  0  0  0  0  0  0  0  0  0
   90.1371   84.7923   91.7051 N   0  0  0  0  0  0  0  0  0  0  0  0
   92.0027   90.2619   89.7993 C   0  0  0  0  0  0  0  0  0  0  0  0
   93.2530   90.3725   89.8668 O   0  0  0  0  0  0  0  0  0  0  0  0
   91.3380   89.0140   89.9284 N   0  0  0  0  0  0  0  0  0  0  0  0
   91.9025   87.7014   90.1464 C   0  0  0  0  0  0  0  0  0  0  0  0
   90.8674   87.0515   91.0173 C   0  0  0  0  0  0  0  0  0  0  0  0
   89.6055   87.6215   90.5058 C   0  0  0  0  0  0  0  0  0  0  0  0
   88.2818   87.2140   90.5612 C   0  0  0  0  0  0  0  0  0  0  0  0
   87.3242   88.0012   89.9689 C   0  0  0  0  0  0  0  0  0  0  0  0
   87.6339   89.1785   89.3236 C   0  0  0  0  0  0  0  0  0  0  0  0
   88.9489   89.5803   89.2704 C   0  0  0  0  0  0  0  0  0  0  0  0
   89.9268   88.7946   89.8646 C   0  0  0  0  0  0  0  0  0  0  0  0
   91.3011   91.4515   89.5876 O   0  0  0  0  0  0  0  0  0  0  0  0
   92.0719   93.4576   90.7104 C   0  0  0  0  0  0  0  0  0  0  0  0
   91.0252   92.3707   90.6042 C   0  0  0  0  0  0  0  0  0  0  0  0
   90.8389   91.7658   91.9559 C   0  0  0  0  0  0  0  0  0  0  0  0
   89.7209   93.0722   90.2233 C   0  0  0  0  0  0  0  0  0  0  0  0
   91.1285   81.3674   90.5784 C   0  0  0  0  0  0  0  0  0  0  0  0
   90.6625   81.0415   89.3011 O   0  0  0  0  0  0  0  0  0  0  0  0
   91.4584   80.5664   88.2764 C   0  0  0  0  0  0  0  0  0  0  0  0
   92.4085   79.5967   88.4775 C   0  0  0  0  0  0  0  0  0  0  0  0
   93.1756   79.1658   87.3939 C   0  0  0  0  0  0  0  0  0  0  0  0
   93.0180   79.6757   86.1244 C   0  0  0  0  0  0  0  0  0  0  0  0
   93.7841   79.2451   85.0425 O   0  0  0  0  0  0  0  0  0  0  0  0
   92.0507   80.6548   85.9476 C   0  0  0  0  0  0  0  0  0  0  0  0
   91.2961   81.0785   87.0149 C   0  0  0  0  0  0  0  0  0  0  0  0
   94.4367   78.5838   85.1643 H   0  0  0  0  0  0  0  0  0  0  0  0
   91.8599   81.2122   84.6189 C   0  0  0  0  0  0  0  0  0  0  0  0
   90.7513   81.0719   84.0245 O   0  0  0  0  0  0  0  0  0  0  0  0
   92.8405   81.9064   83.9427 O   0  0  0  0  0  0  0  0  0  0  0  0
   93.6794   82.0379   84.3391 H   0  0  0  0  0  0  0  0  0  0  0  0
 19 20  1  0  0  0
 20 21  1  0  0  0
 20 22  1  0  0  0
 20 18  1  0  0  0
 18  7  1  0  0  0
  7  8  2  0  0  0
  7  9  1  0  0  0
  9 10  1  0  0  0
 10 11  1  0  0  0
 11  1  1  0  0  0
  1  2  2  0  0  0
  2  3  2  0  0  0
  3  4  2  0  0  0
  4 23  1  0  0  0
 23 24  1  0  0  0
 24 25  1  0  0  0
 25 26  2  0  0  0
 26 27  1  0  0  0
 27 28  2  0  0  0
 28 29  1  0  0  0
 28 30  1  0  0  0
 30 33  1  0  0  0
 33 34  2  0  0  0
 33 35  1  0  0  0
 30 31  2  0  0  0
  4  5  1  0  0  0
  5  6  2  0  0  0
 11 12  1  0  0  0
 12 13  2  0  0  0
 13 14  1  0  0  0
 14 15  2  0  0  0
 15 16  1  0  0  0
 16 17  2  0  0  0
 17  9  1  0  0  0
  6  1  2  0  0  0
 17 12  1  0  0  0
 31 25  1  0  0  0
 29 32  1  0  0  0
 35 36  1  0  0  0
M  END
> <Activity>
8.1

> <minimizedAffinity>
-9.34303

> <CNNscore>
0.6402674317

> <CNNaffinity>
6.6050462723

> <CNN_VS>
4.2289958000

$$$$
HIPS7116


 36 39  0  0  0  0  0  0  0  0999 V2000
   89.7544   89.7314   90.5518 C   0  0  0  0  0  0  0  0  0  0  0  0
   90.7470   90.1342   91.3619 N   0  0  0  0  0  0  0  0  0  0  0  0
   90.9088   91.3907   91.7756 C   0  0  0  0  0  0  0  0  0  0  0  0
   89.9923   92.3397   91.3402 C   0  0  0  0  0  0  0  0  0  0  0  0
   88.9616   91.9435   90.5042 C   0  0  0  0  0  0  0  0  0  0  0  0
   88.8773   90.6429   90.1358 N   0  0  0  0  0  0  0  0  0  0  0  0
   91.0583   84.9638   90.2907 C   0  0  0  0  0  0  0  0  0  0  0  0
   92.2416   84.9280   89.8681 O   0  0  0  0  0  0  0  0  0  0  0  0
   90.4023   86.1782   90.6234 N   0  0  0  0  0  0  0  0  0  0  0  0
   90.9059   87.5313   90.5577 C   0  0  0  0  0  0  0  0  0  0  0  0
   89.6831   88.3061   90.1618 C   0  0  0  0  0  0  0  0  0  0  0  0
   88.5990   87.5816   90.8536 C   0  0  0  0  0  0  0  0  0  0  0  0
   87.3162   87.9301   91.2462 C   0  0  0  0  0  0  0  0  0  0  0  0
   86.5436   86.9902   91.8843 C   0  0  0  0  0  0  0  0  0  0  0  0
   86.9993   85.7166   92.1464 C   0  0  0  0  0  0  0  0  0  0  0  0
   88.2732   85.3736   91.7553 C   0  0  0  0  0  0  0  0  0  0  0  0
   89.0648   86.3134   91.1097 C   0  0  0  0  0  0  0  0  0  0  0  0
   90.4229   83.7257   90.4144 O   0  0  0  0  0  0  0  0  0  0  0  0
   90.0826   82.1503   92.2259 C   0  0  0  0  0  0  0  0  0  0  0  0
   90.9752   82.6458   91.1097 C   0  0  0  0  0  0  0  0  0  0  0  0
   92.3339   82.8987   91.6734 C   0  0  0  0  0  0  0  0  0  0  0  0
   91.0909   81.4916   90.1135 C   0  0  0  0  0  0  0  0  0  0  0  0
   90.1295   93.7627   91.7733 C   0  0  0  0  0  0  0  0  0  0  0  0
   88.8393   94.2978   91.8347 O   0  0  0  0  0  0  0  0  0  0  0  0
   88.2866   94.8781   92.9603 C   0  0  0  0  0  0  0  0  0  0  0  0
   86.9846   94.6564   93.3334 C   0  0  0  0  0  0  0  0  0  0  0  0
   86.4952   95.2772   94.4838 C   0  0  0  0  0  0  0  0  0  0  0  0
   87.2685   96.1073   95.2645 C   0  0  0  0  0  0  0  0  0  0  0  0
   86.7794   96.7270   96.4133 O   0  0  0  0  0  0  0  0  0  0  0  0
   88.5813   96.3149   94.8658 C   0  0  0  0  0  0  0  0  0  0  0  0
   89.0623   95.7034   93.7331 C   0  0  0  0  0  0  0  0  0  0  0  0
   85.8926   96.5854   96.6806 H   0  0  0  0  0  0  0  0  0  0  0  0
   89.4230   97.1855   95.6697 C   0  0  0  0  0  0  0  0  0  0  0  0
   89.1584   97.3717   96.8933 O   0  0  0  0  0  0  0  0  0  0  0  0
   90.5267   97.8425   95.1687 O   0  0  0  0  0  0  0  0  0  0  0  0
   90.7655   97.7381   94.2687 H   0  0  0  0  0  0  0  0  0  0  0  0
 19 20  1  0  0  0
 20 21  1  0  0  0
 20 22  1  0  0  0
 20 18  1  0  0  0
 18  7  1  0  0  0
  7  8  2  0  0  0
  7  9  1  0  0  0
  9 10  1  0  0  0
 10 11  1  0  0  0
 11  1  1  0  0  0
  1  2  2  0  0  0
  2  3  2  0  0  0
  3  4  2  0  0  0
  4 23  1  0  0  0
 23 24  1  0  0  0
 24 25  1  0  0  0
 25 26  2  0  0  0
 26 27  1  0  0  0
 27 28  2  0  0  0
 28 29  1  0  0  0
 28 30  1  0  0  0
 30 33  1  0  0  0
 33 34  2  0  0  0
 33 35  1  0  0  0
 30 31  2  0  0  0
  4  5  1  0  0  0
  5  6  2  0  0  0
 11 12  1  0  0  0
 12 13  2  0  0  0
 13 14  1  0  0  0
 14 15  2  0  0  0
 15 16  1  0  0  0
 16 17  2  0  0  0
 17  9  1  0  0  0
  6  1  2  0  0  0
 17 12  1  0  0  0
 31 25  1  0  0  0
 29 32  1  0  0  0
 35 36  1  0  0  0
M  END
> <Activity>
8.1

> <minimizedAffinity>
-8.95499

> <CNNscore>
0.6082326174

> <CNNaffinity>
6.2592296600

> <CNN_VS>
3.8070676327

$$$$
HIPS6566


 32 33  0  0  0  0  0  0  0  0999 V2000
   90.2871   89.6835   90.8542 C   0  0  0  0  0  0  0  0  0  0  0  0
   91.6598   89.4449   90.6604 C   0  0  0  0  0  0  0  0  0  0  0  0
   92.5764   90.4973   90.7326 C   0  0  0  0  0  0  0  0  0  0  0  0
   92.1360   91.7972   90.9987 C   0  0  0  0  0  0  0  0  0  0  0  0
   90.7698   92.0566   91.1824 C   0  0  0  0  0  0  0  0  0  0  0  0
   89.8511   90.9958   91.1204 C   0  0  0  0  0  0  0  0  0  0  0  0
   88.8319   86.1664   90.7752 C   0  0  0  0  0  0  0  0  0  0  0  0
   87.4636   86.4571   90.6605 C   0  0  0  0  0  0  0  0  0  0  0  0
   87.0193   87.7801   90.6160 C   0  0  0  0  0  0  0  0  0  0  0  0
   87.9361   88.8298   90.6820 C   0  0  0  0  0  0  0  0  0  0  0  0
   89.3123   88.5663   90.7859 C   0  0  0  0  0  0  0  0  0  0  0  0
   89.7528   87.2307   90.8304 C   0  0  0  0  0  0  0  0  0  0  0  0
   89.2489   84.7895   90.8326 N   0  0  0  0  0  0  0  0  0  0  0  0
   89.0715   84.2254   90.0454 H   0  0  0  0  0  0  0  0  0  0  0  0
   90.0424   84.0516   92.1902 S   0  0  0  0  0  0  0  0  0  0  0  0
   89.0153   83.7675   93.2514 O   0  0  0  0  0  0  0  0  0  0  0  0
   91.0633   84.9964   92.7580 O   0  0  0  0  0  0  0  0  0  0  0  0
   89.9740   81.3221   92.1451 C   0  0  0  0  0  0  0  0  0  0  0  0
   90.8189   82.5144   91.6918 C   0  0  0  0  0  0  0  0  0  0  0  0
   91.0193   82.4922   90.1732 C   0  0  0  0  0  0  0  0  0  0  0  0
   90.3062   93.4423   91.5249 C   0  0  0  0  0  0  0  0  0  0  0  0
   89.4382   93.3769   92.6541 O   0  0  0  0  0  0  0  0  0  0  0  0
   88.6047   94.4185   93.0890 C   0  0  0  0  0  0  0  0  0  0  0  0
   87.9044   94.3736   94.2333 C   0  0  0  0  0  0  0  0  0  0  0  0
   87.0359   95.4891   94.6882 C   0  0  0  0  0  0  0  0  0  0  0  0
   87.5047   96.3089   95.6474 C   0  0  0  0  0  0  0  0  0  0  0  0
   86.7494   97.3283   96.2282 O   0  0  0  0  0  0  0  0  0  0  0  0
   85.8651   97.4709   95.9534 H   0  0  0  0  0  0  0  0  0  0  0  0
   85.6847   95.6673   94.1114 C   0  0  0  0  0  0  0  0  0  0  0  0
   84.9970   94.6578   93.8004 O   0  0  0  0  0  0  0  0  0  0  0  0
   85.1834   96.9433   93.8717 O   0  0  0  0  0  0  0  0  0  0  0  0
   85.6909   97.6968   94.1011 H   0  0  0  0  0  0  0  0  0  0  0  0
 18 19  1  0  0  0
 19 20  1  0  0  0
 19 15  1  0  0  0
 15 16  2  0  0  0
 15 17  2  0  0  0
 15 13  1  0  0  0
 13  7  1  0  0  0
  7  8  2  0  0  0
  8  9  1  0  0  0
  9 10  2  0  0  0
 10 11  1  0  0  0
 11  1  1  0  0  0
  1  2  2  0  0  0
  2  3  1  0  0  0
  3  4  2  0  0  0
  4  5  1  0  0  0
  5 21  1  0  0  0
 21 22  1  0  0  0
 22 23  1  0  0  0
 23 24  2  0  0  0
 24 25  1  0  0  0
 25 26  2  0  0  0
 26 27  1  0  0  0
 25 29  1  0  0  0
 29 30  2  0  0  0
 29 31  1  0  0  0
  5  6  2  0  0  0
 11 12  2  0  0  0
 12  7  1  0  0  0
  6  1  1  0  0  0
 13 14  1  0  0  0
 27 28  1  0  0  0
 31 32  1  0  0  0
M  END
> <Activity>
8.6

> <minimizedAffinity>
-8.52081

> <CNNscore>
0.5898241997

> <CNNaffinity>
5.6585893631

> <CNN_VS>
3.3375730515

$$$$
HIPS6566


 32 33  0  0  0  0  0  0  0  0999 V2000
   89.6650   89.6069   90.5987 C   0  0  0  0  0  0  0  0  0  0  0  0
   90.9433   89.0269   90.6911 C   0  0  0  0  0  0  0  0  0  0  0  0
   92.0211   89.7685   91.1821 C   0  0  0  0  0  0  0  0  0  0  0  0
   91.8375   91.0942   91.5863 C   0  0  0  0  0  0  0  0  0  0  0  0
   90.5729   91.6935   91.4900 C   0  0  0  0  0  0  0  0  0  0  0  0
   89.4883   90.9432   91.0064 C   0  0  0  0  0  0  0  0  0  0  0  0
   87.2159   86.7464   90.0390 C   0  0  0  0  0  0  0  0  0  0  0  0
   86.3409   87.3349   89.1128 C   0  0  0  0  0  0  0  0  0  0  0  0
   86.5411   88.6475   88.6806 C   0  0  0  0  0  0  0  0  0  0  0  0
   87.6197   89.3881   89.1654 C   0  0  0  0  0  0  0  0  0  0  0  0
   88.5168   88.8190   90.0849 C   0  0  0  0  0  0  0  0  0  0  0  0
   88.3089   87.4960   90.5161 C   0  0  0  0  0  0  0  0  0  0  0  0
   86.9671   85.3956   90.4710 N   0  0  0  0  0  0  0  0  0  0  0  0
   86.7833   84.7211   89.7778 H   0  0  0  0  0  0  0  0  0  0  0  0
   86.9679   84.8701   92.1267 S   0  0  0  0  0  0  0  0  0  0  0  0
   85.9461   83.7781   92.2850 O   0  0  0  0  0  0  0  0  0  0  0  0
   86.5846   86.0130   93.0233 O   0  0  0  0  0  0  0  0  0  0  0  0
   89.4615   84.0956   91.3277 C   0  0  0  0  0  0  0  0  0  0  0  0
   88.5847   84.2371   92.5734 C   0  0  0  0  0  0  0  0  0  0  0  0
   89.2469   85.1590   93.6022 C   0  0  0  0  0  0  0  0  0  0  0  0
   90.3661   93.0975   91.9783 C   0  0  0  0  0  0  0  0  0  0  0  0
   89.2920   93.1107   92.9158 O   0  0  0  0  0  0  0  0  0  0  0  0
   88.5285   94.2401   93.2478 C   0  0  0  0  0  0  0  0  0  0  0  0
   87.9022   94.3864   94.4261 C   0  0  0  0  0  0  0  0  0  0  0  0
   87.1079   95.5933   94.7696 C   0  0  0  0  0  0  0  0  0  0  0  0
   87.5901   96.4242   95.7123 C   0  0  0  0  0  0  0  0  0  0  0  0
   86.8931   97.5333   96.1931 O   0  0  0  0  0  0  0  0  0  0  0  0
   86.0410   97.7325   95.8580 H   0  0  0  0  0  0  0  0  0  0  0  0
   85.8115   95.8492   94.1032 C   0  0  0  0  0  0  0  0  0  0  0  0
   85.4484   97.0337   93.8708 O   0  0  0  0  0  0  0  0  0  0  0  0
   84.9709   94.7921   93.7673 O   0  0  0  0  0  0  0  0  0  0  0  0
   85.2365   93.9099   93.9381 H   0  0  0  0  0  0  0  0  0  0  0  0
 18 19  1  0  0  0
 19 20  1  0  0  0
 19 15  1  0  0  0
 15 16  2  0  0  0
 15 17  2  0  0  0
 15 13  1  0  0  0
 13  7  1  0  0  0
  7  8  2  0  0  0
  8  9  1  0  0  0
  9 10  2  0  0  0
 10 11  1  0  0  0
 11  1  1  0  0  0
  1  2  2  0  0  0
  2  3  1  0  0  0
  3  4  2  0  0  0
  4  5  1  0  0  0
  5 21  1  0  0  0
 21 22  1  0  0  0
 22 23  1  0  0  0
 23 24  2  0  0  0
 24 25  1  0  0  0
 25 26  2  0  0  0
 26 27  1  0  0  0
 25 29  1  0  0  0
 29 30  2  0  0  0
 29 31  1  0  0  0
  5  6  2  0  0  0
 11 12  2  0  0  0
 12  7  1  0  0  0
  6  1  1  0  0  0
 13 14  1  0  0  0
 27 28  1  0  0  0
 31 32  1  0  0  0
M  END
> <Activity>
8.6

> <minimizedAffinity>
-7.99299

> <CNNscore>
0.5054472685

> <CNNaffinity>
5.6062068939

> <CNN_VS>
2.8336420059

$$$$
HIPS6566


 32 33  0  0  0  0  0  0  0  0999 V2000
   88.7420   86.1528   90.7888 C   0  0  0  0  0  0  0  0  0  0  0  0
   89.2160   84.8357   90.9275 C   0  0  0  0  0  0  0  0  0  0  0  0
   90.5858   84.5676   90.8601 C   0  0  0  0  0  0  0  0  0  0  0  0
   91.4973   85.6075   90.6545 C   0  0  0  0  0  0  0  0  0  0  0  0
   91.0426   86.9257   90.5017 C   0  0  0  0  0  0  0  0  0  0  0  0
   89.6662   87.1948   90.5806 C   0  0  0  0  0  0  0  0  0  0  0  0
   85.1485   86.8806   89.7636 C   0  0  0  0  0  0  0  0  0  0  0  0
   84.5378   86.9831   91.0231 C   0  0  0  0  0  0  0  0  0  0  0  0
   85.2839   86.8113   92.1909 C   0  0  0  0  0  0  0  0  0  0  0  0
   86.6501   86.5383   92.1158 C   0  0  0  0  0  0  0  0  0  0  0  0
   87.2882   86.4414   90.8678 C   0  0  0  0  0  0  0  0  0  0  0  0
   86.5302   86.6155   89.6953 C   0  0  0  0  0  0  0  0  0  0  0  0
   84.3421   87.0498   88.5828 N   0  0  0  0  0  0  0  0  0  0  0  0
   83.4927   86.5544   88.5350 H   0  0  0  0  0  0  0  0  0  0  0  0
   84.7597   88.0649   87.2365 S   0  0  0  0  0  0  0  0  0  0  0  0
   85.4827   89.2775   87.7546 O   0  0  0  0  0  0  0  0  0  0  0  0
   83.5111   88.5196   86.5357 O   0  0  0  0  0  0  0  0  0  0  0  0
   85.5046   85.6834   86.1273 C   0  0  0  0  0  0  0  0  0  0  0  0
   85.8285   87.1785   86.1022 C   0  0  0  0  0  0  0  0  0  0  0  0
   85.6794   87.7430   84.6859 C   0  0  0  0  0  0  0  0  0  0  0  0
   92.0265   88.0472   90.3389 C   0  0  0  0  0  0  0  0  0  0  0  0
   91.5053   88.9920   89.4069 O   0  0  0  0  0  0  0  0  0  0  0  0
   91.2779   90.3493   89.6801 C   0  0  0  0  0  0  0  0  0  0  0  0
   90.6006   90.7817   90.7553 C   0  0  0  0  0  0  0  0  0  0  0  0
   90.3785   92.2224   91.0394 C   0  0  0  0  0  0  0  0  0  0  0  0
   89.1430   92.7234   90.8543 C   0  0  0  0  0  0  0  0  0  0  0  0
   88.8308   94.0766   90.9897 O   0  0  0  0  0  0  0  0  0  0  0  0
   89.4995   94.6908   91.2213 H   0  0  0  0  0  0  0  0  0  0  0  0
   91.5000   93.0769   91.4892 C   0  0  0  0  0  0  0  0  0  0  0  0
   92.5426   93.1654   90.7864 O   0  0  0  0  0  0  0  0  0  0  0  0
   91.4281   93.7524   92.7039 O   0  0  0  0  0  0  0  0  0  0  0  0
   90.6552   93.6897   93.2298 H   0  0  0  0  0  0  0  0  0  0  0  0
 18 19  1  0  0  0
 19 20  1  0  0  0
 19 15  1  0  0  0
 15 16  2  0  0  0
 15 17  2  0  0  0
 15 13  1  0  0  0
 13  7  1  0  0  0
  7  8  2  0  0  0
  8  9  1  0  0  0
  9 10  2  0  0  0
 10 11  1  0  0  0
 11  1  1  0  0  0
  1  2  2  0  0  0
  2  3  1  0  0  0
  3  4  2  0  0  0
  4  5  1  0  0  0
  5 21  1  0  0  0
 21 22  1  0  0  0
 22 23  1  0  0  0
 23 24  2  0  0  0
 24 25  1  0  0  0
 25 26  2  0  0  0
 26 27  1  0  0  0
 25 29  1  0  0  0
 29 30  2  0  0  0
 29 31  1  0  0  0
  5  6  2  0  0  0
 11 12  2  0  0  0
 12  7  1  0  0  0
  6  1  1  0  0  0
 13 14  1  0  0  0
 27 28  1  0  0  0
 31 32  1  0  0  0
M  END
> <Activity>
8.6

> <minimizedAffinity>
-7.28047

> <CNNscore>
0.3792372942

> <CNNaffinity>
5.7530097961

> <CNN_VS>
2.1817557812

$$$$
HIPS6295


 36 39  0  0  0  0  0  0  0  0999 V2000
   89.4524   89.4573   90.7047 C   0  0  0  0  0  0  0  0  0  0  0  0
   90.4461   90.3486   91.1357 C   0  0  0  0  0  0  0  0  0  0  0  0
   91.7751   89.9280   91.2345 C   0  0  0  0  0  0  0  0  0  0  0  0
   93.0133   91.0535   91.7604 Cl  0  0  0  0  0  0  0  0  0  0  0  0
   92.1214   88.6166   90.8967 C   0  0  0  0  0  0  0  0  0  0  0  0
   91.1356   87.7081   90.4767 C   0  0  0  0  0  0  0  0  0  0  0  0
   89.7989   88.1319   90.3991 C   0  0  0  0  0  0  0  0  0  0  0  0
   91.5072   86.3405   90.0513 C   0  0  0  0  0  0  0  0  0  0  0  0
   92.5544   86.1330   89.1391 C   0  0  0  0  0  0  0  0  0  0  0  0
   92.9273   84.8355   88.7802 C   0  0  0  0  0  0  0  0  0  0  0  0
   92.2799   83.7359   89.3495 C   0  0  0  0  0  0  0  0  0  0  0  0
   91.2524   83.9218   90.2810 C   0  0  0  0  0  0  0  0  0  0  0  0
   90.8471   85.2308   90.6031 C   0  0  0  0  0  0  0  0  0  0  0  0
   90.6771   82.7873   90.8769 O   0  0  0  0  0  0  0  0  0  0  0  0
   91.1823   81.4548   90.7631 C   0  0  0  0  0  0  0  0  0  0  0  0
   90.9815   80.9230   89.3665 C   0  0  0  0  0  0  0  0  0  0  0  0
   89.7113   80.9751   88.7704 C   0  0  0  0  0  0  0  0  0  0  0  0
   89.5268   80.5120   87.4642 C   0  0  0  0  0  0  0  0  0  0  0  0
   90.6062   79.9910   86.7456 C   0  0  0  0  0  0  0  0  0  0  0  0
   91.8732   79.9264   87.3342 C   0  0  0  0  0  0  0  0  0  0  0  0
   93.2307   79.2830   86.4280 Cl  0  0  0  0  0  0  0  0  0  0  0  0
   92.0595   80.3825   88.6442 C   0  0  0  0  0  0  0  0  0  0  0  0
   88.0365   89.9393   90.5348 C   0  0  0  0  0  0  0  0  0  0  0  0
   87.6060   89.7561   89.1850 O   0  0  0  0  0  0  0  0  0  0  0  0
   85.8658   87.4824   86.8266 C   0  0  0  0  0  0  0  0  0  0  0  0
   86.6793   88.5038   87.3525 C   0  0  0  0  0  0  0  0  0  0  0  0
   86.7655   88.7255   88.7313 C   0  0  0  0  0  0  0  0  0  0  0  0
   86.0139   87.9199   89.6034 C   0  0  0  0  0  0  0  0  0  0  0  0
   85.1992   86.9065   89.0979 C   0  0  0  0  0  0  0  0  0  0  0  0
   85.1150   86.6814   87.7174 C   0  0  0  0  0  0  0  0  0  0  0  0
   84.2845   85.6679   87.2389 O   0  0  0  0  0  0  0  0  0  0  0  0
   83.7917   85.1435   87.8390 H   0  0  0  0  0  0  0  0  0  0  0  0
   85.1041   88.0107   84.6218 O   0  0  0  0  0  0  0  0  0  0  0  0
   85.8191   87.2772   85.3561 C   0  0  0  0  0  0  0  0  0  0  0  0
   86.5685   86.2604   84.7688 O   0  0  0  0  0  0  0  0  0  0  0  0
   87.1050   85.7066   85.3011 H   0  0  0  0  0  0  0  0  0  0  0  0
 33 34  2  0  0  0
 34 35  1  0  0  0
 34 25  1  0  0  0
 25 26  2  0  0  0
 26 27  1  0  0  0
 27 24  1  0  0  0
 24 23  1  0  0  0
 23  1  1  0  0  0
  1  2  2  0  0  0
  2  3  1  0  0  0
  3  4  1  0  0  0
  3  5  2  0  0  0
  5  6  1  0  0  0
  6  8  1  0  0  0
  8  9  2  0  0  0
  9 10  1  0  0  0
 10 11  2  0  0  0
 11 12  1  0  0  0
 12 14  1  0  0  0
 14 15  1  0  0  0
 15 16  1  0  0  0
 16 17  2  0  0  0
 17 18  1  0  0  0
 18 19  2  0  0  0
 19 20  1  0  0  0
 20 21  1  0  0  0
 20 22  2  0  0  0
 12 13  2  0  0  0
  6  7  2  0  0  0
 27 28  2  0  0  0
 28 29  1  0  0  0
 29 30  2  0  0  0
 30 31  1  0  0  0
 30 25  1  0  0  0
  7  1  1  0  0  0
 13  8  1  0  0  0
 22 16  1  0  0  0
 35 36  1  0  0  0
 31 32  1  0  0  0
M  END
> <Activity>
14.5

> <minimizedAffinity>
-8.58088

> <CNNscore>
0.6786841750

> <CNNaffinity>
6.4521064758

> <CNN_VS>
4.3789424896

$$$$
HIPS6295


 36 39  0  0  0  0  0  0  0  0999 V2000
   87.9909   85.2633   92.1480 C   0  0  0  0  0  0  0  0  0  0  0  0
   88.6407   84.0203   92.1625 C   0  0  0  0  0  0  0  0  0  0  0  0
   89.9348   83.8957   91.6499 C   0  0  0  0  0  0  0  0  0  0  0  0
   90.7451   82.3405   91.6855 Cl  0  0  0  0  0  0  0  0  0  0  0  0
   90.5910   85.0132   91.1261 C   0  0  0  0  0  0  0  0  0  0  0  0
   89.9484   86.2620   91.0917 C   0  0  0  0  0  0  0  0  0  0  0  0
   88.6403   86.3756   91.5900 C   0  0  0  0  0  0  0  0  0  0  0  0
   90.6640   87.4614   90.6030 C   0  0  0  0  0  0  0  0  0  0  0  0
   91.9755   87.3630   90.1109 C   0  0  0  0  0  0  0  0  0  0  0  0
   92.6247   88.4934   89.6090 C   0  0  0  0  0  0  0  0  0  0  0  0
   91.9620   89.7228   89.5663 C   0  0  0  0  0  0  0  0  0  0  0  0
   90.6455   89.8353   90.0268 C   0  0  0  0  0  0  0  0  0  0  0  0
   90.0121   88.7047   90.5766 C   0  0  0  0  0  0  0  0  0  0  0  0
   89.9972   91.0752   89.9018 O   0  0  0  0  0  0  0  0  0  0  0  0
   90.6498   92.3470   89.9071 C   0  0  0  0  0  0  0  0  0  0  0  0
   89.8136   93.3755   90.6258 C   0  0  0  0  0  0  0  0  0  0  0  0
   89.3633   94.5169   89.9431 C   0  0  0  0  0  0  0  0  0  0  0  0
   88.5616   95.4577   90.5964 C   0  0  0  0  0  0  0  0  0  0  0  0
   88.2069   95.2685   91.9347 C   0  0  0  0  0  0  0  0  0  0  0  0
   88.6583   94.1395   92.6258 C   0  0  0  0  0  0  0  0  0  0  0  0
   88.2034   93.8962   94.3027 Cl  0  0  0  0  0  0  0  0  0  0  0  0
   89.4670   93.1996   91.9767 C   0  0  0  0  0  0  0  0  0  0  0  0
   86.6251   85.4018   92.7656 C   0  0  0  0  0  0  0  0  0  0  0  0
   85.6123   85.0628   91.8169 O   0  0  0  0  0  0  0  0  0  0  0  0
   85.3970   85.9264   88.2157 C   0  0  0  0  0  0  0  0  0  0  0  0
   85.6800   85.2552   89.4203 C   0  0  0  0  0  0  0  0  0  0  0  0
   85.3064   85.7937   90.6564 C   0  0  0  0  0  0  0  0  0  0  0  0
   84.6484   87.0348   90.6926 C   0  0  0  0  0  0  0  0  0  0  0  0
   84.3648   87.7150   89.5081 C   0  0  0  0  0  0  0  0  0  0  0  0
   84.7354   87.1746   88.2694 C   0  0  0  0  0  0  0  0  0  0  0  0
   84.4484   87.8812   87.1014 O   0  0  0  0  0  0  0  0  0  0  0  0
   84.0095   88.7076   87.1496 H   0  0  0  0  0  0  0  0  0  0  0  0
   85.7553   84.0572   86.7672 O   0  0  0  0  0  0  0  0  0  0  0  0
   85.8013   85.3064   86.9277 C   0  0  0  0  0  0  0  0  0  0  0  0
   86.2431   86.1061   85.8762 O   0  0  0  0  0  0  0  0  0  0  0  0
   86.2830   87.0365   85.9799 H   0  0  0  0  0  0  0  0  0  0  0  0
 33 34  2  0  0  0
 34 35  1  0  0  0
 34 25  1  0  0  0
 25 26  2  0  0  0
 26 27  1  0  0  0
 27 24  1  0  0  0
 24 23  1  0  0  0
 23  1  1  0  0  0
  1  2  2  0  0  0
  2  3  1  0  0  0
  3  4  1  0  0  0
  3  5  2  0  0  0
  5  6  1  0  0  0
  6  8  1  0  0  0
  8  9  2  0  0  0
  9 10  1  0  0  0
 10 11  2  0  0  0
 11 12  1  0  0  0
 12 14  1  0  0  0
 14 15  1  0  0  0
 15 16  1  0  0  0
 16 17  2  0  0  0
 17 18  1  0  0  0
 18 19  2  0  0  0
 19 20  1  0  0  0
 20 21  1  0  0  0
 20 22  2  0  0  0
 12 13  2  0  0  0
  6  7  2  0  0  0
 27 28  2  0  0  0
 28 29  1  0  0  0
 29 30  2  0  0  0
 30 31  1  0  0  0
 30 25  1  0  0  0
  7  1  1  0  0  0
 13  8  1  0  0  0
 22 16  1  0  0  0
 35 36  1  0  0  0
 31 32  1  0  0  0
M  END
> <Activity>
14.5

> <minimizedAffinity>
-9.19063

> <CNNscore>
0.6521039605

> <CNNaffinity>
6.8652095795

> <CNN_VS>
4.4768304825

$$$$
HIPS6295


 36 39  0  0  0  0  0  0  0  0999 V2000
   88.6258   85.4377   91.7297 C   0  0  0  0  0  0  0  0  0  0  0  0
   89.4707   84.3445   91.4874 C   0  0  0  0  0  0  0  0  0  0  0  0
   90.6915   84.5290   90.8326 C   0  0  0  0  0  0  0  0  0  0  0  0
   91.7481   83.1585   90.5470 Cl  0  0  0  0  0  0  0  0  0  0  0  0
   91.0796   85.8075   90.4221 C   0  0  0  0  0  0  0  0  0  0  0  0
   90.2382   86.9103   90.6451 C   0  0  0  0  0  0  0  0  0  0  0  0
   89.0037   86.7144   91.2854 C   0  0  0  0  0  0  0  0  0  0  0  0
   90.6752   88.2749   90.2754 C   0  0  0  0  0  0  0  0  0  0  0  0
   91.7370   88.4691   89.3774 C   0  0  0  0  0  0  0  0  0  0  0  0
   92.1108   89.7609   88.9997 C   0  0  0  0  0  0  0  0  0  0  0  0
   91.4110   90.8663   89.4904 C   0  0  0  0  0  0  0  0  0  0  0  0
   90.3327   90.6920   90.3649 C   0  0  0  0  0  0  0  0  0  0  0  0
   89.9903   89.3915   90.7811 C   0  0  0  0  0  0  0  0  0  0  0  0
   89.6171   91.8278   90.7785 O   0  0  0  0  0  0  0  0  0  0  0  0
   89.7943   92.4998   92.0277 C   0  0  0  0  0  0  0  0  0  0  0  0
   88.7526   93.5745   92.2107 C   0  0  0  0  0  0  0  0  0  0  0  0
   88.0035   94.0219   91.1107 C   0  0  0  0  0  0  0  0  0  0  0  0
   87.0148   94.9956   91.2811 C   0  0  0  0  0  0  0  0  0  0  0  0
   86.7693   95.5318   92.5480 C   0  0  0  0  0  0  0  0  0  0  0  0
   87.5167   95.0993   93.6481 C   0  0  0  0  0  0  0  0  0  0  0  0
   87.2006   95.7641   95.2406 Cl  0  0  0  0  0  0  0  0  0  0  0  0
   88.5121   94.1300   93.4794 C   0  0  0  0  0  0  0  0  0  0  0  0
   87.3460   85.2396   92.4970 C   0  0  0  0  0  0  0  0  0  0  0  0
   86.2996   84.8175   91.6208 O   0  0  0  0  0  0  0  0  0  0  0  0
   85.4354   85.7862   88.1459 C   0  0  0  0  0  0  0  0  0  0  0  0
   85.9452   85.0888   89.2573 C   0  0  0  0  0  0  0  0  0  0  0  0
   85.7729   85.5722   90.5590 C   0  0  0  0  0  0  0  0  0  0  0  0
   85.0891   86.7839   90.7551 C   0  0  0  0  0  0  0  0  0  0  0  0
   84.5819   87.4897   89.6639 C   0  0  0  0  0  0  0  0  0  0  0  0
   84.7509   87.0045   88.3602 C   0  0  0  0  0  0  0  0  0  0  0  0
   84.2423   87.7359   87.2867 O   0  0  0  0  0  0  0  0  0  0  0  0
   83.7904   88.5420   87.4413 H   0  0  0  0  0  0  0  0  0  0  0  0
   86.1694   85.9084   85.8728 O   0  0  0  0  0  0  0  0  0  0  0  0
   85.6318   85.2245   86.7848 C   0  0  0  0  0  0  0  0  0  0  0  0
   85.2163   83.9261   86.4986 O   0  0  0  0  0  0  0  0  0  0  0  0
   84.8149   83.4049   87.1659 H   0  0  0  0  0  0  0  0  0  0  0  0
 33 34  2  0  0  0
 34 35  1  0  0  0
 34 25  1  0  0  0
 25 26  2  0  0  0
 26 27  1  0  0  0
 27 24  1  0  0  0
 24 23  1  0  0  0
 23  1  1  0  0  0
  1  2  2  0  0  0
  2  3  1  0  0  0
  3  4  1  0  0  0
  3  5  2  0  0  0
  5  6  1  0  0  0
  6  8  1  0  0  0
  8  9  2  0  0  0
  9 10  1  0  0  0
 10 11  2  0  0  0
 11 12  1  0  0  0
 12 14  1  0  0  0
 14 15  1  0  0  0
 15 16  1  0  0  0
 16 17  2  0  0  0
 17 18  1  0  0  0
 18 19  2  0  0  0
 19 20  1  0  0  0
 20 21  1  0  0  0
 20 22  2  0  0  0
 12 13  2  0  0  0
  6  7  2  0  0  0
 27 28  2  0  0  0
 28 29  1  0  0  0
 29 30  2  0  0  0
 30 31  1  0  0  0
 30 25  1  0  0  0
  7  1  1  0  0  0
 13  8  1  0  0  0
 22 16  1  0  0  0
 35 36  1  0  0  0
 31 32  1  0  0  0
M  END
> <Activity>
14.5

> <minimizedAffinity>
-9.40183

> <CNNscore>
0.6140810251

> <CNNaffinity>
6.7585287094

> <CNN_VS>
4.1502842903

$$$$
HIPS6774


 35 38  0  0  0  0  0  0  0  0999 V2000
   89.1981   87.6064   90.7313 C   0  0  0  0  0  0  0  0  0  0  0  0
   90.3927   88.2880   90.4599 C   0  0  0  0  0  0  0  0  0  0  0  0
   91.5863   87.5747   90.3699 C   0  0  0  0  0  0  0  0  0  0  0  0
   91.5883   86.2286   90.5485 N   0  0  0  0  0  0  0  0  0  0  0  0
   90.4493   85.5223   90.8105 C   0  0  0  0  0  0  0  0  0  0  0  0
   89.2280   86.2158   90.9184 C   0  0  0  0  0  0  0  0  0  0  0  0
   90.5458   84.0533   91.0101 C   0  0  0  0  0  0  0  0  0  0  0  0
   90.0431   83.4304   92.1699 C   0  0  0  0  0  0  0  0  0  0  0  0
   90.1056   82.0400   92.3094 C   0  0  0  0  0  0  0  0  0  0  0  0
   90.6604   81.2569   91.2979 C   0  0  0  0  0  0  0  0  0  0  0  0
   91.1656   81.8491   90.1330 C   0  0  0  0  0  0  0  0  0  0  0  0
   91.1144   83.2508   90.0030 C   0  0  0  0  0  0  0  0  0  0  0  0
   91.7090   81.0163   89.1385 O   0  0  0  0  0  0  0  0  0  0  0  0
   90.9730   80.4349   88.0644 C   0  0  0  0  0  0  0  0  0  0  0  0
   91.7896   80.4216   86.7965 C   0  0  0  0  0  0  0  0  0  0  0  0
   92.9398   79.6199   86.6925 C   0  0  0  0  0  0  0  0  0  0  0  0
   93.6948   79.6193   85.5158 C   0  0  0  0  0  0  0  0  0  0  0  0
   93.2920   80.4000   84.4255 C   0  0  0  0  0  0  0  0  0  0  0  0
   92.1369   81.1869   84.5129 C   0  0  0  0  0  0  0  0  0  0  0  0
   91.6267   82.1535   83.1372 Cl  0  0  0  0  0  0  0  0  0  0  0  0
   91.3874   81.1989   85.6951 C   0  0  0  0  0  0  0  0  0  0  0  0
   87.9256   88.3853   90.9233 C   0  0  0  0  0  0  0  0  0  0  0  0
   86.7931   87.6853   90.4125 O   0  0  0  0  0  0  0  0  0  0  0  0
   85.8102   86.5086   87.0332 C   0  0  0  0  0  0  0  0  0  0  0  0
   86.2756   86.5287   88.3599 C   0  0  0  0  0  0  0  0  0  0  0  0
   86.3871   87.7325   89.0723 C   0  0  0  0  0  0  0  0  0  0  0  0
   86.0672   88.9397   88.4314 C   0  0  0  0  0  0  0  0  0  0  0  0
   85.6500   88.9419   87.1027 C   0  0  0  0  0  0  0  0  0  0  0  0
   85.5139   87.7388   86.3945 C   0  0  0  0  0  0  0  0  0  0  0  0
   85.0860   87.7698   85.0673 O   0  0  0  0  0  0  0  0  0  0  0  0
   84.8932   88.5895   84.6562 H   0  0  0  0  0  0  0  0  0  0  0  0
   85.8398   85.0750   85.1161 O   0  0  0  0  0  0  0  0  0  0  0  0
   85.6171   85.2010   86.3488 C   0  0  0  0  0  0  0  0  0  0  0  0
   85.1570   84.1007   87.0683 O   0  0  0  0  0  0  0  0  0  0  0  0
   84.9868   84.1792   87.9863 H   0  0  0  0  0  0  0  0  0  0  0  0
 32 33  2  0  0  0
 33 34  1  0  0  0
 33 24  1  0  0  0
 24 25  2  0  0  0
 25 26  1  0  0  0
 26 23  1  0  0  0
 23 22  1  0  0  0
 22  1  1  0  0  0
  1  2  2  0  0  0
  2  3  1  0  0  0
  3  4  2  0  0  0
  4  5  2  0  0  0
  5  7  1  0  0  0
  7  8  2  0  0  0
  8  9  1  0  0  0
  9 10  2  0  0  0
 10 11  1  0  0  0
 11 13  1  0  0  0
 13 14  1  0  0  0
 14 15  1  0  0  0
 15 16  2  0  0  0
 16 17  1  0  0  0
 17 18  2  0  0  0
 18 19  1  0  0  0
 19 20  1  0  0  0
 19 21  2  0  0  0
 11 12  2  0  0  0
  5  6  2  0  0  0
 26 27  2  0  0  0
 27 28  1  0  0  0
 28 29  2  0  0  0
 29 30  1  0  0  0
 29 24  1  0  0  0
  6  1  1  0  0  0
 12  7  1  0  0  0
 21 15  1  0  0  0
 34 35  1  0  0  0
 30 31  1  0  0  0
M  END
> <Activity>
15.2

> <minimizedAffinity>
-10.14987

> <CNNscore>
0.7205877304

> <CNNaffinity>
6.6839456558

> <CNN_VS>
4.8163690567

$$$$
HIPS6774


 35 38  0  0  0  0  0  0  0  0999 V2000
   90.3865   91.8871   91.6211 C   0  0  0  0  0  0  0  0  0  0  0  0
   91.7089   91.5380   91.3135 C   0  0  0  0  0  0  0  0  0  0  0  0
   91.9767   90.2970   90.7391 C   0  0  0  0  0  0  0  0  0  0  0  0
   90.9606   89.4330   90.4843 N   0  0  0  0  0  0  0  0  0  0  0  0
   89.6575   89.7314   90.7630 C   0  0  0  0  0  0  0  0  0  0  0  0
   89.3550   90.9736   91.3539 C   0  0  0  0  0  0  0  0  0  0  0  0
   88.6108   88.7193   90.4679 C   0  0  0  0  0  0  0  0  0  0  0  0
   87.6489   88.9235   89.4584 C   0  0  0  0  0  0  0  0  0  0  0  0
   86.7043   87.9328   89.1708 C   0  0  0  0  0  0  0  0  0  0  0  0
   86.7105   86.7304   89.8769 C   0  0  0  0  0  0  0  0  0  0  0  0
   87.6567   86.4992   90.8839 C   0  0  0  0  0  0  0  0  0  0  0  0
   88.5967   87.5055   91.1806 C   0  0  0  0  0  0  0  0  0  0  0  0
   87.6265   85.2680   91.5629 O   0  0  0  0  0  0  0  0  0  0  0  0
   88.5784   84.8459   92.5372 C   0  0  0  0  0  0  0  0  0  0  0  0
   89.6145   83.9396   91.9210 C   0  0  0  0  0  0  0  0  0  0  0  0
   89.7066   82.5903   92.3049 C   0  0  0  0  0  0  0  0  0  0  0  0
   90.6749   81.7592   91.7336 C   0  0  0  0  0  0  0  0  0  0  0  0
   91.5414   82.2634   90.7560 C   0  0  0  0  0  0  0  0  0  0  0  0
   91.4443   83.6011   90.3531 C   0  0  0  0  0  0  0  0  0  0  0  0
   92.5237   84.2257   89.1154 Cl  0  0  0  0  0  0  0  0  0  0  0  0
   90.4843   84.4380   90.9340 C   0  0  0  0  0  0  0  0  0  0  0  0
   90.1061   93.1852   92.3278 C   0  0  0  0  0  0  0  0  0  0  0  0
   89.2004   94.0047   91.5920 O   0  0  0  0  0  0  0  0  0  0  0  0
   87.3787   95.9939   94.1406 C   0  0  0  0  0  0  0  0  0  0  0  0
   88.3351   95.1737   93.5166 C   0  0  0  0  0  0  0  0  0  0  0  0
   88.1833   94.7666   92.1823 C   0  0  0  0  0  0  0  0  0  0  0  0
   87.0340   95.1530   91.4750 C   0  0  0  0  0  0  0  0  0  0  0  0
   86.0542   95.9260   92.0930 C   0  0  0  0  0  0  0  0  0  0  0  0
   86.2134   96.3552   93.4188 C   0  0  0  0  0  0  0  0  0  0  0  0
   85.2201   97.1358   94.0101 O   0  0  0  0  0  0  0  0  0  0  0  0
   84.4544   97.3680   93.5225 H   0  0  0  0  0  0  0  0  0  0  0  0
   86.7189   96.4514   96.3960 O   0  0  0  0  0  0  0  0  0  0  0  0
   87.6278   96.4797   95.5253 C   0  0  0  0  0  0  0  0  0  0  0  0
   88.8737   97.0010   95.8657 O   0  0  0  0  0  0  0  0  0  0  0  0
   89.5600   97.0288   95.2284 H   0  0  0  0  0  0  0  0  0  0  0  0
 32 33  2  0  0  0
 33 34  1  0  0  0
 33 24  1  0  0  0
 24 25  2  0  0  0
 25 26  1  0  0  0
 26 23  1  0  0  0
 23 22  1  0  0  0
 22  1  1  0  0  0
  1  2  2  0  0  0
  2  3  1  0  0  0
  3  4  2  0  0  0
  4  5  2  0  0  0
  5  7  1  0  0  0
  7  8  2  0  0  0
  8  9  1  0  0  0
  9 10  2  0  0  0
 10 11  1  0  0  0
 11 13  1  0  0  0
 13 14  1  0  0  0
 14 15  1  0  0  0
 15 16  2  0  0  0
 16 17  1  0  0  0
 17 18  2  0  0  0
 18 19  1  0  0  0
 19 20  1  0  0  0
 19 21  2  0  0  0
 11 12  2  0  0  0
  5  6  2  0  0  0
 26 27  2  0  0  0
 27 28  1  0  0  0
 28 29  2  0  0  0
 29 30  1  0  0  0
 29 24  1  0  0  0
  6  1  1  0  0  0
 12  7  1  0  0  0
 21 15  1  0  0  0
 34 35  1  0  0  0
 30 31  1  0  0  0
M  END
> <Activity>
15.2

> <minimizedAffinity>
-8.97888

> <CNNscore>
0.6572780013

> <CNNaffinity>
6.2762117386

> <CNN_VS>
4.1252160072

$$$$
HIPS6774


 35 38  0  0  0  0  0  0  0  0999 V2000
   90.7739   89.3900   89.7101 C   0  0  0  0  0  0  0  0  0  0  0  0
   92.1215   89.2705   89.3424 C   0  0  0  0  0  0  0  0  0  0  0  0
   92.7918   88.0698   89.5674 C   0  0  0  0  0  0  0  0  0  0  0  0
   92.1412   87.0261   90.1429 N   0  0  0  0  0  0  0  0  0  0  0  0
   90.8287   87.0951   90.5134 C   0  0  0  0  0  0  0  0  0  0  0  0
   90.1261   88.2987   90.3092 C   0  0  0  0  0  0  0  0  0  0  0  0
   90.2006   85.9106   91.1534 C   0  0  0  0  0  0  0  0  0  0  0  0
   90.8799   84.6803   91.2587 C   0  0  0  0  0  0  0  0  0  0  0  0
   90.2816   83.5956   91.9084 C   0  0  0  0  0  0  0  0  0  0  0  0
   89.0092   83.7245   92.4639 C   0  0  0  0  0  0  0  0  0  0  0  0
   88.3118   84.9364   92.3764 C   0  0  0  0  0  0  0  0  0  0  0  0
   88.9117   86.0218   91.7082 C   0  0  0  0  0  0  0  0  0  0  0  0
   87.0343   85.0188   92.9583 O   0  0  0  0  0  0  0  0  0  0  0  0
   85.8263   84.5653   92.3510 C   0  0  0  0  0  0  0  0  0  0  0  0
   85.4914   85.3917   91.1347 C   0  0  0  0  0  0  0  0  0  0  0  0
   84.9274   86.6723   91.2707 C   0  0  0  0  0  0  0  0  0  0  0  0
   84.6135   87.4284   90.1374 C   0  0  0  0  0  0  0  0  0  0  0  0
   84.8843   86.9213   88.8606 C   0  0  0  0  0  0  0  0  0  0  0  0
   85.4640   85.6547   88.7158 C   0  0  0  0  0  0  0  0  0  0  0  0
   85.8160   85.0284   87.1124 Cl  0  0  0  0  0  0  0  0  0  0  0  0
   85.7663   84.8908   89.8491 C   0  0  0  0  0  0  0  0  0  0  0  0
   90.0765   90.7139   89.5559 C   0  0  0  0  0  0  0  0  0  0  0  0
   89.7983   91.3169   90.8178 O   0  0  0  0  0  0  0  0  0  0  0  0
   87.0772   93.7682   90.2203 C   0  0  0  0  0  0  0  0  0  0  0  0
   87.9514   92.6771   90.0710 C   0  0  0  0  0  0  0  0  0  0  0  0
   88.9997   92.4570   90.9776 C   0  0  0  0  0  0  0  0  0  0  0  0
   89.2009   93.3683   92.0261 C   0  0  0  0  0  0  0  0  0  0  0  0
   88.3732   94.4802   92.1606 C   0  0  0  0  0  0  0  0  0  0  0  0
   87.3094   94.6908   91.2710 C   0  0  0  0  0  0  0  0  0  0  0  0
   86.4909   95.8084   91.4343 O   0  0  0  0  0  0  0  0  0  0  0  0
   86.6547   96.4111   92.1329 H   0  0  0  0  0  0  0  0  0  0  0  0
   84.7862   94.2464   89.7163 O   0  0  0  0  0  0  0  0  0  0  0  0
   85.9223   93.9086   89.2919 C   0  0  0  0  0  0  0  0  0  0  0  0
   86.0837   93.6377   87.9352 O   0  0  0  0  0  0  0  0  0  0  0  0
   86.9232   93.3851   87.6045 H   0  0  0  0  0  0  0  0  0  0  0  0
 32 33  2  0  0  0
 33 34  1  0  0  0
 33 24  1  0  0  0
 24 25  2  0  0  0
 25 26  1  0  0  0
 26 23  1  0  0  0
 23 22  1  0  0  0
 22  1  1  0  0  0
  1  2  2  0  0  0
  2  3  1  0  0  0
  3  4  2  0  0  0
  4  5  2  0  0  0
  5  7  1  0  0  0
  7  8  2  0  0  0
  8  9  1  0  0  0
  9 10  2  0  0  0
 10 11  1  0  0  0
 11 13  1  0  0  0
 13 14  1  0  0  0
 14 15  1  0  0  0
 15 16  2  0  0  0
 16 17  1  0  0  0
 17 18  2  0  0  0
 18 19  1  0  0  0
 19 20  1  0  0  0
 19 21  2  0  0  0
 11 12  2  0  0  0
  5  6  2  0  0  0
 26 27  2  0  0  0
 27 28  1  0  0  0
 28 29  2  0  0  0
 29 30  1  0  0  0
 29 24  1  0  0  0
  6  1  1  0  0  0
 12  7  1  0  0  0
 21 15  1  0  0  0
 34 35  1  0  0  0
 30 31  1  0  0  0
M  END
> <Activity>
15.2

> <minimizedAffinity>
-8.22620

> <CNNscore>
0.6470813155

> <CNNaffinity>
6.6067924500

> <CNN_VS>
4.2751321793

$$$$
HIPS6066


 34 37  0  0  0  0  0  0  0  0999 V2000
   88.3188   89.7866   90.1521 C   0  0  0  0  0  0  0  0  0  0  0  0
   87.4531   90.0329   89.0776 C   0  0  0  0  0  0  0  0  0  0  0  0
   86.4934   89.0860   88.7203 C   0  0  0  0  0  0  0  0  0  0  0  0
   86.3928   87.8854   89.4275 C   0  0  0  0  0  0  0  0  0  0  0  0
   87.2600   87.6161   90.4984 C   0  0  0  0  0  0  0  0  0  0  0  0
   88.2258   88.5728   90.8494 C   0  0  0  0  0  0  0  0  0  0  0  0
   87.1499   86.3474   91.2589 C   0  0  0  0  0  0  0  0  0  0  0  0
   85.9082   85.7036   91.3927 C   0  0  0  0  0  0  0  0  0  0  0  0
   85.8017   84.5225   92.1301 C   0  0  0  0  0  0  0  0  0  0  0  0
   86.9306   83.9677   92.7358 C   0  0  0  0  0  0  0  0  0  0  0  0
   88.1812   84.5797   92.5996 C   0  0  0  0  0  0  0  0  0  0  0  0
   88.2854   85.7782   91.8654 C   0  0  0  0  0  0  0  0  0  0  0  0
   89.2910   83.9596   93.1967 O   0  0  0  0  0  0  0  0  0  0  0  0
   89.7215   82.6205   92.9392 C   0  0  0  0  0  0  0  0  0  0  0  0
   90.4618   82.5311   91.6273 C   0  0  0  0  0  0  0  0  0  0  0  0
   90.4514   81.3388   90.8805 C   0  0  0  0  0  0  0  0  0  0  0  0
   91.1215   81.2688   89.6559 C   0  0  0  0  0  0  0  0  0  0  0  0
   91.8111   82.3839   89.1711 C   0  0  0  0  0  0  0  0  0  0  0  0
   91.8513   83.5636   89.9207 C   0  0  0  0  0  0  0  0  0  0  0  0
   91.1826   83.6386   91.1463 C   0  0  0  0  0  0  0  0  0  0  0  0
   89.3204   90.8231   90.5882 C   0  0  0  0  0  0  0  0  0  0  0  0
   89.0615   92.0666   89.9349 O   0  0  0  0  0  0  0  0  0  0  0  0
   86.3382   94.5600   90.3114 C   0  0  0  0  0  0  0  0  0  0  0  0
   87.1152   93.4829   89.8419 C   0  0  0  0  0  0  0  0  0  0  0  0
   88.3093   93.1225   90.4766 C   0  0  0  0  0  0  0  0  0  0  0  0
   88.7156   93.8242   91.6233 C   0  0  0  0  0  0  0  0  0  0  0  0
   87.9469   94.8838   92.1067 C   0  0  0  0  0  0  0  0  0  0  0  0
   86.7672   95.2656   91.4567 C   0  0  0  0  0  0  0  0  0  0  0  0
   86.0264   96.3390   91.9556 O   0  0  0  0  0  0  0  0  0  0  0  0
   86.3221   96.7990   92.7165 H   0  0  0  0  0  0  0  0  0  0  0  0
   84.8794   96.1472   89.2996 O   0  0  0  0  0  0  0  0  0  0  0  0
   85.1007   94.9408   89.5888 C   0  0  0  0  0  0  0  0  0  0  0  0
   84.1623   93.9774   89.2289 O   0  0  0  0  0  0  0  0  0  0  0  0
   84.3126   93.0762   89.4369 H   0  0  0  0  0  0  0  0  0  0  0  0
 31 32  2  0  0  0
 32 33  1  0  0  0
 32 23  1  0  0  0
 23 24  2  0  0  0
 24 25  1  0  0  0
 25 22  1  0  0  0
 22 21  1  0  0  0
 21  1  1  0  0  0
  1  2  2  0  0  0
  2  3  1  0  0  0
  3  4  2  0  0  0
  4  5  1  0  0  0
  5  7  1  0  0  0
  7  8  2  0  0  0
  8  9  1  0  0  0
  9 10  2  0  0  0
 10 11  1  0  0  0
 11 13  1  0  0  0
 13 14  1  0  0  0
 14 15  1  0  0  0
 15 16  2  0  0  0
 16 17  1  0  0  0
 17 18  2  0  0  0
 18 19  1  0  0  0
 19 20  2  0  0  0
 11 12  2  0  0  0
  5  6  2  0  0  0
 25 26  2  0  0  0
 26 27  1  0  0  0
 27 28  2  0  0  0
 28 29  1  0  0  0
 28 23  1  0  0  0
  6  1  1  0  0  0
 12  7  1  0  0  0
 20 15  1  0  0  0
 33 34  1  0  0  0
 29 30  1  0  0  0
M  END
> <Activity>
15.4

> <minimizedAffinity>
-8.48176

> <CNNscore>
0.6759898663

> <CNNaffinity>
6.0884876251

> <CNN_VS>
4.1157560349

$$$$
HIPS6066


 34 37  0  0  0  0  0  0  0  0999 V2000
   87.0324   89.5383   89.3193 C   0  0  0  0  0  0  0  0  0  0  0  0
   86.1945   89.4478   88.1994 C   0  0  0  0  0  0  0  0  0  0  0  0
   85.4761   88.2776   87.9551 C   0  0  0  0  0  0  0  0  0  0  0  0
   85.5915   87.1879   88.8217 C   0  0  0  0  0  0  0  0  0  0  0  0
   86.4359   87.2560   89.9413 C   0  0  0  0  0  0  0  0  0  0  0  0
   87.1585   88.4362   90.1782 C   0  0  0  0  0  0  0  0  0  0  0  0
   86.5534   86.1054   90.8700 C   0  0  0  0  0  0  0  0  0  0  0  0
   85.4756   85.2215   91.0476 C   0  0  0  0  0  0  0  0  0  0  0  0
   85.5791   84.1533   91.9411 C   0  0  0  0  0  0  0  0  0  0  0  0
   86.7577   83.9511   92.6615 C   0  0  0  0  0  0  0  0  0  0  0  0
   87.8512   84.8059   92.4864 C   0  0  0  0  0  0  0  0  0  0  0  0
   87.7415   85.8908   91.5935 C   0  0  0  0  0  0  0  0  0  0  0  0
   89.0261   84.5352   93.2069 O   0  0  0  0  0  0  0  0  0  0  0  0
   90.3546   84.7440   92.7209 C   0  0  0  0  0  0  0  0  0  0  0  0
   90.7381   83.6847   91.7169 C   0  0  0  0  0  0  0  0  0  0  0  0
   90.4658   82.3278   91.9701 C   0  0  0  0  0  0  0  0  0  0  0  0
   90.8044   81.3536   91.0269 C   0  0  0  0  0  0  0  0  0  0  0  0
   91.4218   81.7244   89.8288 C   0  0  0  0  0  0  0  0  0  0  0  0
   91.7227   83.0673   89.5818 C   0  0  0  0  0  0  0  0  0  0  0  0
   91.3861   84.0457   90.5222 C   0  0  0  0  0  0  0  0  0  0  0  0
   87.7686   90.8148   89.6300 C   0  0  0  0  0  0  0  0  0  0  0  0
   88.8828   90.5481   90.4828 O   0  0  0  0  0  0  0  0  0  0  0  0
   92.1303   90.2603   88.7091 C   0  0  0  0  0  0  0  0  0  0  0  0
   90.9094   90.7641   89.1987 C   0  0  0  0  0  0  0  0  0  0  0  0
   90.1101   90.0077   90.0634 C   0  0  0  0  0  0  0  0  0  0  0  0
   90.5554   88.7419   90.4780 C   0  0  0  0  0  0  0  0  0  0  0  0
   91.7701   88.2378   90.0115 C   0  0  0  0  0  0  0  0  0  0  0  0
   92.5578   88.9799   89.1233 C   0  0  0  0  0  0  0  0  0  0  0  0
   93.7618   88.4432   88.6624 O   0  0  0  0  0  0  0  0  0  0  0  0
   94.0340   87.5923   88.9450 H   0  0  0  0  0  0  0  0  0  0  0  0
   92.3598   91.8565   86.9568 O   0  0  0  0  0  0  0  0  0  0  0  0
   92.9307   91.0720   87.7610 C   0  0  0  0  0  0  0  0  0  0  0  0
   94.3192   90.9734   87.7366 O   0  0  0  0  0  0  0  0  0  0  0  0
   94.7582   90.3945   88.3284 H   0  0  0  0  0  0  0  0  0  0  0  0
 31 32  2  0  0  0
 32 33  1  0  0  0
 32 23  1  0  0  0
 23 24  2  0  0  0
 24 25  1  0  0  0
 25 22  1  0  0  0
 22 21  1  0  0  0
 21  1  1  0  0  0
  1  2  2  0  0  0
  2  3  1  0  0  0
  3  4  2  0  0  0
  4  5  1  0  0  0
  5  7  1  0  0  0
  7  8  2  0  0  0
  8  9  1  0  0  0
  9 10  2  0  0  0
 10 11  1  0  0  0
 11 13  1  0  0  0
 13 14  1  0  0  0
 14 15  1  0  0  0
 15 16  2  0  0  0
 16 17  1  0  0  0
 17 18  2  0  0  0
 18 19  1  0  0  0
 19 20  2  0  0  0
 11 12  2  0  0  0
  5  6  2  0  0  0
 25 26  2  0  0  0
 26 27  1  0  0  0
 27 28  2  0  0  0
 28 29  1  0  0  0
 28 23  1  0  0  0
  6  1  1  0  0  0
 12  7  1  0  0  0
 20 15  1  0  0  0
 33 34  1  0  0  0
 29 30  1  0  0  0
M  END
> <Activity>
15.4

> <minimizedAffinity>
-9.80612

> <CNNscore>
0.6622446775

> <CNNaffinity>
6.6038160324

> <CNN_VS>
4.3733420372

$$$$
HIPS6066


 34 37  0  0  0  0  0  0  0  0999 V2000
   90.3133   91.8668   91.5382 C   0  0  0  0  0  0  0  0  0  0  0  0
   91.5809   91.2696   91.5663 C   0  0  0  0  0  0  0  0  0  0  0  0
   91.7547   89.9723   91.0846 C   0  0  0  0  0  0  0  0  0  0  0  0
   90.6661   89.2592   90.5766 C   0  0  0  0  0  0  0  0  0  0  0  0
   89.3865   89.8368   90.5524 C   0  0  0  0  0  0  0  0  0  0  0  0
   89.2193   91.1417   91.0425 C   0  0  0  0  0  0  0  0  0  0  0  0
   88.2298   89.0875   90.0040 C   0  0  0  0  0  0  0  0  0  0  0  0
   87.8059   89.3015   88.6816 C   0  0  0  0  0  0  0  0  0  0  0  0
   86.7012   88.6136   88.1748 C   0  0  0  0  0  0  0  0  0  0  0  0
   86.0121   87.7022   88.9769 C   0  0  0  0  0  0  0  0  0  0  0  0
   86.4279   87.4575   90.2900 C   0  0  0  0  0  0  0  0  0  0  0  0
   87.5353   88.1612   90.8044 C   0  0  0  0  0  0  0  0  0  0  0  0
   85.7231   86.5028   91.0414 O   0  0  0  0  0  0  0  0  0  0  0  0
   86.1010   85.1316   91.1898 C   0  0  0  0  0  0  0  0  0  0  0  0
   87.5400   85.0094   91.6273 C   0  0  0  0  0  0  0  0  0  0  0  0
   88.5634   84.8348   90.6778 C   0  0  0  0  0  0  0  0  0  0  0  0
   89.8965   84.7434   91.0877 C   0  0  0  0  0  0  0  0  0  0  0  0
   90.2175   84.8192   92.4461 C   0  0  0  0  0  0  0  0  0  0  0  0
   89.2041   84.9631   93.3987 C   0  0  0  0  0  0  0  0  0  0  0  0
   87.8690   85.0549   92.9938 C   0  0  0  0  0  0  0  0  0  0  0  0
   90.1201   93.2874   91.9991 C   0  0  0  0  0  0  0  0  0  0  0  0
   89.1914   93.3336   93.0832 O   0  0  0  0  0  0  0  0  0  0  0  0
   86.9826   96.2213   92.3363 C   0  0  0  0  0  0  0  0  0  0  0  0
   87.9188   95.1779   92.1988 C   0  0  0  0  0  0  0  0  0  0  0  0
   88.2170   94.3284   93.2704 C   0  0  0  0  0  0  0  0  0  0  0  0
   87.5403   94.4984   94.4893 C   0  0  0  0  0  0  0  0  0  0  0  0
   86.6000   95.5193   94.6335 C   0  0  0  0  0  0  0  0  0  0  0  0
   86.3212   96.3891   93.5725 C   0  0  0  0  0  0  0  0  0  0  0  0
   85.3855   97.4102   93.7511 O   0  0  0  0  0  0  0  0  0  0  0  0
   84.9536   97.5107   94.5766 H   0  0  0  0  0  0  0  0  0  0  0  0
   85.5528   97.5304   90.9532 O   0  0  0  0  0  0  0  0  0  0  0  0
   86.7230   97.1285   91.1927 C   0  0  0  0  0  0  0  0  0  0  0  0
   87.7615   97.5410   90.3622 O   0  0  0  0  0  0  0  0  0  0  0  0
   88.6369   97.2507   90.5273 H   0  0  0  0  0  0  0  0  0  0  0  0
 31 32  2  0  0  0
 32 33  1  0  0  0
 32 23  1  0  0  0
 23 24  2  0  0  0
 24 25  1  0  0  0
 25 22  1  0  0  0
 22 21  1  0  0  0
 21  1  1  0  0  0
  1  2  2  0  0  0
  2  3  1  0  0  0
  3  4  2  0  0  0
  4  5  1  0  0  0
  5  7  1  0  0  0
  7  8  2  0  0  0
  8  9  1  0  0  0
  9 10  2  0  0  0
 10 11  1  0  0  0
 11 13  1  0  0  0
 13 14  1  0  0  0
 14 15  1  0  0  0
 15 16  2  0  0  0
 16 17  1  0  0  0
 17 18  2  0  0  0
 18 19  1  0  0  0
 19 20  2  0  0  0
 11 12  2  0  0  0
  5  6  2  0  0  0
 25 26  2  0  0  0
 26 27  1  0  0  0
 27 28  2  0  0  0
 28 29  1  0  0  0
 28 23  1  0  0  0
  6  1  1  0  0  0
 12  7  1  0  0  0
 20 15  1  0  0  0
 33 34  1  0  0  0
 29 30  1  0  0  0
M  END
> <Activity>
15.4

> <minimizedAffinity>
-8.24603

> <CNNscore>
0.6382052898

> <CNNaffinity>
6.0782365799

> <CNN_VS>
3.8791627884

$$$$
HIPS6134


 35 38  0  0  0  0  0  0  0  0999 V2000
   91.8343   88.8130   89.7239 C   0  0  0  0  0  0  0  0  0  0  0  0
   90.8868   89.5411   88.9900 C   0  0  0  0  0  0  0  0  0  0  0  0
   89.5421   89.1660   89.0121 C   0  0  0  0  0  0  0  0  0  0  0  0
   89.1316   88.0598   89.7608 C   0  0  0  0  0  0  0  0  0  0  0  0
   90.0687   87.3123   90.4942 C   0  0  0  0  0  0  0  0  0  0  0  0
   91.4169   87.7069   90.4817 C   0  0  0  0  0  0  0  0  0  0  0  0
   89.6469   86.1279   91.2807 C   0  0  0  0  0  0  0  0  0  0  0  0
   90.6025   85.2045   91.7386 C   0  0  0  0  0  0  0  0  0  0  0  0
   90.2089   84.0999   92.4971 C   0  0  0  0  0  0  0  0  0  0  0  0
   88.8639   83.9144   92.8210 C   0  0  0  0  0  0  0  0  0  0  0  0
   87.8963   84.8255   92.3838 C   0  0  0  0  0  0  0  0  0  0  0  0
   88.2923   85.9243   91.5957 C   0  0  0  0  0  0  0  0  0  0  0  0
   86.5614   84.6029   92.7577 O   0  0  0  0  0  0  0  0  0  0  0  0
   85.4712   85.4916   92.5079 C   0  0  0  0  0  0  0  0  0  0  0  0
   85.4744   85.9592   91.0767 C   0  0  0  0  0  0  0  0  0  0  0  0
   85.3976   87.3305   90.7854 C   0  0  0  0  0  0  0  0  0  0  0  0
   85.3954   87.7704   89.4581 C   0  0  0  0  0  0  0  0  0  0  0  0
   85.4667   86.8462   88.4132 C   0  0  0  0  0  0  0  0  0  0  0  0
   85.5363   85.4774   88.6932 C   0  0  0  0  0  0  0  0  0  0  0  0
   85.6287   84.3160   87.3812 Cl  0  0  0  0  0  0  0  0  0  0  0  0
   85.5343   85.0335   90.0205 C   0  0  0  0  0  0  0  0  0  0  0  0
   93.2762   89.2464   89.7421 C   0  0  0  0  0  0  0  0  0  0  0  0
   93.5307   90.1670   90.8060 O   0  0  0  0  0  0  0  0  0  0  0  0
   92.5622   93.7671   90.4519 C   0  0  0  0  0  0  0  0  0  0  0  0
   93.2051   92.5400   90.2137 C   0  0  0  0  0  0  0  0  0  0  0  0
   92.8876   91.4021   90.9800 C   0  0  0  0  0  0  0  0  0  0  0  0
   91.9071   91.5009   91.9717 C   0  0  0  0  0  0  0  0  0  0  0  0
   91.2720   92.7185   92.2226 C   0  0  0  0  0  0  0  0  0  0  0  0
   91.5848   93.8515   91.4639 C   0  0  0  0  0  0  0  0  0  0  0  0
   90.8917   95.0358   91.7280 O   0  0  0  0  0  0  0  0  0  0  0  0
   90.2474   95.0600   92.4078 H   0  0  0  0  0  0  0  0  0  0  0  0
   93.0125   94.7948   88.3582 O   0  0  0  0  0  0  0  0  0  0  0  0
   92.8995   94.9245   89.6067 C   0  0  0  0  0  0  0  0  0  0  0  0
   93.1356   96.1578   90.2009 O   0  0  0  0  0  0  0  0  0  0  0  0
   93.0517   96.2543   91.1291 H   0  0  0  0  0  0  0  0  0  0  0  0
 32 33  2  0  0  0
 33 34  1  0  0  0
 33 24  1  0  0  0
 24 25  2  0  0  0
 25 26  1  0  0  0
 26 23  1  0  0  0
 23 22  1  0  0  0
 22  1  1  0  0  0
  1  2  2  0  0  0
  2  3  1  0  0  0
  3  4  2  0  0  0
  4  5  1  0  0  0
  5  7  1  0  0  0
  7  8  2  0  0  0
  8  9  1  0  0  0
  9 10  2  0  0  0
 10 11  1  0  0  0
 11 13  1  0  0  0
 13 14  1  0  0  0
 14 15  1  0  0  0
 15 16  2  0  0  0
 16 17  1  0  0  0
 17 18  2  0  0  0
 18 19  1  0  0  0
 19 20  1  0  0  0
 19 21  2  0  0  0
 11 12  2  0  0  0
  5  6  2  0  0  0
 26 27  2  0  0  0
 27 28  1  0  0  0
 28 29  2  0  0  0
 29 30  1  0  0  0
 29 24  1  0  0  0
  6  1  1  0  0  0
 12  7  1  0  0  0
 21 15  1  0  0  0
 34 35  1  0  0  0
 30 31  1  0  0  0
M  END
> <Activity>
16.0

> <minimizedAffinity>
-8.60744

> <CNNscore>
0.6721432209

> <CNNaffinity>
6.6251029968

> <CNN_VS>
4.4530181885

$$$$
HIPS6134


 35 38  0  0  0  0  0  0  0  0999 V2000
   90.1223   88.4662   90.2241 C   0  0  0  0  0  0  0  0  0  0  0  0
   91.4008   87.9034   90.3460 C   0  0  0  0  0  0  0  0  0  0  0  0
   92.5330   88.7201   90.3211 C   0  0  0  0  0  0  0  0  0  0  0  0
   92.4008   90.1029   90.1689 C   0  0  0  0  0  0  0  0  0  0  0  0
   91.1280   90.6833   90.0350 C   0  0  0  0  0  0  0  0  0  0  0  0
   89.9928   89.8570   90.0796 C   0  0  0  0  0  0  0  0  0  0  0  0
   90.9763   92.1480   89.8586 C   0  0  0  0  0  0  0  0  0  0  0  0
   92.0839   92.9372   89.5038 C   0  0  0  0  0  0  0  0  0  0  0  0
   91.9382   94.3136   89.3170 C   0  0  0  0  0  0  0  0  0  0  0  0
   90.6862   94.9130   89.4644 C   0  0  0  0  0  0  0  0  0  0  0  0
   89.5679   94.1458   89.8083 C   0  0  0  0  0  0  0  0  0  0  0  0
   89.7227   92.7619   90.0229 C   0  0  0  0  0  0  0  0  0  0  0  0
   88.3288   94.7963   89.9209 O   0  0  0  0  0  0  0  0  0  0  0  0
   88.1021   96.0382   90.5894 C   0  0  0  0  0  0  0  0  0  0  0  0
   87.9652   95.8333   92.0748 C   0  0  0  0  0  0  0  0  0  0  0  0
   88.9789   96.2730   92.9410 C   0  0  0  0  0  0  0  0  0  0  0  0
   88.8596   96.0812   94.3210 C   0  0  0  0  0  0  0  0  0  0  0  0
   87.7308   95.4473   94.8455 C   0  0  0  0  0  0  0  0  0  0  0  0
   86.7189   94.9992   93.9899 C   0  0  0  0  0  0  0  0  0  0  0  0
   85.2993   94.2054   94.6484 Cl  0  0  0  0  0  0  0  0  0  0  0  0
   86.8372   95.1858   92.6079 C   0  0  0  0  0  0  0  0  0  0  0  0
   88.8982   87.5928   90.3020 C   0  0  0  0  0  0  0  0  0  0  0  0
   88.8047   86.9379   91.5696 O   0  0  0  0  0  0  0  0  0  0  0  0
   90.4120   83.5656   91.3083 C   0  0  0  0  0  0  0  0  0  0  0  0
   90.1125   84.9130   91.0426 C   0  0  0  0  0  0  0  0  0  0  0  0
   89.1658   85.6055   91.8218 C   0  0  0  0  0  0  0  0  0  0  0  0
   88.5385   84.9416   92.8802 C   0  0  0  0  0  0  0  0  0  0  0  0
   88.8216   83.6002   93.1437 C   0  0  0  0  0  0  0  0  0  0  0  0
   89.7611   82.9085   92.3718 C   0  0  0  0  0  0  0  0  0  0  0  0
   90.0379   81.5792   92.7020 O   0  0  0  0  0  0  0  0  0  0  0  0
   89.5881   81.1701   93.4150 H   0  0  0  0  0  0  0  0  0  0  0  0
   91.3361   81.6565   90.2388 O   0  0  0  0  0  0  0  0  0  0  0  0
   91.4318   82.8876   90.4910 C   0  0  0  0  0  0  0  0  0  0  0  0
   92.5282   83.6070   90.0327 O   0  0  0  0  0  0  0  0  0  0  0  0
   92.5995   84.5223   90.2201 H   0  0  0  0  0  0  0  0  0  0  0  0
 32 33  2  0  0  0
 33 34  1  0  0  0
 33 24  1  0  0  0
 24 25  2  0  0  0
 25 26  1  0  0  0
 26 23  1  0  0  0
 23 22  1  0  0  0
 22  1  1  0  0  0
  1  2  2  0  0  0
  2  3  1  0  0  0
  3  4  2  0  0  0
  4  5  1  0  0  0
  5  7  1  0  0  0
  7  8  2  0  0  0
  8  9  1  0  0  0
  9 10  2  0  0  0
 10 11  1  0  0  0
 11 13  1  0  0  0
 13 14  1  0  0  0
 14 15  1  0  0  0
 15 16  2  0  0  0
 16 17  1  0  0  0
 17 18  2  0  0  0
 18 19  1  0  0  0
 19 20  1  0  0  0
 19 21  2  0  0  0
 11 12  2  0  0  0
  5  6  2  0  0  0
 26 27  2  0  0  0
 27 28  1  0  0  0
 28 29  2  0  0  0
 29 30  1  0  0  0
 29 24  1  0  0  0
  6  1  1  0  0  0
 12  7  1  0  0  0
 21 15  1  0  0  0
 34 35  1  0  0  0
 30 31  1  0  0  0
M  END
> <Activity>
16.0

> <minimizedAffinity>
-8.18924

> <CNNscore>
0.6370509267

> <CNNaffinity>
6.2515201569

> <CNN_VS>
3.9825367928

$$$$
HIPS6134


 35 38  0  0  0  0  0  0  0  0999 V2000
   90.4033   90.5188   90.1596 C   0  0  0  0  0  0  0  0  0  0  0  0
   91.6135   89.9400   89.7511 C   0  0  0  0  0  0  0  0  0  0  0  0
   91.7714   88.5529   89.7735 C   0  0  0  0  0  0  0  0  0  0  0  0
   90.7274   87.7321   90.2082 C   0  0  0  0  0  0  0  0  0  0  0  0
   89.5113   88.2951   90.6309 C   0  0  0  0  0  0  0  0  0  0  0  0
   89.3535   89.6904   90.5880 C   0  0  0  0  0  0  0  0  0  0  0  0
   88.4015   87.4347   91.1078 C   0  0  0  0  0  0  0  0  0  0  0  0
   87.0665   87.8364   90.9290 C   0  0  0  0  0  0  0  0  0  0  0  0
   86.0200   87.0175   91.3589 C   0  0  0  0  0  0  0  0  0  0  0  0
   86.2928   85.7847   91.9541 C   0  0  0  0  0  0  0  0  0  0  0  0
   87.6137   85.3602   92.1341 C   0  0  0  0  0  0  0  0  0  0  0  0
   88.6682   86.2001   91.7244 C   0  0  0  0  0  0  0  0  0  0  0  0
   87.8302   84.1015   92.7173 O   0  0  0  0  0  0  0  0  0  0  0  0
   89.0702   83.6392   93.2552 C   0  0  0  0  0  0  0  0  0  0  0  0
   89.9477   83.0690   92.1727 C   0  0  0  0  0  0  0  0  0  0  0  0
   90.0346   81.6786   91.9983 C   0  0  0  0  0  0  0  0  0  0  0  0
   90.8516   81.1431   90.9977 C   0  0  0  0  0  0  0  0  0  0  0  0
   91.5891   81.9900   90.1671 C   0  0  0  0  0  0  0  0  0  0  0  0
   91.5147   83.3764   90.3378 C   0  0  0  0  0  0  0  0  0  0  0  0
   92.4387   84.4409   89.2929 Cl  0  0  0  0  0  0  0  0  0  0  0  0
   90.7013   83.9154   91.3411 C   0  0  0  0  0  0  0  0  0  0  0  0
   90.2135   92.0108   90.0878 C   0  0  0  0  0  0  0  0  0  0  0  0
   91.4370   92.7051   90.3431 O   0  0  0  0  0  0  0  0  0  0  0  0
   94.7421   93.3788   88.7165 C   0  0  0  0  0  0  0  0  0  0  0  0
   93.7941   93.0517   89.7014 C   0  0  0  0  0  0  0  0  0  0  0  0
   92.4233   92.9878   89.3857 C   0  0  0  0  0  0  0  0  0  0  0  0
   92.0149   93.2345   88.0717 C   0  0  0  0  0  0  0  0  0  0  0  0
   92.9486   93.5713   87.0899 C   0  0  0  0  0  0  0  0  0  0  0  0
   94.3113   93.6364   87.3994 C   0  0  0  0  0  0  0  0  0  0  0  0
   95.2088   93.9383   86.3717 O   0  0  0  0  0  0  0  0  0  0  0  0
   94.8911   94.1048   85.5061 H   0  0  0  0  0  0  0  0  0  0  0  0
   96.9549   94.2237   88.5356 O   0  0  0  0  0  0  0  0  0  0  0  0
   96.1686   93.4029   89.0801 C   0  0  0  0  0  0  0  0  0  0  0  0
   96.6538   92.4825   90.0005 O   0  0  0  0  0  0  0  0  0  0  0  0
   96.0694   91.8722   90.4055 H   0  0  0  0  0  0  0  0  0  0  0  0
 32 33  2  0  0  0
 33 34  1  0  0  0
 33 24  1  0  0  0
 24 25  2  0  0  0
 25 26  1  0  0  0
 26 23  1  0  0  0
 23 22  1  0  0  0
 22  1  1  0  0  0
  1  2  2  0  0  0
  2  3  1  0  0  0
  3  4  2  0  0  0
  4  5  1  0  0  0
  5  7  1  0  0  0
  7  8  2  0  0  0
  8  9  1  0  0  0
  9 10  2  0  0  0
 10 11  1  0  0  0
 11 13  1  0  0  0
 13 14  1  0  0  0
 14 15  1  0  0  0
 15 16  2  0  0  0
 16 17  1  0  0  0
 17 18  2  0  0  0
 18 19  1  0  0  0
 19 20  1  0  0  0
 19 21  2  0  0  0
 11 12  2  0  0  0
  5  6  2  0  0  0
 26 27  2  0  0  0
 27 28  1  0  0  0
 28 29  2  0  0  0
 29 30  1  0  0  0
 29 24  1  0  0  0
  6  1  1  0  0  0
 12  7  1  0  0  0
 21 15  1  0  0  0
 34 35  1  0  0  0
 30 31  1  0  0  0
M  END
> <Activity>
16.0

> <minimizedAffinity>
-8.92550

> <CNNscore>
0.6173619032

> <CNNaffinity>
6.4555873871

> <CNN_VS>
3.9854338169

$$$$
HIPS6546


 35 37  0  0  0  0  0  0  0  0999 V2000
   89.7770   86.0823   91.3042 C   0  0  0  0  0  0  0  0  0  0  0  0
   90.5833   85.0097   91.7246 C   0  0  0  0  0  0  0  0  0  0  0  0
   90.0189   83.9190   92.3899 C   0  0  0  0  0  0  0  0  0  0  0  0
   88.6462   83.8824   92.6406 C   0  0  0  0  0  0  0  0  0  0  0  0
   87.8226   84.9367   92.2186 C   0  0  0  0  0  0  0  0  0  0  0  0
   88.3950   86.0396   91.5643 C   0  0  0  0  0  0  0  0  0  0  0  0
   91.5087   89.4401   89.2484 C   0  0  0  0  0  0  0  0  0  0  0  0
   90.1169   89.2990   89.3187 C   0  0  0  0  0  0  0  0  0  0  0  0
   89.5530   88.2079   89.9860 C   0  0  0  0  0  0  0  0  0  0  0  0
   90.3741   87.2414   90.5944 C   0  0  0  0  0  0  0  0  0  0  0  0
   91.7708   87.3929   90.5233 C   0  0  0  0  0  0  0  0  0  0  0  0
   92.3318   88.4863   89.8577 C   0  0  0  0  0  0  0  0  0  0  0  0
   92.2322   90.8263   88.4352 S   0  0  0  0  0  0  0  0  0  0  0  0
   92.1762   90.6512   86.9419 O   0  0  0  0  0  0  0  0  0  0  0  0
   93.6751   90.9208   88.8434 O   0  0  0  0  0  0  0  0  0  0  0  0
   91.4420   92.2568   88.8845 O   0  0  0  0  0  0  0  0  0  0  0  0
   92.1308   92.8344   89.9710 C   0  0  0  0  0  0  0  0  0  0  0  0
   91.3591   94.1199   92.0110 C   0  0  0  0  0  0  0  0  0  0  0  0
   91.2596   92.7831   91.2483 C   0  0  0  0  0  0  0  0  0  0  0  0
   91.7291   91.6324   92.1618 C   0  0  0  0  0  0  0  0  0  0  0  0
   89.7909   92.5402   90.8479 C   0  0  0  0  0  0  0  0  0  0  0  0
   86.3428   84.9075   92.5010 C   0  0  0  0  0  0  0  0  0  0  0  0
   85.6014   84.5973   91.3199 O   0  0  0  0  0  0  0  0  0  0  0  0
   85.4134   85.4614   90.2282 C   0  0  0  0  0  0  0  0  0  0  0  0
   84.8804   86.7281   90.4752 C   0  0  0  0  0  0  0  0  0  0  0  0
   84.6943   87.6345   89.4318 C   0  0  0  0  0  0  0  0  0  0  0  0
   85.0391   87.2934   88.1200 C   0  0  0  0  0  0  0  0  0  0  0  0
   84.9036   88.2765   87.1372 O   0  0  0  0  0  0  0  0  0  0  0  0
   85.5385   85.9961   87.8423 C   0  0  0  0  0  0  0  0  0  0  0  0
   85.7356   85.0982   88.9074 C   0  0  0  0  0  0  0  0  0  0  0  0
   84.5689   89.1219   87.3632 H   0  0  0  0  0  0  0  0  0  0  0  0
   85.8362   85.5308   86.4697 C   0  0  0  0  0  0  0  0  0  0  0  0
   85.5284   84.3653   86.1029 O   0  0  0  0  0  0  0  0  0  0  0  0
   86.5178   86.3660   85.5882 O   0  0  0  0  0  0  0  0  0  0  0  0
   86.7512   87.2344   85.8514 H   0  0  0  0  0  0  0  0  0  0  0  0
 18 19  1  0  0  0
 19 20  1  0  0  0
 19 21  1  0  0  0
 19 17  1  0  0  0
 17 16  1  0  0  0
 16 13  1  0  0  0
 13 14  2  0  0  0
 13 15  2  0  0  0
 13  7  1  0  0  0
  7  8  2  0  0  0
  8  9  1  0  0  0
  9 10  2  0  0  0
 10  1  1  0  0  0
  1  2  2  0  0  0
  2  3  1  0  0  0
  3  4  2  0  0  0
  4  5  1  0  0  0
  5 22  1  0  0  0
 22 23  1  0  0  0
 23 24  1  0  0  0
 24 25  2  0  0  0
 25 26  1  0  0  0
 26 27  2  0  0  0
 27 28  1  0  0  0
 27 29  1  0  0  0
 29 32  1  0  0  0
 32 33  2  0  0  0
 32 34  1  0  0  0
 29 30  2  0  0  0
  5  6  2  0  0  0
 10 11  1  0  0  0
 11 12  2  0  0  0
 12  7  1  0  0  0
  6  1  1  0  0  0
 30 24  1  0  0  0
 28 31  1  0  0  0
 34 35  1  0  0  0
M  END
> <Activity>
17.1

> <minimizedAffinity>
-9.04667

> <CNNscore>
0.4720764160

> <CNNaffinity>
6.3601541519

> <CNN_VS>
3.0024788380

$$$$
HIPS6546


 35 37  0  0  0  0  0  0  0  0999 V2000
   84.2950   92.6946   87.9314 C   0  0  0  0  0  0  0  0  0  0  0  0
   83.2855   93.3343   87.1905 C   0  0  0  0  0  0  0  0  0  0  0  0
   83.1341   94.7214   87.2520 C   0  0  0  0  0  0  0  0  0  0  0  0
   83.9875   95.4868   88.0486 C   0  0  0  0  0  0  0  0  0  0  0  0
   85.0087   94.8691   88.7861 C   0  0  0  0  0  0  0  0  0  0  0  0
   85.1484   93.4728   88.7350 C   0  0  0  0  0  0  0  0  0  0  0  0
   84.7706   88.4242   87.7406 C   0  0  0  0  0  0  0  0  0  0  0  0
   85.8962   89.2570   87.7770 C   0  0  0  0  0  0  0  0  0  0  0  0
   85.7429   90.6450   87.8385 C   0  0  0  0  0  0  0  0  0  0  0  0
   84.4598   91.2208   87.8654 C   0  0  0  0  0  0  0  0  0  0  0  0
   83.3346   90.3772   87.8332 C   0  0  0  0  0  0  0  0  0  0  0  0
   83.4909   88.9896   87.7745 C   0  0  0  0  0  0  0  0  0  0  0  0
   84.9498   86.6714   87.6923 S   0  0  0  0  0  0  0  0  0  0  0  0
   86.1825   86.2875   86.9199 O   0  0  0  0  0  0  0  0  0  0  0  0
   83.7556   86.0876   86.9918 O   0  0  0  0  0  0  0  0  0  0  0  0
   85.0254   86.0392   89.2630 O   0  0  0  0  0  0  0  0  0  0  0  0
   86.3752   85.9868   89.6674 C   0  0  0  0  0  0  0  0  0  0  0  0
   87.4987   85.8301   91.9307 C   0  0  0  0  0  0  0  0  0  0  0  0
   86.5501   86.6651   91.0467 C   0  0  0  0  0  0  0  0  0  0  0  0
   85.1817   86.8018   91.7451 C   0  0  0  0  0  0  0  0  0  0  0  0
   87.1547   88.0687   90.8456 C   0  0  0  0  0  0  0  0  0  0  0  0
   85.9220   95.6907   89.6587 C   0  0  0  0  0  0  0  0  0  0  0  0
   86.5324   94.8825   90.6661 O   0  0  0  0  0  0  0  0  0  0  0  0
   86.6073   95.2047   92.0314 C   0  0  0  0  0  0  0  0  0  0  0  0
   85.5416   94.8353   92.8546 C   0  0  0  0  0  0  0  0  0  0  0  0
   85.5738   95.1095   94.2216 C   0  0  0  0  0  0  0  0  0  0  0  0
   86.6733   95.7572   94.7939 C   0  0  0  0  0  0  0  0  0  0  0  0
   86.6768   95.9269   96.1803 O   0  0  0  0  0  0  0  0  0  0  0  0
   87.7442   96.1810   93.9675 C   0  0  0  0  0  0  0  0  0  0  0  0
   87.7048   95.8833   92.5930 C   0  0  0  0  0  0  0  0  0  0  0  0
   85.9480   95.6322   96.6902 H   0  0  0  0  0  0  0  0  0  0  0  0
   88.8957   96.9533   94.4842 C   0  0  0  0  0  0  0  0  0  0  0  0
   88.8321   97.5381   95.5984 O   0  0  0  0  0  0  0  0  0  0  0  0
   90.0433   97.0884   93.7072 O   0  0  0  0  0  0  0  0  0  0  0  0
   90.1005   96.6575   92.8771 H   0  0  0  0  0  0  0  0  0  0  0  0
 18 19  1  0  0  0
 19 20  1  0  0  0
 19 21  1  0  0  0
 19 17  1  0  0  0
 17 16  1  0  0  0
 16 13  1  0  0  0
 13 14  2  0  0  0
 13 15  2  0  0  0
 13  7  1  0  0  0
  7  8  2  0  0  0
  8  9  1  0  0  0
  9 10  2  0  0  0
 10  1  1  0  0  0
  1  2  2  0  0  0
  2  3  1  0  0  0
  3  4  2  0  0  0
  4  5  1  0  0  0
  5 22  1  0  0  0
 22 23  1  0  0  0
 23 24  1  0  0  0
 24 25  2  0  0  0
 25 26  1  0  0  0
 26 27  2  0  0  0
 27 28  1  0  0  0
 27 29  1  0  0  0
 29 32  1  0  0  0
 32 33  2  0  0  0
 32 34  1  0  0  0
 29 30  2  0  0  0
  5  6  2  0  0  0
 10 11  1  0  0  0
 11 12  2  0  0  0
 12  7  1  0  0  0
  6  1  1  0  0  0
 30 24  1  0  0  0
 28 31  1  0  0  0
 34 35  1  0  0  0
M  END
> <Activity>
17.1

> <minimizedAffinity>
-6.88464

> <CNNscore>
0.4537876248

> <CNNaffinity>
5.8959894180

> <CNN_VS>
2.6755270958

$$$$
HIPS6546


 35 37  0  0  0  0  0  0  0  0999 V2000
   89.8695   86.1061   91.2149 C   0  0  0  0  0  0  0  0  0  0  0  0
   90.6724   84.9905   91.5112 C   0  0  0  0  0  0  0  0  0  0  0  0
   90.1164   83.8580   92.1104 C   0  0  0  0  0  0  0  0  0  0  0  0
   88.7552   83.8223   92.4177 C   0  0  0  0  0  0  0  0  0  0  0  0
   87.9345   84.9202   92.1192 C   0  0  0  0  0  0  0  0  0  0  0  0
   88.4993   86.0637   91.5315 C   0  0  0  0  0  0  0  0  0  0  0  0
   91.5713   89.5943   89.3614 C   0  0  0  0  0  0  0  0  0  0  0  0
   92.4046   88.5899   89.8700 C   0  0  0  0  0  0  0  0  0  0  0  0
   91.8527   87.4562   90.4731 C   0  0  0  0  0  0  0  0  0  0  0  0
   90.4575   87.3098   90.5754 C   0  0  0  0  0  0  0  0  0  0  0  0
   89.6275   88.3209   90.0578 C   0  0  0  0  0  0  0  0  0  0  0  0
   90.1821   89.4522   89.4529 C   0  0  0  0  0  0  0  0  0  0  0  0
   92.2537   91.0152   88.5726 S   0  0  0  0  0  0  0  0  0  0  0  0
   92.3149   90.8142   87.0829 O   0  0  0  0  0  0  0  0  0  0  0  0
   93.6545   91.2160   89.0776 O   0  0  0  0  0  0  0  0  0  0  0  0
   91.3379   92.3938   88.9379 O   0  0  0  0  0  0  0  0  0  0  0  0
   91.9619   93.0868   89.9955 C   0  0  0  0  0  0  0  0  0  0  0  0
   91.5765   91.8350   92.1621 C   0  0  0  0  0  0  0  0  0  0  0  0
   91.0984   93.0036   91.2764 C   0  0  0  0  0  0  0  0  0  0  0  0
   89.6170   92.7939   90.9018 C   0  0  0  0  0  0  0  0  0  0  0  0
   91.2363   94.3215   92.0642 C   0  0  0  0  0  0  0  0  0  0  0  0
   86.4679   84.8908   92.4634 C   0  0  0  0  0  0  0  0  0  0  0  0
   85.6771   84.5885   91.3127 O   0  0  0  0  0  0  0  0  0  0  0  0
   85.4594   85.4525   90.2265 C   0  0  0  0  0  0  0  0  0  0  0  0
   84.9039   86.7073   90.4843 C   0  0  0  0  0  0  0  0  0  0  0  0
   84.6879   87.6136   89.4465 C   0  0  0  0  0  0  0  0  0  0  0  0
   85.0246   87.2841   88.1296 C   0  0  0  0  0  0  0  0  0  0  0  0
   84.8583   88.2678   87.1521 O   0  0  0  0  0  0  0  0  0  0  0  0
   85.5467   85.9982   87.8414 C   0  0  0  0  0  0  0  0  0  0  0  0
   85.7738   85.1006   88.9008 C   0  0  0  0  0  0  0  0  0  0  0  0
   84.5093   89.1056   87.3851 H   0  0  0  0  0  0  0  0  0  0  0  0
   85.8382   85.5439   86.4638 C   0  0  0  0  0  0  0  0  0  0  0  0
   85.5404   84.3770   86.0930 O   0  0  0  0  0  0  0  0  0  0  0  0
   86.5031   86.3915   85.5814 O   0  0  0  0  0  0  0  0  0  0  0  0
   86.7290   87.2610   85.8475 H   0  0  0  0  0  0  0  0  0  0  0  0
 18 19  1  0  0  0
 19 20  1  0  0  0
 19 21  1  0  0  0
 19 17  1  0  0  0
 17 16  1  0  0  0
 16 13  1  0  0  0
 13 14  2  0  0  0
 13 15  2  0  0  0
 13  7  1  0  0  0
  7  8  2  0  0  0
  8  9  1  0  0  0
  9 10  2  0  0  0
 10  1  1  0  0  0
  1  2  2  0  0  0
  2  3  1  0  0  0
  3  4  2  0  0  0
  4  5  1  0  0  0
  5 22  1  0  0  0
 22 23  1  0  0  0
 23 24  1  0  0  0
 24 25  2  0  0  0
 25 26  1  0  0  0
 26 27  2  0  0  0
 27 28  1  0  0  0
 27 29  1  0  0  0
 29 32  1  0  0  0
 32 33  2  0  0  0
 32 34  1  0  0  0
 29 30  2  0  0  0
  5  6  2  0  0  0
 10 11  1  0  0  0
 11 12  2  0  0  0
 12  7  1  0  0  0
  6  1  1  0  0  0
 30 24  1  0  0  0
 28 31  1  0  0  0
 34 35  1  0  0  0
M  END
> <Activity>
17.1

> <minimizedAffinity>
-9.01348

> <CNNscore>
0.4288809896

> <CNNaffinity>
6.3263559341

> <CNN_VS>
2.7132537365

$$$$
HIPS6710


 34 37  0  0  0  0  0  0  0  0999 V2000
   88.9151   86.0323   91.6370 C   0  0  0  0  0  0  0  0  0  0  0  0
   90.1777   85.8460   91.0823 C   0  0  0  0  0  0  0  0  0  0  0  0
   90.6464   87.3024   90.3876 S   0  0  0  0  0  0  0  0  0  0  0  0
   89.2297   88.1090   90.8200 C   0  0  0  0  0  0  0  0  0  0  0  0
   88.3981   87.2825   91.4929 N   0  0  0  0  0  0  0  0  0  0  0  0
   88.9245   89.5336   90.5553 C   0  0  0  0  0  0  0  0  0  0  0  0
   87.8336   89.8802   89.7396 C   0  0  0  0  0  0  0  0  0  0  0  0
   87.5306   91.2214   89.4970 C   0  0  0  0  0  0  0  0  0  0  0  0
   88.3070   92.2306   90.0685 C   0  0  0  0  0  0  0  0  0  0  0  0
   89.3943   91.9116   90.8882 C   0  0  0  0  0  0  0  0  0  0  0  0
   89.7065   90.5575   91.1207 C   0  0  0  0  0  0  0  0  0  0  0  0
   90.1323   92.9663   91.4508 O   0  0  0  0  0  0  0  0  0  0  0  0
   89.8160   94.3539   91.3265 C   0  0  0  0  0  0  0  0  0  0  0  0
   89.1927   94.8783   92.5937 C   0  0  0  0  0  0  0  0  0  0  0  0
   89.9371   95.6760   93.4790 C   0  0  0  0  0  0  0  0  0  0  0  0
   89.3529   96.1568   94.6544 C   0  0  0  0  0  0  0  0  0  0  0  0
   88.0210   95.8545   94.9501 C   0  0  0  0  0  0  0  0  0  0  0  0
   87.2683   95.0726   94.0678 C   0  0  0  0  0  0  0  0  0  0  0  0
   85.5954   94.6970   94.4375 Cl  0  0  0  0  0  0  0  0  0  0  0  0
   87.8506   94.5892   92.8905 C   0  0  0  0  0  0  0  0  0  0  0  0
   88.1957   84.9634   92.4015 C   0  0  0  0  0  0  0  0  0  0  0  0
   87.0752   84.4854   91.6567 O   0  0  0  0  0  0  0  0  0  0  0  0
   85.6277   85.8895   88.4952 C   0  0  0  0  0  0  0  0  0  0  0  0
   86.3977   85.0919   89.3616 C   0  0  0  0  0  0  0  0  0  0  0  0
   86.3101   85.2477   90.7577 C   0  0  0  0  0  0  0  0  0  0  0  0
   85.4253   86.1922   91.2822 C   0  0  0  0  0  0  0  0  0  0  0  0
   84.6638   86.9974   90.4349 C   0  0  0  0  0  0  0  0  0  0  0  0
   84.7730   86.8754   89.0458 C   0  0  0  0  0  0  0  0  0  0  0  0
   84.0484   87.7692   88.2546 O   0  0  0  0  0  0  0  0  0  0  0  0
   83.4933   88.4076   88.6574 H   0  0  0  0  0  0  0  0  0  0  0  0
   85.8755   84.4687   86.6078 O   0  0  0  0  0  0  0  0  0  0  0  0
   85.7169   85.6429   87.0392 C   0  0  0  0  0  0  0  0  0  0  0  0
   85.5685   86.6887   86.1330 O   0  0  0  0  0  0  0  0  0  0  0  0
   85.4501   87.5647   86.4438 H   0  0  0  0  0  0  0  0  0  0  0  0
 31 32  2  0  0  0
 32 33  1  0  0  0
 32 23  1  0  0  0
 23 24  2  0  0  0
 24 25  1  0  0  0
 25 22  1  0  0  0
 22 21  1  0  0  0
 21  1  1  0  0  0
  1  2  2  0  0  0
  2  3  1  0  0  0
  3  4  1  0  0  0
  4  6  1  0  0  0
  6  7  2  0  0  0
  7  8  1  0  0  0
  8  9  2  0  0  0
  9 10  1  0  0  0
 10 12  1  0  0  0
 12 13  1  0  0  0
 13 14  1  0  0  0
 14 15  2  0  0  0
 15 16  1  0  0  0
 16 17  2  0  0  0
 17 18  1  0  0  0
 18 19  1  0  0  0
 18 20  2  0  0  0
 10 11  2  0  0  0
  4  5  2  0  0  0
 25 26  2  0  0  0
 26 27  1  0  0  0
 27 28  2  0  0  0
 28 29  1  0  0  0
 28 23  1  0  0  0
  5  1  2  0  0  0
 11  6  1  0  0  0
 20 14  1  0  0  0
 33 34  1  0  0  0
 29 30  1  0  0  0
M  END
> <Activity>
17.9

> <minimizedAffinity>
-7.80341

> <CNNscore>
0.5641869903

> <CNNaffinity>
6.4188032150

> <CNN_VS>
3.6214053631

$$$$
HIPS6710


 34 37  0  0  0  0  0  0  0  0999 V2000
   88.0004   89.9295   89.9680 C   0  0  0  0  0  0  0  0  0  0  0  0
   87.0385   89.7798   88.9736 C   0  0  0  0  0  0  0  0  0  0  0  0
   86.3388   88.2646   89.1688 S   0  0  0  0  0  0  0  0  0  0  0  0
   87.2835   87.8619   90.5067 C   0  0  0  0  0  0  0  0  0  0  0  0
   88.1294   88.8709   90.8129 N   0  0  0  0  0  0  0  0  0  0  0  0
   87.1952   86.6071   91.2878 C   0  0  0  0  0  0  0  0  0  0  0  0
   85.9501   85.9849   91.4824 C   0  0  0  0  0  0  0  0  0  0  0  0
   85.8604   84.7938   92.2054 C   0  0  0  0  0  0  0  0  0  0  0  0
   87.0101   84.2075   92.7370 C   0  0  0  0  0  0  0  0  0  0  0  0
   88.2615   84.8041   92.5524 C   0  0  0  0  0  0  0  0  0  0  0  0
   88.3478   86.0131   91.8341 C   0  0  0  0  0  0  0  0  0  0  0  0
   89.3878   84.1634   93.0948 O   0  0  0  0  0  0  0  0  0  0  0  0
   89.7162   82.7837   92.9222 C   0  0  0  0  0  0  0  0  0  0  0  0
   90.4260   82.5604   91.6125 C   0  0  0  0  0  0  0  0  0  0  0  0
   90.3750   81.3085   90.9767 C   0  0  0  0  0  0  0  0  0  0  0  0
   91.0384   81.1078   89.7627 C   0  0  0  0  0  0  0  0  0  0  0  0
   91.7480   82.1555   89.1698 C   0  0  0  0  0  0  0  0  0  0  0  0
   91.7927   83.4089   89.7887 C   0  0  0  0  0  0  0  0  0  0  0  0
   92.6801   84.7247   89.0419 Cl  0  0  0  0  0  0  0  0  0  0  0  0
   91.1300   83.6128   91.0044 C   0  0  0  0  0  0  0  0  0  0  0  0
   88.7942   91.1869   90.1504 C   0  0  0  0  0  0  0  0  0  0  0  0
   89.9999   91.1310   89.3876 O   0  0  0  0  0  0  0  0  0  0  0  0
   93.5959   91.9265   90.0937 C   0  0  0  0  0  0  0  0  0  0  0  0
   92.3007   92.0110   89.5504 C   0  0  0  0  0  0  0  0  0  0  0  0
   91.2996   91.0935   89.9206 C   0  0  0  0  0  0  0  0  0  0  0  0
   91.5979   90.1042   90.8599 C   0  0  0  0  0  0  0  0  0  0  0  0
   92.8806   90.0018   91.3986 C   0  0  0  0  0  0  0  0  0  0  0  0
   93.8916   90.8858   91.0074 C   0  0  0  0  0  0  0  0  0  0  0  0
   95.1740   90.6757   91.5184 O   0  0  0  0  0  0  0  0  0  0  0  0
   95.3290   89.9755   92.1215 H   0  0  0  0  0  0  0  0  0  0  0  0
   94.3001   94.1759   89.7991 O   0  0  0  0  0  0  0  0  0  0  0  0
   94.5916   92.9521   89.7127 C   0  0  0  0  0  0  0  0  0  0  0  0
   95.8727   92.5823   89.3139 O   0  0  0  0  0  0  0  0  0  0  0  0
   96.0990   91.6755   89.2467 H   0  0  0  0  0  0  0  0  0  0  0  0
 31 32  2  0  0  0
 32 33  1  0  0  0
 32 23  1  0  0  0
 23 24  2  0  0  0
 24 25  1  0  0  0
 25 22  1  0  0  0
 22 21  1  0  0  0
 21  1  1  0  0  0
  1  2  2  0  0  0
  2  3  1  0  0  0
  3  4  1  0  0  0
  4  6  1  0  0  0
  6  7  2  0  0  0
  7  8  1  0  0  0
  8  9  2  0  0  0
  9 10  1  0  0  0
 10 12  1  0  0  0
 12 13  1  0  0  0
 13 14  1  0  0  0
 14 15  2  0  0  0
 15 16  1  0  0  0
 16 17  2  0  0  0
 17 18  1  0  0  0
 18 19  1  0  0  0
 18 20  2  0  0  0
 10 11  2  0  0  0
  4  5  2  0  0  0
 25 26  2  0  0  0
 26 27  1  0  0  0
 27 28  2  0  0  0
 28 29  1  0  0  0
 28 23  1  0  0  0
  5  1  2  0  0  0
 11  6  1  0  0  0
 20 14  1  0  0  0
 33 34  1  0  0  0
 29 30  1  0  0  0
M  END
> <Activity>
17.9

> <minimizedAffinity>
-8.53527

> <CNNscore>
0.4940745234

> <CNNaffinity>
6.7146348953

> <CNN_VS>
3.3175301552

$$$$
HIPS6710


 34 37  0  0  0  0  0  0  0  0999 V2000
   88.2385   85.3500   91.9081 C   0  0  0  0  0  0  0  0  0  0  0  0
   89.1419   84.2972   91.7986 C   0  0  0  0  0  0  0  0  0  0  0  0
   90.5471   84.9047   91.1058 S   0  0  0  0  0  0  0  0  0  0  0  0
   89.9521   86.4774   90.9746 C   0  0  0  0  0  0  0  0  0  0  0  0
   88.6909   86.5507   91.4557 N   0  0  0  0  0  0  0  0  0  0  0  0
   90.6943   87.6474   90.4522 C   0  0  0  0  0  0  0  0  0  0  0  0
   92.0262   87.5038   90.0268 C   0  0  0  0  0  0  0  0  0  0  0  0
   92.7281   88.5989   89.5195 C   0  0  0  0  0  0  0  0  0  0  0  0
   92.1094   89.8464   89.4254 C   0  0  0  0  0  0  0  0  0  0  0  0
   90.7832   90.0139   89.8369 C   0  0  0  0  0  0  0  0  0  0  0  0
   90.0812   88.9105   90.3611 C   0  0  0  0  0  0  0  0  0  0  0  0
   90.2041   91.2869   89.7052 O   0  0  0  0  0  0  0  0  0  0  0  0
   90.6436   92.4679   90.3784 C   0  0  0  0  0  0  0  0  0  0  0  0
   89.4717   93.2500   90.9113 C   0  0  0  0  0  0  0  0  0  0  0  0
   88.3726   93.5413   90.0860 C   0  0  0  0  0  0  0  0  0  0  0  0
   87.2897   94.2699   90.5867 C   0  0  0  0  0  0  0  0  0  0  0  0
   87.2906   94.7039   91.9149 C   0  0  0  0  0  0  0  0  0  0  0  0
   88.3743   94.4066   92.7476 C   0  0  0  0  0  0  0  0  0  0  0  0
   88.3730   94.9480   94.4160 Cl  0  0  0  0  0  0  0  0  0  0  0  0
   89.4602   93.6778   92.2492 C   0  0  0  0  0  0  0  0  0  0  0  0
   86.8885   85.2021   92.5407 C   0  0  0  0  0  0  0  0  0  0  0  0
   85.9275   84.7796   91.5728 O   0  0  0  0  0  0  0  0  0  0  0  0
   85.3731   85.8129   88.0109 C   0  0  0  0  0  0  0  0  0  0  0  0
   85.7557   85.0420   89.1241 C   0  0  0  0  0  0  0  0  0  0  0  0
   85.5431   85.5090   90.4348 C   0  0  0  0  0  0  0  0  0  0  0  0
   84.9204   86.7444   90.6237 C   0  0  0  0  0  0  0  0  0  0  0  0
   84.5457   87.5242   89.5294 C   0  0  0  0  0  0  0  0  0  0  0  0
   84.7879   87.0847   88.2237 C   0  0  0  0  0  0  0  0  0  0  0  0
   84.4674   87.9499   87.1755 O   0  0  0  0  0  0  0  0  0  0  0  0
   84.0809   88.7838   87.3578 H   0  0  0  0  0  0  0  0  0  0  0  0
   86.2355   85.8848   85.7987 O   0  0  0  0  0  0  0  0  0  0  0  0
   85.5678   85.2474   86.6578 C   0  0  0  0  0  0  0  0  0  0  0  0
   85.0701   83.9876   86.3380 O   0  0  0  0  0  0  0  0  0  0  0  0
   84.5728   83.5061   86.9695 H   0  0  0  0  0  0  0  0  0  0  0  0
 31 32  2  0  0  0
 32 33  1  0  0  0
 32 23  1  0  0  0
 23 24  2  0  0  0
 24 25  1  0  0  0
 25 22  1  0  0  0
 22 21  1  0  0  0
 21  1  1  0  0  0
  1  2  2  0  0  0
  2  3  1  0  0  0
  3  4  1  0  0  0
  4  6  1  0  0  0
  6  7  2  0  0  0
  7  8  1  0  0  0
  8  9  2  0  0  0
  9 10  1  0  0  0
 10 12  1  0  0  0
 12 13  1  0  0  0
 13 14  1  0  0  0
 14 15  2  0  0  0
 15 16  1  0  0  0
 16 17  2  0  0  0
 17 18  1  0  0  0
 18 19  1  0  0  0
 18 20  2  0  0  0
 10 11  2  0  0  0
  4  5  2  0  0  0
 25 26  2  0  0  0
 26 27  1  0  0  0
 27 28  2  0  0  0
 28 29  1  0  0  0
 28 23  1  0  0  0
  5  1  2  0  0  0
 11  6  1  0  0  0
 20 14  1  0  0  0
 33 34  1  0  0  0
 29 30  1  0  0  0
M  END
> <Activity>
17.9

> <minimizedAffinity>
-8.32945

> <CNNscore>
0.4572445154

> <CNNaffinity>
6.4978828430

> <CNN_VS>
2.9711213112

$$$$
HIPS6135


 40 43  0  0  0  0  0  0  0  0999 V2000
   88.8946   84.5790   92.2078 C   0  0  0  0  0  0  0  0  0  0  0  0
   89.1907   85.8705   91.7616 C   0  0  0  0  0  0  0  0  0  0  0  0
   90.2633   86.1037   90.8848 C   0  0  0  0  0  0  0  0  0  0  0  0
   91.0495   85.0180   90.4633 C   0  0  0  0  0  0  0  0  0  0  0  0
   90.7812   83.7167   90.9188 C   0  0  0  0  0  0  0  0  0  0  0  0
   89.6840   83.5008   91.7684 C   0  0  0  0  0  0  0  0  0  0  0  0
   90.5600   87.4787   90.4091 C   0  0  0  0  0  0  0  0  0  0  0  0
   91.8888   87.9275   90.3059 C   0  0  0  0  0  0  0  0  0  0  0  0
   92.1653   89.2235   89.8648 C   0  0  0  0  0  0  0  0  0  0  0  0
   91.1226   90.0876   89.5259 C   0  0  0  0  0  0  0  0  0  0  0  0
   89.7902   89.6619   89.6291 C   0  0  0  0  0  0  0  0  0  0  0  0
   89.5151   88.3538   90.0595 C   0  0  0  0  0  0  0  0  0  0  0  0
   88.6707   90.5994   89.2613 C   0  0  0  0  0  0  0  0  0  0  0  0
   87.4070   89.9417   89.3623 O   0  0  0  0  0  0  0  0  0  0  0  0
   86.5312   89.6950   88.2921 C   0  0  0  0  0  0  0  0  0  0  0  0
   85.5197   90.5952   87.9165 C   0  0  0  0  0  0  0  0  0  0  0  0
   84.6762   90.2974   86.8459 C   0  0  0  0  0  0  0  0  0  0  0  0
   84.8165   89.1003   86.1362 C   0  0  0  0  0  0  0  0  0  0  0  0
   83.8901   88.8293   85.1271 O   0  0  0  0  0  0  0  0  0  0  0  0
   85.8526   88.1991   86.4823 C   0  0  0  0  0  0  0  0  0  0  0  0
   86.6838   88.5033   87.5757 C   0  0  0  0  0  0  0  0  0  0  0  0
   83.2187   89.4519   84.9280 H   0  0  0  0  0  0  0  0  0  0  0  0
   86.1183   86.9645   85.7122 C   0  0  0  0  0  0  0  0  0  0  0  0
   86.2604   85.8653   86.3131 O   0  0  0  0  0  0  0  0  0  0  0  0
   86.2747   87.0115   84.3300 O   0  0  0  0  0  0  0  0  0  0  0  0
   86.1711   87.8236   83.8742 H   0  0  0  0  0  0  0  0  0  0  0  0
   91.5981   82.5504   90.4199 C   0  0  0  0  0  0  0  0  0  0  0  0
   92.7631   82.4618   91.1587 F   0  0  0  0  0  0  0  0  0  0  0  0
   91.9221   82.7164   89.0841 F   0  0  0  0  0  0  0  0  0  0  0  0
   90.8916   81.3669   90.5481 F   0  0  0  0  0  0  0  0  0  0  0  0
   87.8090   84.4152   93.0843 O   0  0  0  0  0  0  0  0  0  0  0  0
   86.5028   83.9756   92.7092 C   0  0  0  0  0  0  0  0  0  0  0  0
   84.5752   86.8975   90.1714 C   0  0  0  0  0  0  0  0  0  0  0  0
   85.2171   85.7793   89.6054 C   0  0  0  0  0  0  0  0  0  0  0  0
   85.8439   84.8363   90.4253 C   0  0  0  0  0  0  0  0  0  0  0  0
   85.8315   84.9893   91.8203 C   0  0  0  0  0  0  0  0  0  0  0  0
   85.2035   86.1109   92.3824 C   0  0  0  0  0  0  0  0  0  0  0  0
   84.5778   87.0540   91.5623 C   0  0  0  0  0  0  0  0  0  0  0  0
   82.6485   88.4156   89.6897 C   0  0  0  0  0  0  0  0  0  0  0  0
   83.9293   87.8689   89.3926 O   0  0  0  0  0  0  0  0  0  0  0  0
 39 40  1  0  0  0
 40 33  1  0  0  0
 33 34  2  0  0  0
 34 35  1  0  0  0
 35 36  2  0  0  0
 36 32  1  0  0  0
 32 31  1  0  0  0
 31  1  1  0  0  0
  1  2  2  0  0  0
  2  3  1  0  0  0
  3  7  1  0  0  0
  7  8  2  0  0  0
  8  9  1  0  0  0
  9 10  2  0  0  0
 10 11  1  0  0  0
 11 13  1  0  0  0
 13 14  1  0  0  0
 14 15  1  0  0  0
 15 16  2  0  0  0
 16 17  1  0  0  0
 17 18  2  0  0  0
 18 19  1  0  0  0
 18 20  1  0  0  0
 20 23  1  0  0  0
 23 24  2  0  0  0
 23 25  1  0  0  0
 20 21  2  0  0  0
 11 12  2  0  0  0
  3  4  2  0  0  0
  4  5  1  0  0  0
  5 27  1  0  0  0
 27 28  1  0  0  0
 27 29  1  0  0  0
 27 30  1  0  0  0
  5  6  2  0  0  0
 36 37  1  0  0  0
 37 38  2  0  0  0
 38 33  1  0  0  0
  6  1  1  0  0  0
 12  7  1  0  0  0
 21 15  1  0  0  0
 19 22  1  0  0  0
 25 26  1  0  0  0
M  END
> <Activity>
19.4

> <minimizedAffinity>
-9.41570

> <CNNscore>
0.7586944103

> <CNNaffinity>
7.1802692413

> <CNN_VS>
5.4476299286

$$$$
HIPS6135


 40 43  0  0  0  0  0  0  0  0999 V2000
   88.6647   84.6052   92.1752 C   0  0  0  0  0  0  0  0  0  0  0  0
   89.1179   85.8617   91.7625 C   0  0  0  0  0  0  0  0  0  0  0  0
   90.2688   85.9892   90.9670 C   0  0  0  0  0  0  0  0  0  0  0  0
   90.9727   84.8317   90.5936 C   0  0  0  0  0  0  0  0  0  0  0  0
   90.5454   83.5626   91.0174 C   0  0  0  0  0  0  0  0  0  0  0  0
   89.3738   83.4549   91.7842 C   0  0  0  0  0  0  0  0  0  0  0  0
   90.7331   87.3289   90.5258 C   0  0  0  0  0  0  0  0  0  0  0  0
   92.0820   87.5426   90.1907 C   0  0  0  0  0  0  0  0  0  0  0  0
   92.5179   88.8052   89.7825 C   0  0  0  0  0  0  0  0  0  0  0  0
   91.6171   89.8690   89.7077 C   0  0  0  0  0  0  0  0  0  0  0  0
   90.2691   89.6785   90.0450 C   0  0  0  0  0  0  0  0  0  0  0  0
   89.8303   88.4048   90.4416 C   0  0  0  0  0  0  0  0  0  0  0  0
   89.3030   90.8306   89.9615 C   0  0  0  0  0  0  0  0  0  0  0  0
   89.1927   91.4901   91.2233 O   0  0  0  0  0  0  0  0  0  0  0  0
   89.7438   92.7438   91.5363 C   0  0  0  0  0  0  0  0  0  0  0  0
   89.2478   93.5534   92.5721 C   0  0  0  0  0  0  0  0  0  0  0  0
   89.8329   94.7917   92.8375 C   0  0  0  0  0  0  0  0  0  0  0  0
   90.9130   95.2504   92.0762 C   0  0  0  0  0  0  0  0  0  0  0  0
   91.4004   96.5314   92.3434 O   0  0  0  0  0  0  0  0  0  0  0  0
   91.4445   94.4308   91.0510 C   0  0  0  0  0  0  0  0  0  0  0  0
   90.8329   93.1928   90.7820 C   0  0  0  0  0  0  0  0  0  0  0  0
   91.0214   97.0429   93.0310 H   0  0  0  0  0  0  0  0  0  0  0  0
   92.6450   94.8114   90.2751 C   0  0  0  0  0  0  0  0  0  0  0  0
   92.7632   95.9863   89.8333 O   0  0  0  0  0  0  0  0  0  0  0  0
   93.6222   93.8675   89.9734 O   0  0  0  0  0  0  0  0  0  0  0  0
   93.5434   92.9917   90.2970 H   0  0  0  0  0  0  0  0  0  0  0  0
   91.2773   82.3221   90.5683 C   0  0  0  0  0  0  0  0  0  0  0  0
   90.5259   81.2080   90.8926 F   0  0  0  0  0  0  0  0  0  0  0  0
   92.5113   82.2308   91.1895 F   0  0  0  0  0  0  0  0  0  0  0  0
   91.4844   82.3437   89.1998 F   0  0  0  0  0  0  0  0  0  0  0  0
   87.5077   84.5481   92.9700 O   0  0  0  0  0  0  0  0  0  0  0  0
   86.2010   84.2074   92.5046 C   0  0  0  0  0  0  0  0  0  0  0  0
   84.8911   86.9545   89.4337 C   0  0  0  0  0  0  0  0  0  0  0  0
   84.7458   87.2888   90.7938 C   0  0  0  0  0  0  0  0  0  0  0  0
   85.1655   86.3991   91.7871 C   0  0  0  0  0  0  0  0  0  0  0  0
   85.7445   85.1690   91.4392 C   0  0  0  0  0  0  0  0  0  0  0  0
   85.8763   84.8312   90.0839 C   0  0  0  0  0  0  0  0  0  0  0  0
   85.4557   85.7205   89.0911 C   0  0  0  0  0  0  0  0  0  0  0  0
   85.1350   89.0419   88.0799 C   0  0  0  0  0  0  0  0  0  0  0  0
   84.4895   87.8137   88.4003 O   0  0  0  0  0  0  0  0  0  0  0  0
 39 40  1  0  0  0
 40 33  1  0  0  0
 33 34  2  0  0  0
 34 35  1  0  0  0
 35 36  2  0  0  0
 36 32  1  0  0  0
 32 31  1  0  0  0
 31  1  1  0  0  0
  1  2  2  0  0  0
  2  3  1  0  0  0
  3  7  1  0  0  0
  7  8  2  0  0  0
  8  9  1  0  0  0
  9 10  2  0  0  0
 10 11  1  0  0  0
 11 13  1  0  0  0
 13 14  1  0  0  0
 14 15  1  0  0  0
 15 16  2  0  0  0
 16 17  1  0  0  0
 17 18  2  0  0  0
 18 19  1  0  0  0
 18 20  1  0  0  0
 20 23  1  0  0  0
 23 24  2  0  0  0
 23 25  1  0  0  0
 20 21  2  0  0  0
 11 12  2  0  0  0
  3  4  2  0  0  0
  4  5  1  0  0  0
  5 27  1  0  0  0
 27 28  1  0  0  0
 27 29  1  0  0  0
 27 30  1  0  0  0
  5  6  2  0  0  0
 36 37  1  0  0  0
 37 38  2  0  0  0
 38 33  1  0  0  0
  6  1  1  0  0  0
 12  7  1  0  0  0
 21 15  1  0  0  0
 19 22  1  0  0  0
 25 26  1  0  0  0
M  END
> <Activity>
19.4

> <minimizedAffinity>
-8.80326

> <CNNscore>
0.7463810444

> <CNNaffinity>
7.1022901535

> <CNN_VS>
5.3010149002

$$$$
HIPS6135


 40 43  0  0  0  0  0  0  0  0999 V2000
   88.8228   85.0696   92.0250 C   0  0  0  0  0  0  0  0  0  0  0  0
   89.3381   86.2932   91.5869 C   0  0  0  0  0  0  0  0  0  0  0  0
   90.5081   86.3481   90.8111 C   0  0  0  0  0  0  0  0  0  0  0  0
   91.1675   85.1512   90.4838 C   0  0  0  0  0  0  0  0  0  0  0  0
   90.6773   83.9143   90.9339 C   0  0  0  0  0  0  0  0  0  0  0  0
   89.4881   83.8791   91.6801 C   0  0  0  0  0  0  0  0  0  0  0  0
   91.0386   87.6534   90.3423 C   0  0  0  0  0  0  0  0  0  0  0  0
   92.3270   87.7423   89.7857 C   0  0  0  0  0  0  0  0  0  0  0  0
   92.8267   88.9722   89.3517 C   0  0  0  0  0  0  0  0  0  0  0  0
   92.0513   90.1269   89.4711 C   0  0  0  0  0  0  0  0  0  0  0  0
   90.7668   90.0609   90.0304 C   0  0  0  0  0  0  0  0  0  0  0  0
   90.2612   88.8209   90.4531 C   0  0  0  0  0  0  0  0  0  0  0  0
   89.9360   91.3105   90.1555 C   0  0  0  0  0  0  0  0  0  0  0  0
   90.6667   92.3382   90.8260 O   0  0  0  0  0  0  0  0  0  0  0  0
   91.3152   93.4154   90.1998 C   0  0  0  0  0  0  0  0  0  0  0  0
   91.9890   94.4171   90.9189 C   0  0  0  0  0  0  0  0  0  0  0  0
   92.6143   95.4662   90.2445 C   0  0  0  0  0  0  0  0  0  0  0  0
   92.5750   95.5434   88.8484 C   0  0  0  0  0  0  0  0  0  0  0  0
   93.1534   96.6603   88.2417 O   0  0  0  0  0  0  0  0  0  0  0  0
   91.9283   94.5233   88.1092 C   0  0  0  0  0  0  0  0  0  0  0  0
   91.2860   93.4815   88.8029 C   0  0  0  0  0  0  0  0  0  0  0  0
   93.5724   97.3140   88.7662 H   0  0  0  0  0  0  0  0  0  0  0  0
   91.9346   94.4916   86.6304 C   0  0  0  0  0  0  0  0  0  0  0  0
   91.4338   95.4469   85.9775 O   0  0  0  0  0  0  0  0  0  0  0  0
   92.4343   93.3866   85.9476 O   0  0  0  0  0  0  0  0  0  0  0  0
   92.8084   92.6715   86.4238 H   0  0  0  0  0  0  0  0  0  0  0  0
   91.3626   82.6310   90.5339 C   0  0  0  0  0  0  0  0  0  0  0  0
   92.4868   82.4519   91.3182 F   0  0  0  0  0  0  0  0  0  0  0  0
   91.7427   82.6741   89.2032 F   0  0  0  0  0  0  0  0  0  0  0  0
   90.5159   81.5493   90.7054 F   0  0  0  0  0  0  0  0  0  0  0  0
   87.6499   85.0851   92.7980 O   0  0  0  0  0  0  0  0  0  0  0  0
   86.3797   84.5803   92.3833 C   0  0  0  0  0  0  0  0  0  0  0  0
   84.7324   86.9821   89.1879 C   0  0  0  0  0  0  0  0  0  0  0  0
   84.5882   87.3891   90.5281 C   0  0  0  0  0  0  0  0  0  0  0  0
   85.1172   86.6107   91.5619 C   0  0  0  0  0  0  0  0  0  0  0  0
   85.8053   85.4219   91.2742 C   0  0  0  0  0  0  0  0  0  0  0  0
   85.9364   85.0105   89.9393 C   0  0  0  0  0  0  0  0  0  0  0  0
   85.4066   85.7884   88.9061 C   0  0  0  0  0  0  0  0  0  0  0  0
   85.0273   88.3961   87.1475 C   0  0  0  0  0  0  0  0  0  0  0  0
   84.2234   87.7293   88.1154 O   0  0  0  0  0  0  0  0  0  0  0  0
 39 40  1  0  0  0
 40 33  1  0  0  0
 33 34  2  0  0  0
 34 35  1  0  0  0
 35 36  2  0  0  0
 36 32  1  0  0  0
 32 31  1  0  0  0
 31  1  1  0  0  0
  1  2  2  0  0  0
  2  3  1  0  0  0
  3  7  1  0  0  0
  7  8  2  0  0  0
  8  9  1  0  0  0
  9 10  2  0  0  0
 10 11  1  0  0  0
 11 13  1  0  0  0
 13 14  1  0  0  0
 14 15  1  0  0  0
 15 16  2  0  0  0
 16 17  1  0  0  0
 17 18  2  0  0  0
 18 19  1  0  0  0
 18 20  1  0  0  0
 20 23  1  0  0  0
 23 24  2  0  0  0
 23 25  1  0  0  0
 20 21  2  0  0  0
 11 12  2  0  0  0
  3  4  2  0  0  0
  4  5  1  0  0  0
  5 27  1  0  0  0
 27 28  1  0  0  0
 27 29  1  0  0  0
 27 30  1  0  0  0
  5  6  2  0  0  0
 36 37  1  0  0  0
 37 38  2  0  0  0
 38 33  1  0  0  0
  6  1  1  0  0  0
 12  7  1  0  0  0
 21 15  1  0  0  0
 19 22  1  0  0  0
 25 26  1  0  0  0
M  END
> <Activity>
19.4

> <minimizedAffinity>
-8.58966

> <CNNscore>
0.7209603190

> <CNNaffinity>
6.8635797501

> <CNN_VS>
4.9483685493

$$$$
HIPS6920


 35 38  0  0  0  0  0  0  0  0999 V2000
   91.0962   82.5862   90.5208 C   0  0  0  0  0  0  0  0  0  0  0  0
   90.0633   83.2366   91.2039 C   0  0  0  0  0  0  0  0  0  0  0  0
   90.0063   84.5930   91.2186 N   0  0  0  0  0  0  0  0  0  0  0  0
   90.9358   85.3483   90.5710 C   0  0  0  0  0  0  0  0  0  0  0  0
   91.9397   84.7293   89.8906 N   0  0  0  0  0  0  0  0  0  0  0  0
   92.0357   83.3756   89.8489 C   0  0  0  0  0  0  0  0  0  0  0  0
   90.8540   86.8299   90.6039 C   0  0  0  0  0  0  0  0  0  0  0  0
   92.0228   87.6122   90.5765 C   0  0  0  0  0  0  0  0  0  0  0  0
   91.9428   89.0058   90.6092 C   0  0  0  0  0  0  0  0  0  0  0  0
   90.7001   89.6385   90.6675 C   0  0  0  0  0  0  0  0  0  0  0  0
   89.5183   88.8758   90.6908 C   0  0  0  0  0  0  0  0  0  0  0  0
   89.6053   87.4782   90.6629 C   0  0  0  0  0  0  0  0  0  0  0  0
   88.2416   89.4589   90.7439 O   0  0  0  0  0  0  0  0  0  0  0  0
   87.1833   89.2154   89.8164 C   0  0  0  0  0  0  0  0  0  0  0  0
   86.5862   87.8500   90.0325 C   0  0  0  0  0  0  0  0  0  0  0  0
   86.1277   87.4763   91.3064 C   0  0  0  0  0  0  0  0  0  0  0  0
   85.5658   86.2126   91.5103 C   0  0  0  0  0  0  0  0  0  0  0  0
   85.4501   85.3167   90.4441 C   0  0  0  0  0  0  0  0  0  0  0  0
   85.8929   85.6846   89.1695 C   0  0  0  0  0  0  0  0  0  0  0  0
   85.7429   84.5611   87.8308 Cl  0  0  0  0  0  0  0  0  0  0  0  0
   86.4551   86.9495   88.9620 C   0  0  0  0  0  0  0  0  0  0  0  0
   91.1692   81.0834   90.4832 C   0  0  0  0  0  0  0  0  0  0  0  0
   91.9231   80.6396   89.3542 O   0  0  0  0  0  0  0  0  0  0  0  0
   92.0097   80.8932   85.6562 C   0  0  0  0  0  0  0  0  0  0  0  0
   92.3944   80.8882   87.0090 C   0  0  0  0  0  0  0  0  0  0  0  0
   91.4679   80.6331   88.0254 C   0  0  0  0  0  0  0  0  0  0  0  0
   90.1303   80.3736   87.6838 C   0  0  0  0  0  0  0  0  0  0  0  0
   89.7298   80.3960   86.3476 C   0  0  0  0  0  0  0  0  0  0  0  0
   90.6477   80.6749   85.3298 C   0  0  0  0  0  0  0  0  0  0  0  0
   90.1621   80.7586   84.0229 O   0  0  0  0  0  0  0  0  0  0  0  0
   89.2538   80.6069   83.8500 H   0  0  0  0  0  0  0  0  0  0  0  0
   94.1992   80.5829   84.7646 O   0  0  0  0  0  0  0  0  0  0  0  0
   93.0566   81.0966   84.6305 C   0  0  0  0  0  0  0  0  0  0  0  0
   92.8012   81.9146   83.5330 O   0  0  0  0  0  0  0  0  0  0  0  0
   91.9548   82.3015   83.4240 H   0  0  0  0  0  0  0  0  0  0  0  0
 32 33  2  0  0  0
 33 34  1  0  0  0
 33 24  1  0  0  0
 24 25  2  0  0  0
 25 26  1  0  0  0
 26 23  1  0  0  0
 23 22  1  0  0  0
 22  1  1  0  0  0
  1  2  2  0  0  0
  2  3  2  0  0  0
  3  4  2  0  0  0
  4  7  1  0  0  0
  7  8  2  0  0  0
  8  9  1  0  0  0
  9 10  2  0  0  0
 10 11  1  0  0  0
 11 13  1  0  0  0
 13 14  1  0  0  0
 14 15  1  0  0  0
 15 16  2  0  0  0
 16 17  1  0  0  0
 17 18  2  0  0  0
 18 19  1  0  0  0
 19 20  1  0  0  0
 19 21  2  0  0  0
 11 12  2  0  0  0
  4  5  2  0  0  0
  5  6  2  0  0  0
 26 27  2  0  0  0
 27 28  1  0  0  0
 28 29  2  0  0  0
 29 30  1  0  0  0
 29 24  1  0  0  0
  6  1  1  0  0  0
 12  7  1  0  0  0
 21 15  1  0  0  0
 34 35  1  0  0  0
 30 31  1  0  0  0
M  END
> <Activity>
21.3

> <minimizedAffinity>
-9.26221

> <CNNscore>
0.7453831434

> <CNNaffinity>
7.0062456131

> <CNN_VS>
5.2223372459

$$$$
HIPS6920


 35 38  0  0  0  0  0  0  0  0999 V2000
   90.8832   88.4232   90.3472 C   0  0  0  0  0  0  0  0  0  0  0  0
   89.6787   87.7852   90.6615 C   0  0  0  0  0  0  0  0  0  0  0  0
   89.6495   86.4404   90.8460 N   0  0  0  0  0  0  0  0  0  0  0  0
   90.7780   85.6860   90.7397 C   0  0  0  0  0  0  0  0  0  0  0  0
   91.9603   86.2946   90.4474 N   0  0  0  0  0  0  0  0  0  0  0  0
   92.0363   87.6365   90.2549 C   0  0  0  0  0  0  0  0  0  0  0  0
   90.7204   84.2169   90.9431 C   0  0  0  0  0  0  0  0  0  0  0  0
   90.1162   83.6765   92.0929 C   0  0  0  0  0  0  0  0  0  0  0  0
   90.0650   82.2942   92.2824 C   0  0  0  0  0  0  0  0  0  0  0  0
   90.6120   81.4323   91.3306 C   0  0  0  0  0  0  0  0  0  0  0  0
   91.2166   81.9509   90.1710 C   0  0  0  0  0  0  0  0  0  0  0  0
   91.2693   83.3385   89.9890 C   0  0  0  0  0  0  0  0  0  0  0  0
   91.7780   81.1310   89.1784 O   0  0  0  0  0  0  0  0  0  0  0  0
   91.0457   80.4466   88.1611 C   0  0  0  0  0  0  0  0  0  0  0  0
   91.8168   80.4276   86.8677 C   0  0  0  0  0  0  0  0  0  0  0  0
   92.9346   79.5889   86.7274 C   0  0  0  0  0  0  0  0  0  0  0  0
   93.6492   79.5622   85.5262 C   0  0  0  0  0  0  0  0  0  0  0  0
   93.2492   80.3653   84.4548 C   0  0  0  0  0  0  0  0  0  0  0  0
   92.1301   81.1946   84.5813 C   0  0  0  0  0  0  0  0  0  0  0  0
   91.6260   82.1987   83.2343 Cl  0  0  0  0  0  0  0  0  0  0  0  0
   91.4121   81.2228   85.7824 C   0  0  0  0  0  0  0  0  0  0  0  0
   90.9375   89.9144   90.1509 C   0  0  0  0  0  0  0  0  0  0  0  0
   90.3323   90.5939   91.2517 O   0  0  0  0  0  0  0  0  0  0  0  0
   88.7644   93.8341   92.1403 C   0  0  0  0  0  0  0  0  0  0  0  0
   89.5614   92.6759   92.1764 C   0  0  0  0  0  0  0  0  0  0  0  0
   89.5048   91.7246   91.1525 C   0  0  0  0  0  0  0  0  0  0  0  0
   88.6373   91.9361   90.0680 C   0  0  0  0  0  0  0  0  0  0  0  0
   87.8254   93.0699   90.0291 C   0  0  0  0  0  0  0  0  0  0  0  0
   87.8607   94.0115   91.0628 C   0  0  0  0  0  0  0  0  0  0  0  0
   86.9649   95.0811   90.9973 O   0  0  0  0  0  0  0  0  0  0  0  0
   86.3838   95.1615   90.2667 H   0  0  0  0  0  0  0  0  0  0  0  0
   89.0947   96.0527   92.9492 O   0  0  0  0  0  0  0  0  0  0  0  0
   88.9303   94.8331   93.2193 C   0  0  0  0  0  0  0  0  0  0  0  0
   88.9677   94.4178   94.5478 O   0  0  0  0  0  0  0  0  0  0  0  0
   88.8466   93.5131   94.7594 H   0  0  0  0  0  0  0  0  0  0  0  0
 32 33  2  0  0  0
 33 34  1  0  0  0
 33 24  1  0  0  0
 24 25  2  0  0  0
 25 26  1  0  0  0
 26 23  1  0  0  0
 23 22  1  0  0  0
 22  1  1  0  0  0
  1  2  2  0  0  0
  2  3  2  0  0  0
  3  4  2  0  0  0
  4  7  1  0  0  0
  7  8  2  0  0  0
  8  9  1  0  0  0
  9 10  2  0  0  0
 10 11  1  0  0  0
 11 13  1  0  0  0
 13 14  1  0  0  0
 14 15  1  0  0  0
 15 16  2  0  0  0
 16 17  1  0  0  0
 17 18  2  0  0  0
 18 19  1  0  0  0
 19 20  1  0  0  0
 19 21  2  0  0  0
 11 12  2  0  0  0
  4  5  2  0  0  0
  5  6  2  0  0  0
 26 27  2  0  0  0
 27 28  1  0  0  0
 28 29  2  0  0  0
 29 30  1  0  0  0
 29 24  1  0  0  0
  6  1  1  0  0  0
 12  7  1  0  0  0
 21 15  1  0  0  0
 34 35  1  0  0  0
 30 31  1  0  0  0
M  END
> <Activity>
21.3

> <minimizedAffinity>
-9.22898

> <CNNscore>
0.6586033702

> <CNNaffinity>
6.2269706726

> <CNN_VS>
4.1011037827

$$$$
HIPS6920


 35 38  0  0  0  0  0  0  0  0999 V2000
   90.9027   82.7970   90.6000 C   0  0  0  0  0  0  0  0  0  0  0  0
   91.9034   83.5637   89.9939 C   0  0  0  0  0  0  0  0  0  0  0  0
   91.8266   84.9191   90.0126 N   0  0  0  0  0  0  0  0  0  0  0  0
   90.7916   85.5618   90.6204 C   0  0  0  0  0  0  0  0  0  0  0  0
   89.8168   84.8292   91.2261 N   0  0  0  0  0  0  0  0  0  0  0  0
   89.8530   83.4719   91.2321 C   0  0  0  0  0  0  0  0  0  0  0  0
   90.7281   87.0447   90.6252 C   0  0  0  0  0  0  0  0  0  0  0  0
   91.9061   87.8115   90.6837 C   0  0  0  0  0  0  0  0  0  0  0  0
   91.8432   89.2062   90.6898 C   0  0  0  0  0  0  0  0  0  0  0  0
   90.6090   89.8557   90.6360 C   0  0  0  0  0  0  0  0  0  0  0  0
   89.4187   89.1086   90.5721 C   0  0  0  0  0  0  0  0  0  0  0  0
   89.4880   87.7098   90.5713 C   0  0  0  0  0  0  0  0  0  0  0  0
   88.1503   89.7089   90.5108 O   0  0  0  0  0  0  0  0  0  0  0  0
   87.7696   90.7443   89.6039 C   0  0  0  0  0  0  0  0  0  0  0  0
   86.7553   90.2400   88.6116 C   0  0  0  0  0  0  0  0  0  0  0  0
   85.7600   91.1022   88.1233 C   0  0  0  0  0  0  0  0  0  0  0  0
   84.8207   90.6408   87.1963 C   0  0  0  0  0  0  0  0  0  0  0  0
   84.8726   89.3194   86.7445 C   0  0  0  0  0  0  0  0  0  0  0  0
   85.8676   88.4570   87.2162 C   0  0  0  0  0  0  0  0  0  0  0  0
   85.9348   86.8000   86.6447 Cl  0  0  0  0  0  0  0  0  0  0  0  0
   86.8100   88.9163   88.1435 C   0  0  0  0  0  0  0  0  0  0  0  0
   90.9768   81.2937   90.6000 C   0  0  0  0  0  0  0  0  0  0  0  0
   91.7760   80.8246   89.5133 O   0  0  0  0  0  0  0  0  0  0  0  0
   91.9720   80.8486   85.8109 C   0  0  0  0  0  0  0  0  0  0  0  0
   92.3179   80.9216   87.1722 C   0  0  0  0  0  0  0  0  0  0  0  0
   91.3589   80.7425   88.1746 C   0  0  0  0  0  0  0  0  0  0  0  0
   90.0276   80.4810   87.8102 C   0  0  0  0  0  0  0  0  0  0  0  0
   89.6658   80.4265   86.4640 C   0  0  0  0  0  0  0  0  0  0  0  0
   90.6167   80.6295   85.4585 C   0  0  0  0  0  0  0  0  0  0  0  0
   90.1699   80.6392   84.1351 O   0  0  0  0  0  0  0  0  0  0  0  0
   89.2646   80.4897   83.9452 H   0  0  0  0  0  0  0  0  0  0  0  0
   94.1123   80.3035   84.9123 O   0  0  0  0  0  0  0  0  0  0  0  0
   93.0508   80.9738   84.8058 C   0  0  0  0  0  0  0  0  0  0  0  0
   92.9226   81.8868   83.7624 O   0  0  0  0  0  0  0  0  0  0  0  0
   92.1373   82.3903   83.6743 H   0  0  0  0  0  0  0  0  0  0  0  0
 32 33  2  0  0  0
 33 34  1  0  0  0
 33 24  1  0  0  0
 24 25  2  0  0  0
 25 26  1  0  0  0
 26 23  1  0  0  0
 23 22  1  0  0  0
 22  1  1  0  0  0
  1  2  2  0  0  0
  2  3  2  0  0  0
  3  4  2  0  0  0
  4  7  1  0  0  0
  7  8  2  0  0  0
  8  9  1  0  0  0
  9 10  2  0  0  0
 10 11  1  0  0  0
 11 13  1  0  0  0
 13 14  1  0  0  0
 14 15  1  0  0  0
 15 16  2  0  0  0
 16 17  1  0  0  0
 17 18  2  0  0  0
 18 19  1  0  0  0
 19 20  1  0  0  0
 19 21  2  0  0  0
 11 12  2  0  0  0
  4  5  2  0  0  0
  5  6  2  0  0  0
 26 27  2  0  0  0
 27 28  1  0  0  0
 28 29  2  0  0  0
 29 30  1  0  0  0
 29 24  1  0  0  0
  6  1  1  0  0  0
 12  7  1  0  0  0
 21 15  1  0  0  0
 34 35  1  0  0  0
 30 31  1  0  0  0
M  END
> <Activity>
21.3

> <minimizedAffinity>
-8.83867

> <CNNscore>
0.6404020190

> <CNNaffinity>
6.5133333206

> <CNN_VS>
4.1711516380

$$$$
HIPS6276


 31 32  0  0  0  0  0  0  0  0999 V2000
   91.4550   88.6227   89.6566 O   0  0  0  0  0  0  0  0  0  0  0  0
   90.8159   92.2242   91.7670 C   0  0  0  0  0  0  0  0  0  0  0  0
   91.8786   91.3686   92.0844 C   0  0  0  0  0  0  0  0  0  0  0  0
   92.0693   90.1800   91.3803 C   0  0  0  0  0  0  0  0  0  0  0  0
   91.2083   89.8251   90.3403 C   0  0  0  0  0  0  0  0  0  0  0  0
   90.1414   90.6812   90.0104 C   0  0  0  0  0  0  0  0  0  0  0  0
   89.9507   91.8972   90.6930 C   0  0  0  0  0  0  0  0  0  0  0  0
   91.0081   95.8475   93.1083 C   0  0  0  0  0  0  0  0  0  0  0  0
   91.2753   94.6442   92.2648 C   0  0  0  0  0  0  0  0  0  0  0  0
   92.0370   94.7422   91.2645 O   0  0  0  0  0  0  0  0  0  0  0  0
   90.6258   93.4007   92.5660 N   0  0  0  0  0  0  0  0  0  0  0  0
   90.0293   93.3532   93.3478 H   0  0  0  0  0  0  0  0  0  0  0  0
   88.8891   92.8225   90.2265 C   0  0  0  0  0  0  0  0  0  0  0  0
   87.7206   92.3951   90.0221 O   0  0  0  0  0  0  0  0  0  0  0  0
   89.1760   94.1609   89.9724 O   0  0  0  0  0  0  0  0  0  0  0  0
   90.0404   94.4910   90.1201 H   0  0  0  0  0  0  0  0  0  0  0  0
   92.0829   87.4678   90.2167 C   0  0  0  0  0  0  0  0  0  0  0  0
   91.0649   86.3879   90.4856 C   0  0  0  0  0  0  0  0  0  0  0  0
   91.4529   85.0440   90.5355 C   0  0  0  0  0  0  0  0  0  0  0  0
   90.5237   84.0293   90.8455 C   0  0  0  0  0  0  0  0  0  0  0  0
   89.1843   84.4100   91.0770 C   0  0  0  0  0  0  0  0  0  0  0  0
   88.7598   85.7544   91.0052 C   0  0  0  0  0  0  0  0  0  0  0  0
   89.7278   86.7356   90.7061 C   0  0  0  0  0  0  0  0  0  0  0  0
   90.9232   82.5422   90.9616 C   0  0  0  0  0  0  0  0  0  0  0  0
   90.7064   81.7480   89.6504 C   0  0  0  0  0  0  0  0  0  0  0  0
   90.0787   81.8639   92.0629 C   0  0  0  0  0  0  0  0  0  0  0  0
   92.4208   82.4409   91.3259 C   0  0  0  0  0  0  0  0  0  0  0  0
   87.2793   86.1003   91.2746 C   0  0  0  0  0  0  0  0  0  0  0  0
   87.0787   87.6266   91.1527 C   0  0  0  0  0  0  0  0  0  0  0  0
   86.3040   85.4182   90.2844 C   0  0  0  0  0  0  0  0  0  0  0  0
   86.8916   85.6431   92.6988 C   0  0  0  0  0  0  0  0  0  0  0  0
  8  9  1  0  0  0
  9 10  2  0  0  0
  9 11  1  0  0  0
 11  2  1  0  0  0
  2  3  2  0  0  0
  3  4  1  0  0  0
  4  5  2  0  0  0
  5  1  1  0  0  0
  1 17  1  0  0  0
 17 18  1  0  0  0
 18 19  2  0  0  0
 19 20  1  0  0  0
 20 24  1  0  0  0
 24 25  1  0  0  0
 24 26  1  0  0  0
 24 27  1  0  0  0
 20 21  2  0  0  0
 21 22  1  0  0  0
 22 28  1  0  0  0
 28 29  1  0  0  0
 28 30  1  0  0  0
 28 31  1  0  0  0
 22 23  2  0  0  0
  5  6  1  0  0  0
  6  7  2  0  0  0
  7 13  1  0  0  0
 13 14  2  0  0  0
 13 15  1  0  0  0
  7  2  1  0  0  0
 23 18  1  0  0  0
 11 12  1  0  0  0
 15 16  1  0  0  0
M  END
> <Activity>
29.4

> <minimizedAffinity>
-8.01493

> <CNNscore>
0.7531961799

> <CNNaffinity>
6.5926160812

> <CNN_VS>
4.9655332565

$$$$
HIPS6276


 31 32  0  0  0  0  0  0  0  0999 V2000
   90.0969   88.7826   90.2004 O   0  0  0  0  0  0  0  0  0  0  0  0
   90.5531   92.6196   91.9039 C   0  0  0  0  0  0  0  0  0  0  0  0
   91.5406   91.6357   92.0415 C   0  0  0  0  0  0  0  0  0  0  0  0
   91.3686   90.3719   91.4774 C   0  0  0  0  0  0  0  0  0  0  0  0
   90.2117   90.0671   90.7579 C   0  0  0  0  0  0  0  0  0  0  0  0
   89.2169   91.0512   90.6094 C   0  0  0  0  0  0  0  0  0  0  0  0
   89.3863   92.3399   91.1495 C   0  0  0  0  0  0  0  0  0  0  0  0
   91.5835   96.2730   92.6494 C   0  0  0  0  0  0  0  0  0  0  0  0
   91.4432   94.9696   91.9337 C   0  0  0  0  0  0  0  0  0  0  0  0
   91.8962   94.8508   90.7628 O   0  0  0  0  0  0  0  0  0  0  0  0
   90.7508   93.8802   92.5602 N   0  0  0  0  0  0  0  0  0  0  0  0
   90.3992   94.0018   93.4717 H   0  0  0  0  0  0  0  0  0  0  0  0
   88.3673   93.3783   90.8598 C   0  0  0  0  0  0  0  0  0  0  0  0
   87.9980   94.1741   91.7654 O   0  0  0  0  0  0  0  0  0  0  0  0
   87.7794   93.4636   89.6007 O   0  0  0  0  0  0  0  0  0  0  0  0
   88.0450   92.8781   88.9190 H   0  0  0  0  0  0  0  0  0  0  0  0
   91.0053   87.7019   90.4213 C   0  0  0  0  0  0  0  0  0  0  0  0
   90.2550   86.4394   90.7643 C   0  0  0  0  0  0  0  0  0  0  0  0
   88.8939   86.4888   91.0873 C   0  0  0  0  0  0  0  0  0  0  0  0
   88.1654   85.3104   91.3512 C   0  0  0  0  0  0  0  0  0  0  0  0
   88.8593   84.0820   91.3058 C   0  0  0  0  0  0  0  0  0  0  0  0
   90.2376   84.0056   91.0107 C   0  0  0  0  0  0  0  0  0  0  0  0
   90.9209   85.2092   90.7396 C   0  0  0  0  0  0  0  0  0  0  0  0
   86.6523   85.3189   91.6596 C   0  0  0  0  0  0  0  0  0  0  0  0
   86.2088   84.1489   92.5714 C   0  0  0  0  0  0  0  0  0  0  0  0
   85.8549   85.2108   90.3410 C   0  0  0  0  0  0  0  0  0  0  0  0
   86.2831   86.6356   92.3777 C   0  0  0  0  0  0  0  0  0  0  0  0
   90.9325   82.6271   90.9734 C   0  0  0  0  0  0  0  0  0  0  0  0
   90.2778   81.6942   92.0152 C   0  0  0  0  0  0  0  0  0  0  0  0
   90.8341   81.9321   89.5934 C   0  0  0  0  0  0  0  0  0  0  0  0
   92.4326   82.7944   91.3041 C   0  0  0  0  0  0  0  0  0  0  0  0
  8  9  1  0  0  0
  9 10  2  0  0  0
  9 11  1  0  0  0
 11  2  1  0  0  0
  2  3  2  0  0  0
  3  4  1  0  0  0
  4  5  2  0  0  0
  5  1  1  0  0  0
  1 17  1  0  0  0
 17 18  1  0  0  0
 18 19  2  0  0  0
 19 20  1  0  0  0
 20 24  1  0  0  0
 24 25  1  0  0  0
 24 26  1  0  0  0
 24 27  1  0  0  0
 20 21  2  0  0  0
 21 22  1  0  0  0
 22 28  1  0  0  0
 28 29  1  0  0  0
 28 30  1  0  0  0
 28 31  1  0  0  0
 22 23  2  0  0  0
  5  6  1  0  0  0
  6  7  2  0  0  0
  7 13  1  0  0  0
 13 14  2  0  0  0
 13 15  1  0  0  0
  7  2  1  0  0  0
 23 18  1  0  0  0
 11 12  1  0  0  0
 15 16  1  0  0  0
M  END
> <Activity>
29.4

> <minimizedAffinity>
-8.02224

> <CNNscore>
0.7329953313

> <CNNaffinity>
6.4890995026

> <CNN_VS>
4.7564797401

$$$$
HIPS6276


 31 32  0  0  0  0  0  0  0  0999 V2000
   90.0630   90.2391   89.4207 O   0  0  0  0  0  0  0  0  0  0  0  0
   90.0176   93.5240   92.0740 C   0  0  0  0  0  0  0  0  0  0  0  0
   89.6602   92.2372   92.4963 C   0  0  0  0  0  0  0  0  0  0  0  0
   89.6749   91.1660   91.6034 C   0  0  0  0  0  0  0  0  0  0  0  0
   90.0542   91.3558   90.2733 C   0  0  0  0  0  0  0  0  0  0  0  0
   90.4205   92.6439   89.8414 C   0  0  0  0  0  0  0  0  0  0  0  0
   90.4370   93.7305   90.7359 C   0  0  0  0  0  0  0  0  0  0  0  0
   88.6479   96.4120   94.2531 C   0  0  0  0  0  0  0  0  0  0  0  0
   88.7004   95.3255   93.2296 C   0  0  0  0  0  0  0  0  0  0  0  0
   87.6563   95.0211   92.5912 O   0  0  0  0  0  0  0  0  0  0  0  0
   89.9210   94.6021   93.0160 N   0  0  0  0  0  0  0  0  0  0  0  0
   90.7197   94.8540   93.5336 H   0  0  0  0  0  0  0  0  0  0  0  0
   90.9497   95.0401   90.2639 C   0  0  0  0  0  0  0  0  0  0  0  0
   90.5567   95.5156   89.1642 O   0  0  0  0  0  0  0  0  0  0  0  0
   91.8961   95.7409   91.0065 O   0  0  0  0  0  0  0  0  0  0  0  0
   92.1964   95.3983   91.8253 H   0  0  0  0  0  0  0  0  0  0  0  0
   90.7564   89.0148   89.6701 C   0  0  0  0  0  0  0  0  0  0  0  0
   89.7845   87.9160   90.0199 C   0  0  0  0  0  0  0  0  0  0  0  0
   90.2181   86.7793   90.7122 C   0  0  0  0  0  0  0  0  0  0  0  0
   89.3099   85.7721   91.0989 C   0  0  0  0  0  0  0  0  0  0  0  0
   87.9540   85.9343   90.7415 C   0  0  0  0  0  0  0  0  0  0  0  0
   87.4941   87.0564   90.0189 C   0  0  0  0  0  0  0  0  0  0  0  0
   88.4369   88.0445   89.6667 C   0  0  0  0  0  0  0  0  0  0  0  0
   89.7402   84.5296   91.9086 C   0  0  0  0  0  0  0  0  0  0  0  0
   88.5626   83.8395   92.6392 C   0  0  0  0  0  0  0  0  0  0  0  0
   90.7755   84.9421   92.9783 C   0  0  0  0  0  0  0  0  0  0  0  0
   90.3710   83.4905   90.9557 C   0  0  0  0  0  0  0  0  0  0  0  0
   85.9955   87.1718   89.6652 C   0  0  0  0  0  0  0  0  0  0  0  0
   85.5674   85.9401   88.8379 C   0  0  0  0  0  0  0  0  0  0  0  0
   85.0788   87.2421   90.9109 C   0  0  0  0  0  0  0  0  0  0  0  0
   85.7560   88.4549   88.8382 C   0  0  0  0  0  0  0  0  0  0  0  0
  8  9  1  0  0  0
  9 10  2  0  0  0
  9 11  1  0  0  0
 11  2  1  0  0  0
  2  3  2  0  0  0
  3  4  1  0  0  0
  4  5  2  0  0  0
  5  1  1  0  0  0
  1 17  1  0  0  0
 17 18  1  0  0  0
 18 19  2  0  0  0
 19 20  1  0  0  0
 20 24  1  0  0  0
 24 25  1  0  0  0
 24 26  1  0  0  0
 24 27  1  0  0  0
 20 21  2  0  0  0
 21 22  1  0  0  0
 22 28  1  0  0  0
 28 29  1  0  0  0
 28 30  1  0  0  0
 28 31  1  0  0  0
 22 23  2  0  0  0
  5  6  1  0  0  0
  6  7  2  0  0  0
  7 13  1  0  0  0
 13 14  2  0  0  0
 13 15  1  0  0  0
  7  2  1  0  0  0
 23 18  1  0  0  0
 11 12  1  0  0  0
 15 16  1  0  0  0
M  END
> <Activity>
29.4

> <minimizedAffinity>
-6.97588

> <CNNscore>
0.6341184378

> <CNNaffinity>
6.3256025314

> <CNN_VS>
4.0111813545

$$$$
HIPS7022


 39 41  0  0  0  0  0  0  0  0999 V2000
   91.0375   87.2747   90.3396 C   0  0  0  0  0  0  0  0  0  0  0  0
   92.3570   87.6016   90.4167 N   0  0  0  0  0  0  0  0  0  0  0  0
   92.8064   88.8241   90.0337 C   0  0  0  0  0  0  0  0  0  0  0  0
   91.9068   89.7825   89.5566 C   0  0  0  0  0  0  0  0  0  0  0  0
   90.5574   89.4250   89.4644 C   0  0  0  0  0  0  0  0  0  0  0  0
   90.1524   88.1909   89.8601 N   0  0  0  0  0  0  0  0  0  0  0  0
   88.9576   84.5471   91.9948 C   0  0  0  0  0  0  0  0  0  0  0  0
   89.7015   83.4058   91.6439 C   0  0  0  0  0  0  0  0  0  0  0  0
   90.8651   83.5269   90.8840 C   0  0  0  0  0  0  0  0  0  0  0  0
   91.2986   84.7819   90.4560 C   0  0  0  0  0  0  0  0  0  0  0  0
   90.5694   85.9386   90.7846 C   0  0  0  0  0  0  0  0  0  0  0  0
   89.3967   85.8066   91.5541 C   0  0  0  0  0  0  0  0  0  0  0  0
   87.7594   84.4607   92.7886 N   0  0  0  0  0  0  0  0  0  0  0  0
   87.8554   84.2600   93.7477 H   0  0  0  0  0  0  0  0  0  0  0  0
   86.1564   84.6879   92.1624 S   0  0  0  0  0  0  0  0  0  0  0  0
   85.4040   85.6450   93.0426 O   0  0  0  0  0  0  0  0  0  0  0  0
   85.4407   83.3669   92.1758 O   0  0  0  0  0  0  0  0  0  0  0  0
   86.2576   85.2626   90.4675 C   0  0  0  0  0  0  0  0  0  0  0  0
   86.3642   86.7931   90.3574 C   0  0  0  0  0  0  0  0  0  0  0  0
   85.6210   87.4147   89.1558 C   0  0  0  0  0  0  0  0  0  0  0  0
   86.4304   88.4244   88.3189 C   0  0  0  0  0  0  0  0  0  0  0  0
   86.6266   87.9836   86.8585 C   0  0  0  0  0  0  0  0  0  0  0  0
   85.3886   87.2622   86.2995 C   0  0  0  0  0  0  0  0  0  0  0  0
   84.9344   84.7840   86.5255 C   0  0  0  0  0  0  0  0  0  0  0  0
   85.7268   85.8556   85.7794 C   0  0  0  0  0  0  0  0  0  0  0  0
   92.3859   91.1478   89.1411 C   0  0  0  0  0  0  0  0  0  0  0  0
   92.2643   92.0775   90.2193 O   0  0  0  0  0  0  0  0  0  0  0  0
   91.0745   92.7114   90.6162 C   0  0  0  0  0  0  0  0  0  0  0  0
   90.6216   92.5032   91.9209 C   0  0  0  0  0  0  0  0  0  0  0  0
   89.4416   93.0983   92.3655 C   0  0  0  0  0  0  0  0  0  0  0  0
   88.6924   93.9185   91.5111 C   0  0  0  0  0  0  0  0  0  0  0  0
   87.5171   94.5017   91.9826 O   0  0  0  0  0  0  0  0  0  0  0  0
   89.1355   94.1482   90.1882 C   0  0  0  0  0  0  0  0  0  0  0  0
   90.3312   93.5409   89.7553 C   0  0  0  0  0  0  0  0  0  0  0  0
   87.2345   94.3415   92.8615 H   0  0  0  0  0  0  0  0  0  0  0  0
   88.3699   95.0088   89.2495 C   0  0  0  0  0  0  0  0  0  0  0  0
   87.1217   94.8721   89.1373 O   0  0  0  0  0  0  0  0  0  0  0  0
   89.0119   95.9796   88.4856 O   0  0  0  0  0  0  0  0  0  0  0  0
   89.9391   96.0943   88.5570 H   0  0  0  0  0  0  0  0  0  0  0  0
 24 25  1  0  0  0
 25 23  1  0  0  0
 23 22  1  0  0  0
 22 21  1  0  0  0
 21 20  1  0  0  0
 20 19  1  0  0  0
 19 18  1  0  0  0
 18 15  1  0  0  0
 15 16  2  0  0  0
 15 17  2  0  0  0
 15 13  1  0  0  0
 13  7  1  0  0  0
  7  8  2  0  0  0
  8  9  1  0  0  0
  9 10  2  0  0  0
 10 11  1  0  0  0
 11  1  1  0  0  0
  1  2  2  0  0  0
  2  3  2  0  0  0
  3  4  2  0  0  0
  4 26  1  0  0  0
 26 27  1  0  0  0
 27 28  1  0  0  0
 28 29  2  0  0  0
 29 30  1  0  0  0
 30 31  2  0  0  0
 31 32  1  0  0  0
 31 33  1  0  0  0
 33 36  1  0  0  0
 36 37  2  0  0  0
 36 38  1  0  0  0
 33 34  2  0  0  0
  4  5  1  0  0  0
  5  6  2  0  0  0
 11 12  2  0  0  0
 12  7  1  0  0  0
  6  1  2  0  0  0
 34 28  1  0  0  0
 13 14  1  0  0  0
 32 35  1  0  0  0
 38 39  1  0  0  0
M  END
> <Activity>
30.7

> <minimizedAffinity>
-6.85016

> <CNNscore>
0.3170889020

> <CNNaffinity>
6.9252777100

> <CNN_VS>
2.1959288120

$$$$
HIPS7022


 39 41  0  0  0  0  0  0  0  0999 V2000
   88.0197   89.7574   90.0060 C   0  0  0  0  0  0  0  0  0  0  0  0
   89.1496   89.8038   90.7644 N   0  0  0  0  0  0  0  0  0  0  0  0
   89.7489   90.9832   91.0693 C   0  0  0  0  0  0  0  0  0  0  0  0
   89.2018   92.1854   90.6103 C   0  0  0  0  0  0  0  0  0  0  0  0
   88.0523   92.1202   89.8155 C   0  0  0  0  0  0  0  0  0  0  0  0
   87.4857   90.9182   89.5367 N   0  0  0  0  0  0  0  0  0  0  0  0
   87.1786   86.0436   90.0784 C   0  0  0  0  0  0  0  0  0  0  0  0
   86.1571   85.9909   89.1124 C   0  0  0  0  0  0  0  0  0  0  0  0
   85.7546   87.1483   88.4459 C   0  0  0  0  0  0  0  0  0  0  0  0
   86.3552   88.3732   88.7374 C   0  0  0  0  0  0  0  0  0  0  0  0
   87.3724   88.4564   89.7049 C   0  0  0  0  0  0  0  0  0  0  0  0
   87.7737   87.2818   90.3714 C   0  0  0  0  0  0  0  0  0  0  0  0
   87.6282   84.8670   90.7762 N   0  0  0  0  0  0  0  0  0  0  0  0
   88.1381   84.1960   90.2674 H   0  0  0  0  0  0  0  0  0  0  0  0
   87.3285   84.5565   92.4576 S   0  0  0  0  0  0  0  0  0  0  0  0
   86.0792   83.7347   92.6020 O   0  0  0  0  0  0  0  0  0  0  0  0
   87.1190   85.8674   93.1613 O   0  0  0  0  0  0  0  0  0  0  0  0
   88.7582   83.7479   93.1755 C   0  0  0  0  0  0  0  0  0  0  0  0
   89.8100   83.3456   92.1277 C   0  0  0  0  0  0  0  0  0  0  0  0
   90.2628   81.8712   92.1898 C   0  0  0  0  0  0  0  0  0  0  0  0
   91.2529   81.4294   91.0946 C   0  0  0  0  0  0  0  0  0  0  0  0
   91.3705   82.4379   89.9393 C   0  0  0  0  0  0  0  0  0  0  0  0
   91.4170   81.7445   88.5672 C   0  0  0  0  0  0  0  0  0  0  0  0
   91.8192   79.5831   87.3161 C   0  0  0  0  0  0  0  0  0  0  0  0
   91.8349   80.2693   88.6805 C   0  0  0  0  0  0  0  0  0  0  0  0
   89.8454   93.5030   90.9508 C   0  0  0  0  0  0  0  0  0  0  0  0
   89.6041   93.8471   92.3164 O   0  0  0  0  0  0  0  0  0  0  0  0
   88.5979   94.7167   92.7704 C   0  0  0  0  0  0  0  0  0  0  0  0
   87.5716   95.0546   91.8853 C   0  0  0  0  0  0  0  0  0  0  0  0
   86.5529   95.9217   92.2783 C   0  0  0  0  0  0  0  0  0  0  0  0
   86.5401   96.4657   93.5698 C   0  0  0  0  0  0  0  0  0  0  0  0
   85.5084   97.3290   93.9362 O   0  0  0  0  0  0  0  0  0  0  0  0
   87.5654   96.1323   94.4844 C   0  0  0  0  0  0  0  0  0  0  0  0
   88.5866   95.2529   94.0720 C   0  0  0  0  0  0  0  0  0  0  0  0
   84.8348   97.5419   93.3206 H   0  0  0  0  0  0  0  0  0  0  0  0
   87.5907   96.6888   95.8620 C   0  0  0  0  0  0  0  0  0  0  0  0
   88.5689   97.3841   96.2480 O   0  0  0  0  0  0  0  0  0  0  0  0
   86.5387   96.4588   96.7443 O   0  0  0  0  0  0  0  0  0  0  0  0
   85.8040   95.9442   96.4734 H   0  0  0  0  0  0  0  0  0  0  0  0
 24 25  1  0  0  0
 25 23  1  0  0  0
 23 22  1  0  0  0
 22 21  1  0  0  0
 21 20  1  0  0  0
 20 19  1  0  0  0
 19 18  1  0  0  0
 18 15  1  0  0  0
 15 16  2  0  0  0
 15 17  2  0  0  0
 15 13  1  0  0  0
 13  7  1  0  0  0
  7  8  2  0  0  0
  8  9  1  0  0  0
  9 10  2  0  0  0
 10 11  1  0  0  0
 11  1  1  0  0  0
  1  2  2  0  0  0
  2  3  2  0  0  0
  3  4  2  0  0  0
  4 26  1  0  0  0
 26 27  1  0  0  0
 27 28  1  0  0  0
 28 29  2  0  0  0
 29 30  1  0  0  0
 30 31  2  0  0  0
 31 32  1  0  0  0
 31 33  1  0  0  0
 33 36  1  0  0  0
 36 37  2  0  0  0
 36 38  1  0  0  0
 33 34  2  0  0  0
  4  5  1  0  0  0
  5  6  2  0  0  0
 11 12  2  0  0  0
 12  7  1  0  0  0
  6  1  2  0  0  0
 34 28  1  0  0  0
 13 14  1  0  0  0
 32 35  1  0  0  0
 38 39  1  0  0  0
M  END
> <Activity>
30.7

> <minimizedAffinity>
-7.77259

> <CNNscore>
0.3080098927

> <CNNaffinity>
6.2644500732

> <CNN_VS>
1.9295126200

$$$$
HIPS7022


 39 41  0  0  0  0  0  0  0  0999 V2000
   91.4847   91.5179   90.6935 C   0  0  0  0  0  0  0  0  0  0  0  0
   92.6664   90.8811   90.4653 N   0  0  0  0  0  0  0  0  0  0  0  0
   92.7289   89.5310   90.3363 C   0  0  0  0  0  0  0  0  0  0  0  0
   91.5629   88.7645   90.4277 C   0  0  0  0  0  0  0  0  0  0  0  0
   90.3596   89.4312   90.6824 C   0  0  0  0  0  0  0  0  0  0  0  0
   90.3439   90.7835   90.8032 N   0  0  0  0  0  0  0  0  0  0  0  0
   91.3419   95.0169   92.1908 C   0  0  0  0  0  0  0  0  0  0  0  0
   91.3344   95.7986   91.0212 C   0  0  0  0  0  0  0  0  0  0  0  0
   91.3702   95.1918   89.7656 C   0  0  0  0  0  0  0  0  0  0  0  0
   91.4231   93.8020   89.6569 C   0  0  0  0  0  0  0  0  0  0  0  0
   91.4409   92.9967   90.8096 C   0  0  0  0  0  0  0  0  0  0  0  0
   91.4024   93.6183   92.0733 C   0  0  0  0  0  0  0  0  0  0  0  0
   91.2928   95.6086   93.5026 N   0  0  0  0  0  0  0  0  0  0  0  0
   92.1326   95.6687   94.0128 H   0  0  0  0  0  0  0  0  0  0  0  0
   89.8472   96.2228   94.2418 S   0  0  0  0  0  0  0  0  0  0  0  0
   89.3272   97.3828   93.4411 O   0  0  0  0  0  0  0  0  0  0  0  0
   90.1805   96.7103   95.6234 O   0  0  0  0  0  0  0  0  0  0  0  0
   88.6441   94.9012   94.3799 C   0  0  0  0  0  0  0  0  0  0  0  0
   87.7854   94.7358   93.1145 C   0  0  0  0  0  0  0  0  0  0  0  0
   86.3666   95.3370   93.2050 C   0  0  0  0  0  0  0  0  0  0  0  0
   85.7220   95.7340   91.8626 C   0  0  0  0  0  0  0  0  0  0  0  0
   85.8128   94.6303   90.7953 C   0  0  0  0  0  0  0  0  0  0  0  0
   86.7641   95.0103   89.6481 C   0  0  0  0  0  0  0  0  0  0  0  0
   87.4213   92.5737   89.8200 C   0  0  0  0  0  0  0  0  0  0  0  0
   87.8948   93.9835   89.4725 C   0  0  0  0  0  0  0  0  0  0  0  0
   91.6121   87.2680   90.2729 C   0  0  0  0  0  0  0  0  0  0  0  0
   90.4161   86.6670   90.7730 O   0  0  0  0  0  0  0  0  0  0  0  0
   90.2939   85.3348   91.2035 C   0  0  0  0  0  0  0  0  0  0  0  0
   89.5350   85.0800   92.3479 C   0  0  0  0  0  0  0  0  0  0  0  0
   89.3886   83.7787   92.8267 C   0  0  0  0  0  0  0  0  0  0  0  0
   89.9978   82.7042   92.1648 C   0  0  0  0  0  0  0  0  0  0  0  0
   89.8335   81.4132   92.6651 O   0  0  0  0  0  0  0  0  0  0  0  0
   90.7654   82.9381   91.0007 C   0  0  0  0  0  0  0  0  0  0  0  0
   90.9017   84.2590   90.5289 C   0  0  0  0  0  0  0  0  0  0  0  0
   89.3223   81.2716   93.4375 H   0  0  0  0  0  0  0  0  0  0  0  0
   91.4299   81.8276   90.2705 C   0  0  0  0  0  0  0  0  0  0  0  0
   92.0600   80.9385   90.9043 O   0  0  0  0  0  0  0  0  0  0  0  0
   91.3646   81.7460   88.8823 O   0  0  0  0  0  0  0  0  0  0  0  0
   90.9004   82.3986   88.3960 H   0  0  0  0  0  0  0  0  0  0  0  0
 24 25  1  0  0  0
 25 23  1  0  0  0
 23 22  1  0  0  0
 22 21  1  0  0  0
 21 20  1  0  0  0
 20 19  1  0  0  0
 19 18  1  0  0  0
 18 15  1  0  0  0
 15 16  2  0  0  0
 15 17  2  0  0  0
 15 13  1  0  0  0
 13  7  1  0  0  0
  7  8  2  0  0  0
  8  9  1  0  0  0
  9 10  2  0  0  0
 10 11  1  0  0  0
 11  1  1  0  0  0
  1  2  2  0  0  0
  2  3  2  0  0  0
  3  4  2  0  0  0
  4 26  1  0  0  0
 26 27  1  0  0  0
 27 28  1  0  0  0
 28 29  2  0  0  0
 29 30  1  0  0  0
 30 31  2  0  0  0
 31 32  1  0  0  0
 31 33  1  0  0  0
 33 36  1  0  0  0
 36 37  2  0  0  0
 36 38  1  0  0  0
 33 34  2  0  0  0
  4  5  1  0  0  0
  5  6  2  0  0  0
 11 12  2  0  0  0
 12  7  1  0  0  0
  6  1  2  0  0  0
 34 28  1  0  0  0
 13 14  1  0  0  0
 32 35  1  0  0  0
 38 39  1  0  0  0
M  END
> <Activity>
30.7

> <minimizedAffinity>
-6.24274

> <CNNscore>
0.2692137957

> <CNNaffinity>
6.4124364853

> <CNN_VS>
1.7263163328

$$$$
HIPS6101


 33 36  0  0  0  0  0  0  0  0999 V2000
   90.8836   92.5309   90.9671 C   0  0  0  0  0  0  0  0  0  0  0  0
   91.7416   92.8128   89.8943 C   0  0  0  0  0  0  0  0  0  0  0  0
   92.1567   91.7922   89.0369 C   0  0  0  0  0  0  0  0  0  0  0  0
   91.7229   90.4812   89.2430 C   0  0  0  0  0  0  0  0  0  0  0  0
   90.8742   90.1747   90.3203 C   0  0  0  0  0  0  0  0  0  0  0  0
   90.4758   91.2045   91.1908 C   0  0  0  0  0  0  0  0  0  0  0  0
   90.3883   88.7881   90.5261 C   0  0  0  0  0  0  0  0  0  0  0  0
   89.0245   88.5411   90.7646 C   0  0  0  0  0  0  0  0  0  0  0  0
   88.5606   87.2333   90.9221 C   0  0  0  0  0  0  0  0  0  0  0  0
   89.4510   86.1599   90.8552 C   0  0  0  0  0  0  0  0  0  0  0  0
   90.8152   86.3850   90.6461 C   0  0  0  0  0  0  0  0  0  0  0  0
   91.2790   87.7007   90.4654 C   0  0  0  0  0  0  0  0  0  0  0  0
   91.6781   85.2818   90.5765 O   0  0  0  0  0  0  0  0  0  0  0  0
   91.3082   83.9493   90.8105 C   0  0  0  0  0  0  0  0  0  0  0  0
   91.5338   83.0008   89.8051 C   0  0  0  0  0  0  0  0  0  0  0  0
   91.1569   81.6675   89.9946 C   0  0  0  0  0  0  0  0  0  0  0  0
   90.5378   81.2766   91.1858 C   0  0  0  0  0  0  0  0  0  0  0  0
   90.2981   82.2179   92.1900 C   0  0  0  0  0  0  0  0  0  0  0  0
   90.6760   83.5514   92.0041 C   0  0  0  0  0  0  0  0  0  0  0  0
   90.4513   93.6411   91.8936 C   0  0  0  0  0  0  0  0  0  0  0  0
   89.2011   93.3516   92.5222 O   0  0  0  0  0  0  0  0  0  0  0  0
   87.3936   95.9379   94.4746 C   0  0  0  0  0  0  0  0  0  0  0  0
   88.3528   94.9902   94.0666 C   0  0  0  0  0  0  0  0  0  0  0  0
   88.2231   94.3036   92.8553 C   0  0  0  0  0  0  0  0  0  0  0  0
   87.1271   94.5807   92.0222 C   0  0  0  0  0  0  0  0  0  0  0  0
   86.1728   95.5213   92.4077 C   0  0  0  0  0  0  0  0  0  0  0  0
   86.2930   96.2007   93.6278 C   0  0  0  0  0  0  0  0  0  0  0  0
   85.3204   97.1337   93.9883 O   0  0  0  0  0  0  0  0  0  0  0  0
   84.5955   97.2990   93.4180 H   0  0  0  0  0  0  0  0  0  0  0  0
   86.5831   96.7350   96.5699 O   0  0  0  0  0  0  0  0  0  0  0  0
   87.5590   96.6316   95.7781 C   0  0  0  0  0  0  0  0  0  0  0  0
   88.7844   97.1795   96.1465 O   0  0  0  0  0  0  0  0  0  0  0  0
   89.5201   97.1118   95.5702 H   0  0  0  0  0  0  0  0  0  0  0  0
 30 31  2  0  0  0
 31 32  1  0  0  0
 31 22  1  0  0  0
 22 23  2  0  0  0
 23 24  1  0  0  0
 24 21  1  0  0  0
 21 20  1  0  0  0
 20  1  1  0  0  0
  1  2  2  0  0  0
  2  3  1  0  0  0
  3  4  2  0  0  0
  4  5  1  0  0  0
  5  7  1  0  0  0
  7  8  2  0  0  0
  8  9  1  0  0  0
  9 10  2  0  0  0
 10 11  1  0  0  0
 11 13  1  0  0  0
 13 14  1  0  0  0
 14 15  2  0  0  0
 15 16  1  0  0  0
 16 17  2  0  0  0
 17 18  1  0  0  0
 18 19  2  0  0  0
 11 12  2  0  0  0
  5  6  2  0  0  0
 24 25  2  0  0  0
 25 26  1  0  0  0
 26 27  2  0  0  0
 27 28  1  0  0  0
 27 22  1  0  0  0
  6  1  1  0  0  0
 12  7  1  0  0  0
 19 14  1  0  0  0
 32 33  1  0  0  0
 28 29  1  0  0  0
M  END
> <Activity>
39.1

> <minimizedAffinity>
-9.52226

> <CNNscore>
0.6332710981

> <CNNaffinity>
5.8209438324

> <CNN_VS>
3.6862354279

$$$$
HIPS6101


 33 36  0  0  0  0  0  0  0  0999 V2000
   89.2337   87.9962   90.6751 C   0  0  0  0  0  0  0  0  0  0  0  0
   90.4286   88.5532   90.1971 C   0  0  0  0  0  0  0  0  0  0  0  0
   91.5861   87.7766   90.1179 C   0  0  0  0  0  0  0  0  0  0  0  0
   91.5636   86.4390   90.5175 C   0  0  0  0  0  0  0  0  0  0  0  0
   90.3804   85.8651   91.0127 C   0  0  0  0  0  0  0  0  0  0  0  0
   89.2236   86.6588   91.1074 C   0  0  0  0  0  0  0  0  0  0  0  0
   90.3452   84.4366   91.4117 C   0  0  0  0  0  0  0  0  0  0  0  0
   89.4791   84.0051   92.4324 C   0  0  0  0  0  0  0  0  0  0  0  0
   89.4189   82.6547   92.7835 C   0  0  0  0  0  0  0  0  0  0  0  0
   90.2281   81.7229   92.1305 C   0  0  0  0  0  0  0  0  0  0  0  0
   91.1159   82.1346   91.1317 C   0  0  0  0  0  0  0  0  0  0  0  0
   91.1605   83.4914   90.7628 C   0  0  0  0  0  0  0  0  0  0  0  0
   91.9067   81.1692   90.4922 O   0  0  0  0  0  0  0  0  0  0  0  0
   91.6558   80.6298   89.2221 C   0  0  0  0  0  0  0  0  0  0  0  0
   90.4774   80.9913   88.5571 C   0  0  0  0  0  0  0  0  0  0  0  0
   90.1832   80.4554   87.2994 C   0  0  0  0  0  0  0  0  0  0  0  0
   91.0589   79.5421   86.7044 C   0  0  0  0  0  0  0  0  0  0  0  0
   92.2314   79.1665   87.3650 C   0  0  0  0  0  0  0  0  0  0  0  0
   92.5291   79.7026   88.6218 C   0  0  0  0  0  0  0  0  0  0  0  0
   87.9922   88.8494   90.7665 C   0  0  0  0  0  0  0  0  0  0  0  0
   86.8195   88.1220   90.3956 O   0  0  0  0  0  0  0  0  0  0  0  0
   85.6341   86.3548   87.3559 C   0  0  0  0  0  0  0  0  0  0  0  0
   86.0628   86.6250   88.6704 C   0  0  0  0  0  0  0  0  0  0  0  0
   86.3712   87.9265   89.0786 C   0  0  0  0  0  0  0  0  0  0  0  0
   86.2300   88.9845   88.1660 C   0  0  0  0  0  0  0  0  0  0  0  0
   85.7996   88.7351   86.8635 C   0  0  0  0  0  0  0  0  0  0  0  0
   85.5033   87.4298   86.4478 C   0  0  0  0  0  0  0  0  0  0  0  0
   85.0783   87.2107   85.1371 O   0  0  0  0  0  0  0  0  0  0  0  0
   84.9957   87.9319   84.5446 H   0  0  0  0  0  0  0  0  0  0  0  0
   86.1731   84.0395   87.1781 O   0  0  0  0  0  0  0  0  0  0  0  0
   85.3346   84.9550   86.9574 C   0  0  0  0  0  0  0  0  0  0  0  0
   84.1329   84.6300   86.3345 O   0  0  0  0  0  0  0  0  0  0  0  0
   83.4986   85.2980   86.1629 H   0  0  0  0  0  0  0  0  0  0  0  0
 30 31  2  0  0  0
 31 32  1  0  0  0
 31 22  1  0  0  0
 22 23  2  0  0  0
 23 24  1  0  0  0
 24 21  1  0  0  0
 21 20  1  0  0  0
 20  1  1  0  0  0
  1  2  2  0  0  0
  2  3  1  0  0  0
  3  4  2  0  0  0
  4  5  1  0  0  0
  5  7  1  0  0  0
  7  8  2  0  0  0
  8  9  1  0  0  0
  9 10  2  0  0  0
 10 11  1  0  0  0
 11 13  1  0  0  0
 13 14  1  0  0  0
 14 15  2  0  0  0
 15 16  1  0  0  0
 16 17  2  0  0  0
 17 18  1  0  0  0
 18 19  2  0  0  0
 11 12  2  0  0  0
  5  6  2  0  0  0
 24 25  2  0  0  0
 25 26  1  0  0  0
 26 27  2  0  0  0
 27 28  1  0  0  0
 27 22  1  0  0  0
  6  1  1  0  0  0
 12  7  1  0  0  0
 19 14  1  0  0  0
 32 33  1  0  0  0
 28 29  1  0  0  0
M  END
> <Activity>
39.1

> <minimizedAffinity>
-9.82119

> <CNNscore>
0.5965431929

> <CNNaffinity>
6.2736740112

> <CNN_VS>
3.7425174713

$$$$
HIPS6101


 33 36  0  0  0  0  0  0  0  0999 V2000
   88.0152   84.9928   92.2269 C   0  0  0  0  0  0  0  0  0  0  0  0
   88.7946   83.8471   92.4419 C   0  0  0  0  0  0  0  0  0  0  0  0
   90.1353   83.8234   92.0530 C   0  0  0  0  0  0  0  0  0  0  0  0
   90.7100   84.9403   91.4434 C   0  0  0  0  0  0  0  0  0  0  0  0
   89.9430   86.0936   91.2059 C   0  0  0  0  0  0  0  0  0  0  0  0
   88.5885   86.1031   91.5830 C   0  0  0  0  0  0  0  0  0  0  0  0
   90.5573   87.2924   90.5842 C   0  0  0  0  0  0  0  0  0  0  0  0
   91.9132   87.2832   90.2106 C   0  0  0  0  0  0  0  0  0  0  0  0
   92.4829   88.3982   89.5920 C   0  0  0  0  0  0  0  0  0  0  0  0
   91.7120   89.5369   89.3499 C   0  0  0  0  0  0  0  0  0  0  0  0
   90.3691   89.5771   89.7379 C   0  0  0  0  0  0  0  0  0  0  0  0
   89.7896   88.4460   90.3409 C   0  0  0  0  0  0  0  0  0  0  0  0
   89.6241   90.7347   89.4707 O   0  0  0  0  0  0  0  0  0  0  0  0
   89.3258   91.7382   90.4040 C   0  0  0  0  0  0  0  0  0  0  0  0
   88.4335   92.7541   90.0392 C   0  0  0  0  0  0  0  0  0  0  0  0
   88.1304   93.7836   90.9359 C   0  0  0  0  0  0  0  0  0  0  0  0
   88.7296   93.8120   92.1989 C   0  0  0  0  0  0  0  0  0  0  0  0
   89.6299   92.8093   92.5677 C   0  0  0  0  0  0  0  0  0  0  0  0
   89.9331   91.7775   91.6738 C   0  0  0  0  0  0  0  0  0  0  0  0
   86.5641   85.0017   92.6415 C   0  0  0  0  0  0  0  0  0  0  0  0
   85.6996   84.6600   91.5563 O   0  0  0  0  0  0  0  0  0  0  0  0
   85.3469   85.8108   88.0464 C   0  0  0  0  0  0  0  0  0  0  0  0
   85.6080   85.0132   89.1779 C   0  0  0  0  0  0  0  0  0  0  0  0
   85.3922   85.4983   90.4716 C   0  0  0  0  0  0  0  0  0  0  0  0
   84.8861   86.7969   90.6430 C   0  0  0  0  0  0  0  0  0  0  0  0
   84.6153   87.5967   89.5334 C   0  0  0  0  0  0  0  0  0  0  0  0
   84.8439   87.1179   88.2362 C   0  0  0  0  0  0  0  0  0  0  0  0
   84.5668   87.9426   87.1454 O   0  0  0  0  0  0  0  0  0  0  0  0
   84.2336   88.8073   87.2846 H   0  0  0  0  0  0  0  0  0  0  0  0
   86.2495   85.9443   85.8441 O   0  0  0  0  0  0  0  0  0  0  0  0
   85.6077   85.2638   86.6897 C   0  0  0  0  0  0  0  0  0  0  0  0
   85.1494   84.0004   86.3275 O   0  0  0  0  0  0  0  0  0  0  0  0
   84.6708   83.4812   86.9435 H   0  0  0  0  0  0  0  0  0  0  0  0
 30 31  2  0  0  0
 31 32  1  0  0  0
 31 22  1  0  0  0
 22 23  2  0  0  0
 23 24  1  0  0  0
 24 21  1  0  0  0
 21 20  1  0  0  0
 20  1  1  0  0  0
  1  2  2  0  0  0
  2  3  1  0  0  0
  3  4  2  0  0  0
  4  5  1  0  0  0
  5  7  1  0  0  0
  7  8  2  0  0  0
  8  9  1  0  0  0
  9 10  2  0  0  0
 10 11  1  0  0  0
 11 13  1  0  0  0
 13 14  1  0  0  0
 14 15  2  0  0  0
 15 16  1  0  0  0
 16 17  2  0  0  0
 17 18  1  0  0  0
 18 19  2  0  0  0
 11 12  2  0  0  0
  5  6  2  0  0  0
 24 25  2  0  0  0
 25 26  1  0  0  0
 26 27  2  0  0  0
 27 28  1  0  0  0
 27 22  1  0  0  0
  6  1  1  0  0  0
 12  7  1  0  0  0
 19 14  1  0  0  0
 32 33  1  0  0  0
 28 29  1  0  0  0
M  END
> <Activity>
39.1

> <minimizedAffinity>
-9.19977

> <CNNscore>
0.4919431806

> <CNNaffinity>
6.3491525650

> <CNN_VS>
3.1234223843

$$$$
HIPS6124


 26 29  0  0  0  0  0  0  0  0999 V2000
   86.3078   84.7060   91.5691 O   0  0  0  0  0  0  0  0  0  0  0  0
   85.3898   85.6843   88.1382 C   0  0  0  0  0  0  0  0  0  0  0  0
   85.9150   84.9738   89.2126 C   0  0  0  0  0  0  0  0  0  0  0  0
   85.7841   85.4161   90.5086 C   0  0  0  0  0  0  0  0  0  0  0  0
   85.1230   86.5893   90.8024 C   0  0  0  0  0  0  0  0  0  0  0  0
   84.6008   87.2956   89.7327 C   0  0  0  0  0  0  0  0  0  0  0  0
   84.7267   86.8588   88.4193 C   0  0  0  0  0  0  0  0  0  0  0  0
   84.1876   87.5952   87.3588 O   0  0  0  0  0  0  0  0  0  0  0  0
   83.7329   88.3967   87.5284 H   0  0  0  0  0  0  0  0  0  0  0  0
   86.2123   85.8720   85.9482 O   0  0  0  0  0  0  0  0  0  0  0  0
   85.5417   85.1939   86.7685 C   0  0  0  0  0  0  0  0  0  0  0  0
   84.9796   84.0167   86.3362 O   0  0  0  0  0  0  0  0  0  0  0  0
   84.4755   83.4932   86.9277 H   0  0  0  0  0  0  0  0  0  0  0  0
   87.2620   85.3596   92.3805 C   0  0  0  0  0  0  0  0  0  0  0  0
   88.5757   85.4995   91.7481 C   0  0  0  0  0  0  0  0  0  0  0  0
   89.3825   84.3824   91.6548 C   0  0  0  0  0  0  0  0  0  0  0  0
   90.6313   84.4581   91.0677 C   0  0  0  0  0  0  0  0  0  0  0  0
   91.0405   85.6901   90.5791 C   0  0  0  0  0  0  0  0  0  0  0  0
   90.2595   86.8211   90.6570 C   0  0  0  0  0  0  0  0  0  0  0  0
   89.0159   86.7080   91.2510 C   0  0  0  0  0  0  0  0  0  0  0  0
   91.4621   83.2527   90.9854 C   0  0  0  0  0  0  0  0  0  0  0  0
   91.2520   82.3100   89.8371 C   0  0  0  0  0  0  0  0  0  0  0  0
   90.7747   81.9446   91.1833 C   0  0  0  0  0  0  0  0  0  0  0  0
   90.7147   88.1261   90.1295 C   0  0  0  0  0  0  0  0  0  0  0  0
   89.7750   88.9015   89.2863 C   0  0  0  0  0  0  0  0  0  0  0  0
   90.0962   89.3616   90.6651 C   0  0  0  0  0  0  0  0  0  0  0  0
 10 11  2  0  0  0
 11 12  1  0  0  0
 11  2  1  0  0  0
  2  3  2  0  0  0
  3  4  1  0  0  0
  4  1  1  0  0  0
  1 14  1  0  0  0
 14 15  1  0  0  0
 15 16  2  0  0  0
 16 17  1  0  0  0
 17 21  1  0  0  0
 21 22  1  0  0  0
 22 23  1  0  0  0
 17 18  2  0  0  0
 18 19  1  0  0  0
 19 24  1  0  0  0
 24 25  1  0  0  0
 25 26  1  0  0  0
 19 20  2  0  0  0
  4  5  2  0  0  0
  5  6  1  0  0  0
  6  7  2  0  0  0
  7  8  1  0  0  0
  7  2  1  0  0  0
 20 15  1  0  0  0
 23 21  1  0  0  0
 26 24  1  0  0  0
 12 13  1  0  0  0
  8  9  1  0  0  0
M  END
> <Activity>
59.9

> <minimizedAffinity>
-8.59556

> <CNNscore>
0.7286246419

> <CNNaffinity>
5.9754114151

> <CNN_VS>
4.3538317680

$$$$
HIPS6124


 26 29  0  0  0  0  0  0  0  0999 V2000
   86.3690   84.8004   91.5673 O   0  0  0  0  0  0  0  0  0  0  0  0
   85.4341   85.7382   88.1296 C   0  0  0  0  0  0  0  0  0  0  0  0
   85.9525   85.0334   89.2112 C   0  0  0  0  0  0  0  0  0  0  0  0
   85.8524   85.5049   90.4997 C   0  0  0  0  0  0  0  0  0  0  0  0
   85.2305   86.7030   90.7784 C   0  0  0  0  0  0  0  0  0  0  0  0
   84.7151   87.4035   89.7016 C   0  0  0  0  0  0  0  0  0  0  0  0
   84.8101   86.9374   88.3957 C   0  0  0  0  0  0  0  0  0  0  0  0
   84.2789   87.6686   87.3277 O   0  0  0  0  0  0  0  0  0  0  0  0
   83.8505   88.4866   87.4871 H   0  0  0  0  0  0  0  0  0  0  0  0
   86.2210   85.8648   85.9223 O   0  0  0  0  0  0  0  0  0  0  0  0
   85.5527   85.2166   86.7683 C   0  0  0  0  0  0  0  0  0  0  0  0
   84.9616   84.0413   86.3707 O   0  0  0  0  0  0  0  0  0  0  0  0
   84.4586   83.5398   86.9818 H   0  0  0  0  0  0  0  0  0  0  0  0
   87.3648   85.4348   92.3433 C   0  0  0  0  0  0  0  0  0  0  0  0
   88.6885   85.4348   91.7164 C   0  0  0  0  0  0  0  0  0  0  0  0
   89.1625   86.6167   91.1816 C   0  0  0  0  0  0  0  0  0  0  0  0
   90.4047   86.6730   90.5786 C   0  0  0  0  0  0  0  0  0  0  0  0
   91.1520   85.5055   90.5314 C   0  0  0  0  0  0  0  0  0  0  0  0
   90.7074   84.3126   91.0553 C   0  0  0  0  0  0  0  0  0  0  0  0
   89.4597   84.2936   91.6511 C   0  0  0  0  0  0  0  0  0  0  0  0
   90.8770   87.9442   90.0210 C   0  0  0  0  0  0  0  0  0  0  0  0
   91.8229   88.7798   90.8326 C   0  0  0  0  0  0  0  0  0  0  0  0
   90.4135   89.1906   90.6953 C   0  0  0  0  0  0  0  0  0  0  0  0
   91.5204   83.0781   90.9946 C   0  0  0  0  0  0  0  0  0  0  0  0
   90.8129   81.7768   91.0328 C   0  0  0  0  0  0  0  0  0  0  0  0
   91.4515   82.2438   89.7718 C   0  0  0  0  0  0  0  0  0  0  0  0
 10 11  2  0  0  0
 11 12  1  0  0  0
 11  2  1  0  0  0
  2  3  2  0  0  0
  3  4  1  0  0  0
  4  1  1  0  0  0
  1 14  1  0  0  0
 14 15  1  0  0  0
 15 16  2  0  0  0
 16 17  1  0  0  0
 17 21  1  0  0  0
 21 22  1  0  0  0
 22 23  1  0  0  0
 17 18  2  0  0  0
 18 19  1  0  0  0
 19 24  1  0  0  0
 24 25  1  0  0  0
 25 26  1  0  0  0
 19 20  2  0  0  0
  4  5  2  0  0  0
  5  6  1  0  0  0
  6  7  2  0  0  0
  7  8  1  0  0  0
  7  2  1  0  0  0
 20 15  1  0  0  0
 23 21  1  0  0  0
 26 24  1  0  0  0
 12 13  1  0  0  0
  8  9  1  0  0  0
M  END
> <Activity>
59.9

> <minimizedAffinity>
-8.60174

> <CNNscore>
0.7284631133

> <CNNaffinity>
5.9682655334

> <CNN_VS>
4.3476614952

$$$$
HIPS6124


 26 29  0  0  0  0  0  0  0  0999 V2000
   90.9700   88.6767   89.8950 O   0  0  0  0  0  0  0  0  0  0  0  0
   90.1651   92.0101   91.2409 C   0  0  0  0  0  0  0  0  0  0  0  0
   90.0668   90.8052   90.5527 C   0  0  0  0  0  0  0  0  0  0  0  0
   91.0748   89.8694   90.5802 C   0  0  0  0  0  0  0  0  0  0  0  0
   92.2336   90.0848   91.2947 C   0  0  0  0  0  0  0  0  0  0  0  0
   92.3306   91.2840   91.9791 C   0  0  0  0  0  0  0  0  0  0  0  0
   91.3190   92.2368   91.9589 C   0  0  0  0  0  0  0  0  0  0  0  0
   91.4465   93.4400   92.6613 O   0  0  0  0  0  0  0  0  0  0  0  0
   92.2232   93.6138   93.1558 H   0  0  0  0  0  0  0  0  0  0  0  0
   88.3708   93.0689   90.1607 O   0  0  0  0  0  0  0  0  0  0  0  0
   89.0800   92.9899   91.1967 C   0  0  0  0  0  0  0  0  0  0  0  0
   88.8000   93.8335   92.2448 O   0  0  0  0  0  0  0  0  0  0  0  0
   89.3134   93.7945   93.0277 H   0  0  0  0  0  0  0  0  0  0  0  0
   91.8073   87.6156   90.3065 C   0  0  0  0  0  0  0  0  0  0  0  0
   91.0969   86.3519   90.5147 C   0  0  0  0  0  0  0  0  0  0  0  0
   89.7614   86.3983   90.8639 C   0  0  0  0  0  0  0  0  0  0  0  0
   89.0433   85.2360   91.0724 C   0  0  0  0  0  0  0  0  0  0  0  0
   89.7103   84.0296   90.9185 C   0  0  0  0  0  0  0  0  0  0  0  0
   91.0401   83.9506   90.5713 C   0  0  0  0  0  0  0  0  0  0  0  0
   91.7270   85.1338   90.3707 C   0  0  0  0  0  0  0  0  0  0  0  0
   87.6270   85.3217   91.4422 C   0  0  0  0  0  0  0  0  0  0  0  0
   87.2709   85.7477   92.8362 C   0  0  0  0  0  0  0  0  0  0  0  0
   87.1297   84.3340   92.4421 C   0  0  0  0  0  0  0  0  0  0  0  0
   91.7331   82.6532   90.4123 C   0  0  0  0  0  0  0  0  0  0  0  0
   91.0204   81.4269   90.8406 C   0  0  0  0  0  0  0  0  0  0  0  0
   91.2310   81.7020   89.3929 C   0  0  0  0  0  0  0  0  0  0  0  0
 10 11  2  0  0  0
 11 12  1  0  0  0
 11  2  1  0  0  0
  2  3  2  0  0  0
  3  4  1  0  0  0
  4  1  1  0  0  0
  1 14  1  0  0  0
 14 15  1  0  0  0
 15 16  2  0  0  0
 16 17  1  0  0  0
 17 21  1  0  0  0
 21 22  1  0  0  0
 22 23  1  0  0  0
 17 18  2  0  0  0
 18 19  1  0  0  0
 19 24  1  0  0  0
 24 25  1  0  0  0
 25 26  1  0  0  0
 19 20  2  0  0  0
  4  5  2  0  0  0
  5  6  1  0  0  0
  6  7  2  0  0  0
  7  8  1  0  0  0
  7  2  1  0  0  0
 20 15  1  0  0  0
 23 21  1  0  0  0
 26 24  1  0  0  0
 12 13  1  0  0  0
  8  9  1  0  0  0
M  END
> <Activity>
59.9

> <minimizedAffinity>
-8.17630

> <CNNscore>
0.6882214546

> <CNNaffinity>
5.8292436600

> <CNN_VS>
4.0118107796

$$$$
HIPS7757 (IAE-158)


 38 41  0  0  0  0  0  0  0  0999 V2000
   86.6035   85.5484   90.2206 C   0  0  0  0  0  0  0  0  0  0  0  0
   85.9023   85.6910   91.4277 C   0  0  0  0  0  0  0  0  0  0  0  0
   86.5959   85.8933   92.6231 C   0  0  0  0  0  0  0  0  0  0  0  0
   87.9908   85.9701   92.6224 C   0  0  0  0  0  0  0  0  0  0  0  0
   88.7065   85.8536   91.4149 C   0  0  0  0  0  0  0  0  0  0  0  0
   88.0044   85.6356   90.2233 C   0  0  0  0  0  0  0  0  0  0  0  0
   85.8627   85.3611   88.9247 C   0  0  0  0  0  0  0  0  0  0  0  0
   85.0511   86.5522   88.6363 N   0  0  0  0  0  0  0  0  0  0  0  0
   84.2964   86.2919   88.0014 H   0  0  0  0  0  0  0  0  0  0  0  0
   85.8557   87.6271   88.0098 C   0  0  0  0  0  0  0  0  0  0  0  0
   85.1898   88.1296   86.7536 C   0  0  0  0  0  0  0  0  0  0  0  0
   84.8816   89.3494   86.6516 O   0  0  0  0  0  0  0  0  0  0  0  0
   85.9065   86.4035   85.1322 C   0  0  0  0  0  0  0  0  0  0  0  0
   84.9115   87.2368   85.7141 O   0  0  0  0  0  0  0  0  0  0  0  0
   86.0199   88.8053   88.9892 C   0  0  0  0  0  0  0  0  0  0  0  0
   87.4637   89.0538   89.3406 C   0  0  0  0  0  0  0  0  0  0  0  0
   87.8371   89.3249   90.6674 C   0  0  0  0  0  0  0  0  0  0  0  0
   89.1828   89.5110   90.9963 C   0  0  0  0  0  0  0  0  0  0  0  0
   90.1691   89.4230   90.0046 C   0  0  0  0  0  0  0  0  0  0  0  0
   91.5132   89.5990   90.3232 O   0  0  0  0  0  0  0  0  0  0  0  0
   89.8016   89.1523   88.6827 C   0  0  0  0  0  0  0  0  0  0  0  0
   88.4559   88.9699   88.3495 C   0  0  0  0  0  0  0  0  0  0  0  0
   91.7653   89.7805   91.2072 H   0  0  0  0  0  0  0  0  0  0  0  0
   90.1058   85.9594   91.3496 O   0  0  0  0  0  0  0  0  0  0  0  0
   91.0276   85.0977   92.0208 C   0  0  0  0  0  0  0  0  0  0  0  0
   90.7108   83.6354   91.7617 C   0  0  0  0  0  0  0  0  0  0  0  0
   90.0216   82.9163   92.7542 C   0  0  0  0  0  0  0  0  0  0  0  0
   89.6903   81.5781   92.5660 C   0  0  0  0  0  0  0  0  0  0  0  0
   90.0629   80.9235   91.3971 C   0  0  0  0  0  0  0  0  0  0  0  0
   90.7943   81.5933   90.4066 C   0  0  0  0  0  0  0  0  0  0  0  0
   91.1381   82.9624   90.5821 C   0  0  0  0  0  0  0  0  0  0  0  0
   91.8955   83.7200   89.5111 C   0  0  0  0  0  0  0  0  0  0  0  0
   91.1896   80.8226   89.2103 C   0  0  0  0  0  0  0  0  0  0  0  0
   92.3367   80.0172   89.2275 C   0  0  0  0  0  0  0  0  0  0  0  0
   92.6852   79.2786   88.0953 C   0  0  0  0  0  0  0  0  0  0  0  0
   91.8749   79.3450   86.9598 C   0  0  0  0  0  0  0  0  0  0  0  0
   90.7586   80.1213   86.9630 N   0  0  0  0  0  0  0  0  0  0  0  0
   90.3987   80.8513   88.0528 C   0  0  0  0  0  0  0  0  0  0  0  0
 13 14  1  0  0  0
 14 11  1  0  0  0
 11 12  2  0  0  0
 11 10  1  0  0  0
 10 15  1  0  0  0
 15 16  1  0  0  0
 16 17  2  0  0  0
 17 18  1  0  0  0
 18 19  2  0  0  0
 19 20  1  0  0  0
 19 21  1  0  0  0
 21 22  2  0  0  0
 10  8  1  0  0  0
  8  7  1  0  0  0
  7  1  1  0  0  0
  1  2  2  0  0  0
  2  3  1  0  0  0
  3  4  2  0  0  0
  4  5  1  0  0  0
  5 24  1  0  0  0
 24 25  1  0  0  0
 25 26  1  0  0  0
 26 27  2  0  0  0
 27 28  1  0  0  0
 28 29  2  0  0  0
 29 30  1  0  0  0
 30 33  1  0  0  0
 33 34  2  0  0  0
 34 35  1  0  0  0
 35 36  2  0  0  0
 36 37  2  0  0  0
 37 38  2  0  0  0
 30 31  2  0  0  0
 31 32  1  0  0  0
  5  6  2  0  0  0
 22 16  1  0  0  0
  6  1  1  0  0  0
 31 26  1  0  0  0
 38 33  1  0  0  0
 20 23  1  0  0  0
  8  9  1  0  0  0
M  END
> <Activity>
60.5

> <minimizedAffinity>
-8.09640

> <CNNscore>
0.7811226845

> <CNNaffinity>
7.1384153366

> <CNN_VS>
5.5759782791

$$$$
HIPS7757 (IAE-158)


 38 41  0  0  0  0  0  0  0  0999 V2000
   91.3619   86.2338   90.4692 C   0  0  0  0  0  0  0  0  0  0  0  0
   91.8054   84.9341   90.1809 C   0  0  0  0  0  0  0  0  0  0  0  0
   91.1702   83.8314   90.7566 C   0  0  0  0  0  0  0  0  0  0  0  0
   90.0800   84.0146   91.6107 C   0  0  0  0  0  0  0  0  0  0  0  0
   89.6083   85.3121   91.8896 C   0  0  0  0  0  0  0  0  0  0  0  0
   90.2604   86.4127   91.3206 C   0  0  0  0  0  0  0  0  0  0  0  0
   92.0208   87.4252   89.8292 C   0  0  0  0  0  0  0  0  0  0  0  0
   91.0516   88.5226   89.6993 N   0  0  0  0  0  0  0  0  0  0  0  0
   91.0002   88.8036   88.7201 H   0  0  0  0  0  0  0  0  0  0  0  0
   91.4383   89.6969   90.5158 C   0  0  0  0  0  0  0  0  0  0  0  0
   91.9589   90.8084   89.6397 C   0  0  0  0  0  0  0  0  0  0  0  0
   91.8036   90.7464   88.3886 O   0  0  0  0  0  0  0  0  0  0  0  0
   92.1319   93.2294   90.1206 C   0  0  0  0  0  0  0  0  0  0  0  0
   92.6174   91.8963   90.2212 O   0  0  0  0  0  0  0  0  0  0  0  0
   90.2217   90.2167   91.3057 C   0  0  0  0  0  0  0  0  0  0  0  0
   89.0225   90.4361   90.4205 C   0  0  0  0  0  0  0  0  0  0  0  0
   88.3527   89.3435   89.8452 C   0  0  0  0  0  0  0  0  0  0  0  0
   87.2143   89.5490   89.0606 C   0  0  0  0  0  0  0  0  0  0  0  0
   86.7306   90.8469   88.8473 C   0  0  0  0  0  0  0  0  0  0  0  0
   85.5927   91.0618   88.0738 O   0  0  0  0  0  0  0  0  0  0  0  0
   87.3940   91.9373   89.4191 C   0  0  0  0  0  0  0  0  0  0  0  0
   88.5355   91.7355   90.2008 C   0  0  0  0  0  0  0  0  0  0  0  0
   85.1442   90.3351   87.6883 H   0  0  0  0  0  0  0  0  0  0  0  0
   88.4946   85.5538   92.7111 O   0  0  0  0  0  0  0  0  0  0  0  0
   87.2233   84.9137   92.5815 C   0  0  0  0  0  0  0  0  0  0  0  0
   86.3253   85.6538   91.6059 C   0  0  0  0  0  0  0  0  0  0  0  0
   85.3267   86.4960   92.1259 C   0  0  0  0  0  0  0  0  0  0  0  0
   84.4846   87.2115   91.2803 C   0  0  0  0  0  0  0  0  0  0  0  0
   84.6036   87.0809   89.9011 C   0  0  0  0  0  0  0  0  0  0  0  0
   85.5540   86.2127   89.3462 C   0  0  0  0  0  0  0  0  0  0  0  0
   86.4248   85.4766   90.1968 C   0  0  0  0  0  0  0  0  0  0  0  0
   87.4853   84.5600   89.6224 C   0  0  0  0  0  0  0  0  0  0  0  0
   85.5953   86.0952   87.8746 C   0  0  0  0  0  0  0  0  0  0  0  0
   85.9185   87.2032   87.0791 C   0  0  0  0  0  0  0  0  0  0  0  0
   85.9737   87.0704   85.6906 C   0  0  0  0  0  0  0  0  0  0  0  0
   85.7155   85.8258   85.1122 C   0  0  0  0  0  0  0  0  0  0  0  0
   85.4154   84.7575   85.8980 N   0  0  0  0  0  0  0  0  0  0  0  0
   85.3540   84.8617   87.2529 C   0  0  0  0  0  0  0  0  0  0  0  0
 13 14  1  0  0  0
 14 11  1  0  0  0
 11 12  2  0  0  0
 11 10  1  0  0  0
 10 15  1  0  0  0
 15 16  1  0  0  0
 16 17  2  0  0  0
 17 18  1  0  0  0
 18 19  2  0  0  0
 19 20  1  0  0  0
 19 21  1  0  0  0
 21 22  2  0  0  0
 10  8  1  0  0  0
  8  7  1  0  0  0
  7  1  1  0  0  0
  1  2  2  0  0  0
  2  3  1  0  0  0
  3  4  2  0  0  0
  4  5  1  0  0  0
  5 24  1  0  0  0
 24 25  1  0  0  0
 25 26  1  0  0  0
 26 27  2  0  0  0
 27 28  1  0  0  0
 28 29  2  0  0  0
 29 30  1  0  0  0
 30 33  1  0  0  0
 33 34  2  0  0  0
 34 35  1  0  0  0
 35 36  2  0  0  0
 36 37  2  0  0  0
 37 38  2  0  0  0
 30 31  2  0  0  0
 31 32  1  0  0  0
  5  6  2  0  0  0
 22 16  1  0  0  0
  6  1  1  0  0  0
 31 26  1  0  0  0
 38 33  1  0  0  0
 20 23  1  0  0  0
  8  9  1  0  0  0
M  END
> <Activity>
60.5

> <minimizedAffinity>
-7.33094

> <CNNscore>
0.6386182308

> <CNNaffinity>
7.0126447678

> <CNN_VS>
4.4784026146

$$$$
HIPS7757 (IAE-158)


 38 41  0  0  0  0  0  0  0  0999 V2000
   86.6566   86.7304   90.8272 C   0  0  0  0  0  0  0  0  0  0  0  0
   85.7313   85.8982   91.4754 C   0  0  0  0  0  0  0  0  0  0  0  0
   86.1625   84.9894   92.4444 C   0  0  0  0  0  0  0  0  0  0  0  0
   87.5152   84.9139   92.7853 C   0  0  0  0  0  0  0  0  0  0  0  0
   88.4518   85.7605   92.1608 C   0  0  0  0  0  0  0  0  0  0  0  0
   88.0133   86.6578   91.1795 C   0  0  0  0  0  0  0  0  0  0  0  0
   86.1963   87.7333   89.8047 C   0  0  0  0  0  0  0  0  0  0  0  0
   87.2079   87.8689   88.7469 N   0  0  0  0  0  0  0  0  0  0  0  0
   88.0753   87.4341   89.0617 H   0  0  0  0  0  0  0  0  0  0  0  0
   87.4744   89.2893   88.4202 C   0  0  0  0  0  0  0  0  0  0  0  0
   86.2175   89.9726   87.9436 C   0  0  0  0  0  0  0  0  0  0  0  0
   85.4608   89.3900   87.1182 O   0  0  0  0  0  0  0  0  0  0  0  0
   85.5276   92.3160   87.5504 C   0  0  0  0  0  0  0  0  0  0  0  0
   85.9045   91.2514   88.4149 O   0  0  0  0  0  0  0  0  0  0  0  0
   87.9996   90.0297   89.6653 C   0  0  0  0  0  0  0  0  0  0  0  0
   89.4949   89.9121   89.8064 C   0  0  0  0  0  0  0  0  0  0  0  0
   90.1206   90.2121   91.0279 C   0  0  0  0  0  0  0  0  0  0  0  0
   91.5029   90.0591   91.1673 C   0  0  0  0  0  0  0  0  0  0  0  0
   92.2731   89.6000   90.0903 C   0  0  0  0  0  0  0  0  0  0  0  0
   93.6498   89.4366   90.2213 O   0  0  0  0  0  0  0  0  0  0  0  0
   91.6539   89.2993   88.8729 C   0  0  0  0  0  0  0  0  0  0  0  0
   90.2720   89.4554   88.7287 C   0  0  0  0  0  0  0  0  0  0  0  0
   94.0701   89.6365   91.0346 H   0  0  0  0  0  0  0  0  0  0  0  0
   89.8175   85.7539   92.4899 O   0  0  0  0  0  0  0  0  0  0  0  0
   90.8513   85.1668   91.6966 C   0  0  0  0  0  0  0  0  0  0  0  0
   90.6541   83.6685   91.5472 C   0  0  0  0  0  0  0  0  0  0  0  0
   90.0586   82.9652   92.6091 C   0  0  0  0  0  0  0  0  0  0  0  0
   89.8383   81.5940   92.5227 C   0  0  0  0  0  0  0  0  0  0  0  0
   90.2316   80.8931   91.3880 C   0  0  0  0  0  0  0  0  0  0  0  0
   90.8735   81.5512   90.3298 C   0  0  0  0  0  0  0  0  0  0  0  0
   91.1032   82.9532   90.4011 C   0  0  0  0  0  0  0  0  0  0  0  0
   91.7611   83.6951   89.2559 C   0  0  0  0  0  0  0  0  0  0  0  0
   91.2987   80.7348   89.1748 C   0  0  0  0  0  0  0  0  0  0  0  0
   90.6106   80.8102   87.9559 C   0  0  0  0  0  0  0  0  0  0  0  0
   91.0379   80.0476   86.8675 C   0  0  0  0  0  0  0  0  0  0  0  0
   92.1576   79.2248   87.0069 C   0  0  0  0  0  0  0  0  0  0  0  0
   92.8218   79.1719   88.1922 N   0  0  0  0  0  0  0  0  0  0  0  0
   92.4244   79.9039   89.2675 C   0  0  0  0  0  0  0  0  0  0  0  0
 13 14  1  0  0  0
 14 11  1  0  0  0
 11 12  2  0  0  0
 11 10  1  0  0  0
 10 15  1  0  0  0
 15 16  1  0  0  0
 16 17  2  0  0  0
 17 18  1  0  0  0
 18 19  2  0  0  0
 19 20  1  0  0  0
 19 21  1  0  0  0
 21 22  2  0  0  0
 10  8  1  0  0  0
  8  7  1  0  0  0
  7  1  1  0  0  0
  1  2  2  0  0  0
  2  3  1  0  0  0
  3  4  2  0  0  0
  4  5  1  0  0  0
  5 24  1  0  0  0
 24 25  1  0  0  0
 25 26  1  0  0  0
 26 27  2  0  0  0
 27 28  1  0  0  0
 28 29  2  0  0  0
 29 30  1  0  0  0
 30 33  1  0  0  0
 33 34  2  0  0  0
 34 35  1  0  0  0
 35 36  2  0  0  0
 36 37  2  0  0  0
 37 38  2  0  0  0
 30 31  2  0  0  0
 31 32  1  0  0  0
  5  6  2  0  0  0
 22 16  1  0  0  0
  6  1  1  0  0  0
 31 26  1  0  0  0
 38 33  1  0  0  0
 20 23  1  0  0  0
  8  9  1  0  0  0
M  END
> <Activity>
60.5

> <minimizedAffinity>
-8.30459

> <CNNscore>
0.5940999389

> <CNNaffinity>
6.8889446259

> <CNN_VS>
4.0927214622

$$$$
HIPS6547


 36 38  0  0  0  0  0  0  0  0999 V2000
   87.4475   87.1775   90.6391 C   0  0  0  0  0  0  0  0  0  0  0  0
   86.8999   87.0125   91.9181 C   0  0  0  0  0  0  0  0  0  0  0  0
   85.5133   86.9597   92.0817 C   0  0  0  0  0  0  0  0  0  0  0  0
   84.6708   87.0416   90.9684 C   0  0  0  0  0  0  0  0  0  0  0  0
   85.2115   87.1786   89.6805 C   0  0  0  0  0  0  0  0  0  0  0  0
   86.6027   87.2783   89.5268 C   0  0  0  0  0  0  0  0  0  0  0  0
   89.1331   84.9647   91.6684 C   0  0  0  0  0  0  0  0  0  0  0  0
   89.7269   86.1570   90.9659 C   0  0  0  0  0  0  0  0  0  0  0  0
   91.1230   86.2854   90.8752 C   0  0  0  0  0  0  0  0  0  0  0  0
   91.6954   87.4135   90.2806 C   0  0  0  0  0  0  0  0  0  0  0  0
   90.8816   88.4235   89.7567 C   0  0  0  0  0  0  0  0  0  0  0  0
   89.4891   88.2925   89.8153 C   0  0  0  0  0  0  0  0  0  0  0  0
   88.9060   87.1823   90.4431 C   0  0  0  0  0  0  0  0  0  0  0  0
   91.6141   89.8761   89.0859 S   0  0  0  0  0  0  0  0  0  0  0  0
   91.6582   89.7077   87.5936 O   0  0  0  0  0  0  0  0  0  0  0  0
   90.7608   91.0782   89.3837 O   0  0  0  0  0  0  0  0  0  0  0  0
   93.2484   90.1310   89.6532 N   0  0  0  0  0  0  0  0  0  0  0  0
   93.7690   90.5743   88.8963 H   0  0  0  0  0  0  0  0  0  0  0  0
   93.4293   90.9675   90.8676 C   0  0  0  0  0  0  0  0  0  0  0  0
   94.8297   90.7496   91.4802 C   0  0  0  0  0  0  0  0  0  0  0  0
   93.3430   92.4466   90.4303 C   0  0  0  0  0  0  0  0  0  0  0  0
   92.3359   90.7185   91.9284 C   0  0  0  0  0  0  0  0  0  0  0  0
   84.3093   87.2286   88.4730 C   0  0  0  0  0  0  0  0  0  0  0  0
   84.8535   88.0765   87.4580 O   0  0  0  0  0  0  0  0  0  0  0  0
   84.5146   89.4258   87.2625 C   0  0  0  0  0  0  0  0  0  0  0  0
   83.3665   89.8194   86.5546 C   0  0  0  0  0  0  0  0  0  0  0  0
   83.0991   91.1730   86.3502 C   0  0  0  0  0  0  0  0  0  0  0  0
   83.9627   92.1557   86.8463 C   0  0  0  0  0  0  0  0  0  0  0  0
   83.6883   93.4892   86.5248 O   0  0  0  0  0  0  0  0  0  0  0  0
   85.0918   91.7750   87.6112 C   0  0  0  0  0  0  0  0  0  0  0  0
   85.3618   90.4061   87.7913 C   0  0  0  0  0  0  0  0  0  0  0  0
   82.9307   93.7022   86.0163 H   0  0  0  0  0  0  0  0  0  0  0  0
   85.9797   92.7648   88.2547 C   0  0  0  0  0  0  0  0  0  0  0  0
   86.0852   93.9247   87.7730 O   0  0  0  0  0  0  0  0  0  0  0  0
   86.7446   92.4136   89.3636 O   0  0  0  0  0  0  0  0  0  0  0  0
   86.6730   91.5536   89.7287 H   0  0  0  0  0  0  0  0  0  0  0  0
  7  8  1  0  0  0
  8  9  2  0  0  0
  9 10  1  0  0  0
 10 11  2  0  0  0
 11 14  1  0  0  0
 14 15  2  0  0  0
 14 16  2  0  0  0
 14 17  1  0  0  0
 17 19  1  0  0  0
 19 20  1  0  0  0
 19 21  1  0  0  0
 19 22  1  0  0  0
 11 12  1  0  0  0
 12 13  2  0  0  0
 13  1  1  0  0  0
  1  2  2  0  0  0
  2  3  1  0  0  0
  3  4  2  0  0  0
  4  5  1  0  0  0
  5 23  1  0  0  0
 23 24  1  0  0  0
 24 25  1  0  0  0
 25 26  2  0  0  0
 26 27  1  0  0  0
 27 28  2  0  0  0
 28 29  1  0  0  0
 28 30  1  0  0  0
 30 33  1  0  0  0
 33 34  2  0  0  0
 33 35  1  0  0  0
 30 31  2  0  0  0
  5  6  2  0  0  0
 13  8  1  0  0  0
  6  1  1  0  0  0
 31 25  1  0  0  0
 17 18  1  0  0  0
 29 32  1  0  0  0
 35 36  1  0  0  0
M  END
> <Activity>
66.6

> <minimizedAffinity>
-8.38686

> <CNNscore>
0.4027742147

> <CNNaffinity>
6.2500753403

> <CNN_VS>
2.5173692703

$$$$
HIPS6547


 36 38  0  0  0  0  0  0  0  0999 V2000
   90.2905   87.3951   90.5082 C   0  0  0  0  0  0  0  0  0  0  0  0
   91.4459   86.6594   90.2132 C   0  0  0  0  0  0  0  0  0  0  0  0
   91.4646   85.2777   90.4194 C   0  0  0  0  0  0  0  0  0  0  0  0
   90.3230   84.6223   90.8918 C   0  0  0  0  0  0  0  0  0  0  0  0
   89.1523   85.3472   91.1631 C   0  0  0  0  0  0  0  0  0  0  0  0
   89.1539   86.7408   90.9990 C   0  0  0  0  0  0  0  0  0  0  0  0
   88.0078   89.0331   91.4586 C   0  0  0  0  0  0  0  0  0  0  0  0
   89.1344   89.6280   90.6557 C   0  0  0  0  0  0  0  0  0  0  0  0
   89.0671   90.9728   90.2549 C   0  0  0  0  0  0  0  0  0  0  0  0
   90.0729   91.5279   89.4587 C   0  0  0  0  0  0  0  0  0  0  0  0
   91.1667   90.7514   89.0620 C   0  0  0  0  0  0  0  0  0  0  0  0
   91.2590   89.4185   89.4797 C   0  0  0  0  0  0  0  0  0  0  0  0
   90.2365   88.8424   90.2474 C   0  0  0  0  0  0  0  0  0  0  0  0
   92.3833   91.4378   87.9917 S   0  0  0  0  0  0  0  0  0  0  0  0
   92.4175   90.5913   86.7508 O   0  0  0  0  0  0  0  0  0  0  0  0
   91.9939   92.8314   87.5819 O   0  0  0  0  0  0  0  0  0  0  0  0
   93.9830   91.4329   88.6978 N   0  0  0  0  0  0  0  0  0  0  0  0
   94.6218   91.8324   88.0103 H   0  0  0  0  0  0  0  0  0  0  0  0
   94.1731   92.1787   89.9685 C   0  0  0  0  0  0  0  0  0  0  0  0
   93.1123   93.2909   90.1158 C   0  0  0  0  0  0  0  0  0  0  0  0
   93.9594   91.1818   91.1290 C   0  0  0  0  0  0  0  0  0  0  0  0
   95.5922   92.7710   90.1028 C   0  0  0  0  0  0  0  0  0  0  0  0
   87.9067   84.6404   91.6359 C   0  0  0  0  0  0  0  0  0  0  0  0
   86.8056   85.5477   91.7351 O   0  0  0  0  0  0  0  0  0  0  0  0
   86.0507   86.0265   90.6514 C   0  0  0  0  0  0  0  0  0  0  0  0
   85.1220   87.0725   90.7837 C   0  0  0  0  0  0  0  0  0  0  0  0
   84.3653   87.4807   89.6853 C   0  0  0  0  0  0  0  0  0  0  0  0
   84.5195   86.8613   88.4403 C   0  0  0  0  0  0  0  0  0  0  0  0
   83.6634   87.2526   87.4055 O   0  0  0  0  0  0  0  0  0  0  0  0
   85.4927   85.8457   88.2787 C   0  0  0  0  0  0  0  0  0  0  0  0
   86.2338   85.4285   89.3995 C   0  0  0  0  0  0  0  0  0  0  0  0
   83.0316   87.9291   87.5507 H   0  0  0  0  0  0  0  0  0  0  0  0
   85.7810   85.2298   86.9672 C   0  0  0  0  0  0  0  0  0  0  0  0
   85.7589   83.9760   86.8407 O   0  0  0  0  0  0  0  0  0  0  0  0
   86.1285   86.0205   85.8754 O   0  0  0  0  0  0  0  0  0  0  0  0
   86.1477   86.9535   85.9599 H   0  0  0  0  0  0  0  0  0  0  0  0
  7  8  1  0  0  0
  8  9  2  0  0  0
  9 10  1  0  0  0
 10 11  2  0  0  0
 11 14  1  0  0  0
 14 15  2  0  0  0
 14 16  2  0  0  0
 14 17  1  0  0  0
 17 19  1  0  0  0
 19 20  1  0  0  0
 19 21  1  0  0  0
 19 22  1  0  0  0
 11 12  1  0  0  0
 12 13  2  0  0  0
 13  1  1  0  0  0
  1  2  2  0  0  0
  2  3  1  0  0  0
  3  4  2  0  0  0
  4  5  1  0  0  0
  5 23  1  0  0  0
 23 24  1  0  0  0
 24 25  1  0  0  0
 25 26  2  0  0  0
 26 27  1  0  0  0
 27 28  2  0  0  0
 28 29  1  0  0  0
 28 30  1  0  0  0
 30 33  1  0  0  0
 33 34  2  0  0  0
 33 35  1  0  0  0
 30 31  2  0  0  0
  5  6  2  0  0  0
 13  8  1  0  0  0
  6  1  1  0  0  0
 31 25  1  0  0  0
 17 18  1  0  0  0
 29 32  1  0  0  0
 35 36  1  0  0  0
M  END
> <Activity>
66.6

> <minimizedAffinity>
-8.37544

> <CNNscore>
0.4017358124

> <CNNaffinity>
6.3674840927

> <CNN_VS>
2.5580463409

$$$$
HIPS6547


 36 38  0  0  0  0  0  0  0  0999 V2000
   90.0468   90.0048   90.5183 C   0  0  0  0  0  0  0  0  0  0  0  0
   88.8475   90.2434   89.8343 C   0  0  0  0  0  0  0  0  0  0  0  0
   88.2299   91.4935   89.9246 C   0  0  0  0  0  0  0  0  0  0  0  0
   88.8210   92.5168   90.6724 C   0  0  0  0  0  0  0  0  0  0  0  0
   90.0366   92.2954   91.3378 C   0  0  0  0  0  0  0  0  0  0  0  0
   90.6283   91.0242   91.2821 C   0  0  0  0  0  0  0  0  0  0  0  0
   92.5272   89.7500   88.9120 C   0  0  0  0  0  0  0  0  0  0  0  0
   91.8955   88.5653   89.5940 C   0  0  0  0  0  0  0  0  0  0  0  0
   92.4295   87.2816   89.3922 C   0  0  0  0  0  0  0  0  0  0  0  0
   91.8227   86.1614   89.9674 C   0  0  0  0  0  0  0  0  0  0  0  0
   90.6814   86.3087   90.7627 C   0  0  0  0  0  0  0  0  0  0  0  0
   90.1577   87.5859   90.9945 C   0  0  0  0  0  0  0  0  0  0  0  0
   90.7374   88.7115   90.3915 C   0  0  0  0  0  0  0  0  0  0  0  0
   89.8791   84.8834   91.4122 S   0  0  0  0  0  0  0  0  0  0  0  0
   90.5352   84.5587   92.7243 O   0  0  0  0  0  0  0  0  0  0  0  0
   88.4303   85.1781   91.6879 O   0  0  0  0  0  0  0  0  0  0  0  0
   90.0313   83.4891   90.3681 N   0  0  0  0  0  0  0  0  0  0  0  0
   90.4596   83.8043   89.4977 H   0  0  0  0  0  0  0  0  0  0  0  0
   90.8324   82.3425   90.8689 C   0  0  0  0  0  0  0  0  0  0  0  0
   91.0140   81.2770   89.7664 C   0  0  0  0  0  0  0  0  0  0  0  0
   92.2363   82.8779   91.2277 C   0  0  0  0  0  0  0  0  0  0  0  0
   90.2265   81.7035   92.1367 C   0  0  0  0  0  0  0  0  0  0  0  0
   90.6979   93.4067   92.1137 C   0  0  0  0  0  0  0  0  0  0  0  0
   89.9526   94.6228   92.0087 O   0  0  0  0  0  0  0  0  0  0  0  0
   89.2502   95.2355   93.0600 C   0  0  0  0  0  0  0  0  0  0  0  0
   89.9004   95.8857   94.1223 C   0  0  0  0  0  0  0  0  0  0  0  0
   89.1573   96.4395   95.1648 C   0  0  0  0  0  0  0  0  0  0  0  0
   87.7605   96.3601   95.1686 C   0  0  0  0  0  0  0  0  0  0  0  0
   87.0813   96.8504   96.2889 O   0  0  0  0  0  0  0  0  0  0  0  0
   87.0898   95.7592   94.0759 C   0  0  0  0  0  0  0  0  0  0  0  0
   87.8519   95.1853   93.0417 C   0  0  0  0  0  0  0  0  0  0  0  0
   87.5601   97.2418   96.9928 H   0  0  0  0  0  0  0  0  0  0  0  0
   85.6167   95.7414   93.9666 C   0  0  0  0  0  0  0  0  0  0  0  0
   85.0001   94.6427   93.9313 O   0  0  0  0  0  0  0  0  0  0  0  0
   84.9016   96.9301   93.8503 O   0  0  0  0  0  0  0  0  0  0  0  0
   85.3513   97.7517   93.8755 H   0  0  0  0  0  0  0  0  0  0  0  0
  7  8  1  0  0  0
  8  9  2  0  0  0
  9 10  1  0  0  0
 10 11  2  0  0  0
 11 14  1  0  0  0
 14 15  2  0  0  0
 14 16  2  0  0  0
 14 17  1  0  0  0
 17 19  1  0  0  0
 19 20  1  0  0  0
 19 21  1  0  0  0
 19 22  1  0  0  0
 11 12  1  0  0  0
 12 13  2  0  0  0
 13  1  1  0  0  0
  1  2  2  0  0  0
  2  3  1  0  0  0
  3  4  2  0  0  0
  4  5  1  0  0  0
  5 23  1  0  0  0
 23 24  1  0  0  0
 24 25  1  0  0  0
 25 26  2  0  0  0
 26 27  1  0  0  0
 27 28  2  0  0  0
 28 29  1  0  0  0
 28 30  1  0  0  0
 30 33  1  0  0  0
 33 34  2  0  0  0
 33 35  1  0  0  0
 30 31  2  0  0  0
  5  6  2  0  0  0
 13  8  1  0  0  0
  6  1  1  0  0  0
 31 25  1  0  0  0
 17 18  1  0  0  0
 29 32  1  0  0  0
 35 36  1  0  0  0
M  END
> <Activity>
66.6

> <minimizedAffinity>
-8.35106

> <CNNscore>
0.3948201537

> <CNNaffinity>
6.0257225037

> <CNN_VS>
2.3790767193

$$$$
HIPS6245


 35 37  0  0  0  0  0  0  0  0999 V2000
   88.1227   87.0171   90.8042 C   0  0  0  0  0  0  0  0  0  0  0  0
   86.9295   87.0315   90.0612 C   0  0  0  0  0  0  0  0  0  0  0  0
   86.4676   88.2196   89.4903 C   0  0  0  0  0  0  0  0  0  0  0  0
   87.1987   89.4002   89.6380 C   0  0  0  0  0  0  0  0  0  0  0  0
   88.3936   89.4045   90.3723 C   0  0  0  0  0  0  0  0  0  0  0  0
   88.8395   88.2151   90.9709 C   0  0  0  0  0  0  0  0  0  0  0  0
   90.2465   83.9055   91.2473 C   0  0  0  0  0  0  0  0  0  0  0  0
   89.7575   83.4132   92.4634 C   0  0  0  0  0  0  0  0  0  0  0  0
   88.7166   84.0738   93.1198 C   0  0  0  0  0  0  0  0  0  0  0  0
   88.1689   85.2379   92.5743 C   0  0  0  0  0  0  0  0  0  0  0  0
   88.6526   85.7475   91.3565 C   0  0  0  0  0  0  0  0  0  0  0  0
   89.6879   85.0656   90.6933 C   0  0  0  0  0  0  0  0  0  0  0  0
   91.6124   83.1155   90.4616 S   0  0  0  0  0  0  0  0  0  0  0  0
   92.5753   82.5920   91.4922 O   0  0  0  0  0  0  0  0  0  0  0  0
   92.3371   84.1229   89.6143 O   0  0  0  0  0  0  0  0  0  0  0  0
   91.0621   81.8578   89.4659 O   0  0  0  0  0  0  0  0  0  0  0  0
   91.8041   81.8668   88.2663 C   0  0  0  0  0  0  0  0  0  0  0  0
   92.2970   79.3913   88.0600 C   0  0  0  0  0  0  0  0  0  0  0  0
   91.5289   80.5816   87.4512 C   0  0  0  0  0  0  0  0  0  0  0  0
   91.9690   80.7843   85.9871 C   0  0  0  0  0  0  0  0  0  0  0  0
   90.0177   80.2777   87.4861 C   0  0  0  0  0  0  0  0  0  0  0  0
   89.2130   90.6644   90.4607 C   0  0  0  0  0  0  0  0  0  0  0  0
   88.5360   91.7442   89.8146 O   0  0  0  0  0  0  0  0  0  0  0  0
   88.2614   92.9959   90.3923 C   0  0  0  0  0  0  0  0  0  0  0  0
   88.9431   93.3469   91.5602 C   0  0  0  0  0  0  0  0  0  0  0  0
   88.6920   94.5669   92.1883 C   0  0  0  0  0  0  0  0  0  0  0  0
   87.7553   95.4629   91.6546 C   0  0  0  0  0  0  0  0  0  0  0  0
   87.5080   96.6671   92.3141 O   0  0  0  0  0  0  0  0  0  0  0  0
   87.0690   95.1368   90.4633 C   0  0  0  0  0  0  0  0  0  0  0  0
   87.3357   93.9014   89.8404 C   0  0  0  0  0  0  0  0  0  0  0  0
   87.9694   96.8723   93.1035 H   0  0  0  0  0  0  0  0  0  0  0  0
   86.0793   96.0640   89.8556 C   0  0  0  0  0  0  0  0  0  0  0  0
   86.3678   97.2810   89.6923 O   0  0  0  0  0  0  0  0  0  0  0  0
   84.8214   95.6107   89.4648 O   0  0  0  0  0  0  0  0  0  0  0  0
   84.5917   94.7096   89.5794 H   0  0  0  0  0  0  0  0  0  0  0  0
 18 19  1  0  0  0
 19 20  1  0  0  0
 19 21  1  0  0  0
 19 17  1  0  0  0
 17 16  1  0  0  0
 16 13  1  0  0  0
 13 14  2  0  0  0
 13 15  2  0  0  0
 13  7  1  0  0  0
  7  8  2  0  0  0
  8  9  1  0  0  0
  9 10  2  0  0  0
 10 11  1  0  0  0
 11  1  1  0  0  0
  1  2  2  0  0  0
  2  3  1  0  0  0
  3  4  2  0  0  0
  4  5  1  0  0  0
  5 22  1  0  0  0
 22 23  1  0  0  0
 23 24  1  0  0  0
 24 25  2  0  0  0
 25 26  1  0  0  0
 26 27  2  0  0  0
 27 28  1  0  0  0
 27 29  1  0  0  0
 29 32  1  0  0  0
 32 33  2  0  0  0
 32 34  1  0  0  0
 29 30  2  0  0  0
  5  6  2  0  0  0
 11 12  2  0  0  0
 12  7  1  0  0  0
  6  1  1  0  0  0
 30 24  1  0  0  0
 28 31  1  0  0  0
 34 35  1  0  0  0
M  END
> <Activity>
91.6

> <minimizedAffinity>
-8.07373

> <CNNscore>
0.6588762403

> <CNNaffinity>
5.9460277557

> <CNN_VS>
3.9176964760

$$$$
HIPS6245


 35 37  0  0  0  0  0  0  0  0999 V2000
   87.9618   86.9677   90.6208 C   0  0  0  0  0  0  0  0  0  0  0  0
   86.8241   86.8864   89.7992 C   0  0  0  0  0  0  0  0  0  0  0  0
   86.3202   88.0303   89.1760 C   0  0  0  0  0  0  0  0  0  0  0  0
   86.9548   89.2620   89.3499 C   0  0  0  0  0  0  0  0  0  0  0  0
   88.0935   89.3619   90.1626 C   0  0  0  0  0  0  0  0  0  0  0  0
   88.5797   88.2160   90.8125 C   0  0  0  0  0  0  0  0  0  0  0  0
   90.2273   83.9865   91.2283 C   0  0  0  0  0  0  0  0  0  0  0  0
   89.7321   83.5128   92.4493 C   0  0  0  0  0  0  0  0  0  0  0  0
   88.6426   84.1419   93.0558 C   0  0  0  0  0  0  0  0  0  0  0  0
   88.0513   85.2564   92.4551 C   0  0  0  0  0  0  0  0  0  0  0  0
   88.5403   85.7471   91.2318 C   0  0  0  0  0  0  0  0  0  0  0  0
   89.6256   85.0963   90.6191 C   0  0  0  0  0  0  0  0  0  0  0  0
   91.6513   83.2405   90.5052 S   0  0  0  0  0  0  0  0  0  0  0  0
   92.6530   82.8879   91.5709 O   0  0  0  0  0  0  0  0  0  0  0  0
   92.2935   84.2231   89.5671 O   0  0  0  0  0  0  0  0  0  0  0  0
   91.2022   81.8602   89.6283 O   0  0  0  0  0  0  0  0  0  0  0  0
   91.7842   81.9247   88.3450 C   0  0  0  0  0  0  0  0  0  0  0  0
   92.2317   79.4343   88.2381 C   0  0  0  0  0  0  0  0  0  0  0  0
   91.5123   80.6189   87.5622 C   0  0  0  0  0  0  0  0  0  0  0  0
   92.0108   80.7640   86.1101 C   0  0  0  0  0  0  0  0  0  0  0  0
   89.9947   80.3466   87.5496 C   0  0  0  0  0  0  0  0  0  0  0  0
   88.8145   90.6781   90.2818 C   0  0  0  0  0  0  0  0  0  0  0  0
   89.8657   90.5839   91.2450 O   0  0  0  0  0  0  0  0  0  0  0  0
   91.2220   90.8609   91.0006 C   0  0  0  0  0  0  0  0  0  0  0  0
   92.1480   90.5556   92.0011 C   0  0  0  0  0  0  0  0  0  0  0  0
   93.5035   90.8312   91.8206 C   0  0  0  0  0  0  0  0  0  0  0  0
   93.9591   91.4142   90.6299 C   0  0  0  0  0  0  0  0  0  0  0  0
   95.3170   91.6985   90.4836 O   0  0  0  0  0  0  0  0  0  0  0  0
   93.0424   91.7129   89.5969 C   0  0  0  0  0  0  0  0  0  0  0  0
   91.6771   91.4264   89.7945 C   0  0  0  0  0  0  0  0  0  0  0  0
   95.9154   91.4958   91.1756 H   0  0  0  0  0  0  0  0  0  0  0  0
   93.4849   92.3171   88.3133 C   0  0  0  0  0  0  0  0  0  0  0  0
   92.7625   93.1732   87.7333 O   0  0  0  0  0  0  0  0  0  0  0  0
   94.6933   91.9464   87.7279 O   0  0  0  0  0  0  0  0  0  0  0  0
   95.2413   91.3118   88.1461 H   0  0  0  0  0  0  0  0  0  0  0  0
 18 19  1  0  0  0
 19 20  1  0  0  0
 19 21  1  0  0  0
 19 17  1  0  0  0
 17 16  1  0  0  0
 16 13  1  0  0  0
 13 14  2  0  0  0
 13 15  2  0  0  0
 13  7  1  0  0  0
  7  8  2  0  0  0
  8  9  1  0  0  0
  9 10  2  0  0  0
 10 11  1  0  0  0
 11  1  1  0  0  0
  1  2  2  0  0  0
  2  3  1  0  0  0
  3  4  2  0  0  0
  4  5  1  0  0  0
  5 22  1  0  0  0
 22 23  1  0  0  0
 23 24  1  0  0  0
 24 25  2  0  0  0
 25 26  1  0  0  0
 26 27  2  0  0  0
 27 28  1  0  0  0
 27 29  1  0  0  0
 29 32  1  0  0  0
 32 33  2  0  0  0
 32 34  1  0  0  0
 29 30  2  0  0  0
  5  6  2  0  0  0
 11 12  2  0  0  0
 12  7  1  0  0  0
  6  1  1  0  0  0
 30 24  1  0  0  0
 28 31  1  0  0  0
 34 35  1  0  0  0
M  END
> <Activity>
91.6

> <minimizedAffinity>
-9.28831

> <CNNscore>
0.6477774382

> <CNNaffinity>
6.4496631622

> <CNN_VS>
4.1779460907

$$$$
HIPS6245


 35 37  0  0  0  0  0  0  0  0999 V2000
   87.1380   86.1488   90.8042 C   0  0  0  0  0  0  0  0  0  0  0  0
   85.7474   85.9460   90.8379 C   0  0  0  0  0  0  0  0  0  0  0  0
   84.8882   86.8372   90.1912 C   0  0  0  0  0  0  0  0  0  0  0  0
   85.4062   87.9279   89.4896 C   0  0  0  0  0  0  0  0  0  0  0  0
   86.7911   88.1442   89.4414 C   0  0  0  0  0  0  0  0  0  0  0  0
   87.6505   87.2639   90.1182 C   0  0  0  0  0  0  0  0  0  0  0  0
   90.0628   83.7872   91.3122 C   0  0  0  0  0  0  0  0  0  0  0  0
   89.8880   83.4221   92.6526 C   0  0  0  0  0  0  0  0  0  0  0  0
   88.8023   83.9169   93.3785 C   0  0  0  0  0  0  0  0  0  0  0  0
   87.8940   84.7910   92.7756 C   0  0  0  0  0  0  0  0  0  0  0  0
   88.0587   85.1711   91.4320 C   0  0  0  0  0  0  0  0  0  0  0  0
   89.1440   84.6533   90.7035 C   0  0  0  0  0  0  0  0  0  0  0  0
   91.4766   83.2250   90.4223 S   0  0  0  0  0  0  0  0  0  0  0  0
   92.6095   82.9391   91.3701 O   0  0  0  0  0  0  0  0  0  0  0  0
   91.9197   84.3059   89.4772 O   0  0  0  0  0  0  0  0  0  0  0  0
   91.0856   81.8402   89.5249 O   0  0  0  0  0  0  0  0  0  0  0  0
   91.8129   81.8584   88.3164 C   0  0  0  0  0  0  0  0  0  0  0  0
   91.9919   80.7892   86.0276 C   0  0  0  0  0  0  0  0  0  0  0  0
   91.4934   80.6010   87.4745 C   0  0  0  0  0  0  0  0  0  0  0  0
   89.9723   80.3472   87.4667 C   0  0  0  0  0  0  0  0  0  0  0  0
   92.2046   79.3836   88.0987 C   0  0  0  0  0  0  0  0  0  0  0  0
   87.3431   89.2781   88.6191 C   0  0  0  0  0  0  0  0  0  0  0  0
   88.0873   90.1754   89.4454 O   0  0  0  0  0  0  0  0  0  0  0  0
   89.4814   90.1522   89.6239 C   0  0  0  0  0  0  0  0  0  0  0  0
   90.2554   89.4695   88.6823 C   0  0  0  0  0  0  0  0  0  0  0  0
   91.6412   89.3950   88.8235 C   0  0  0  0  0  0  0  0  0  0  0  0
   92.2801   90.0088   89.9098 C   0  0  0  0  0  0  0  0  0  0  0  0
   93.6651   89.9013   90.0384 O   0  0  0  0  0  0  0  0  0  0  0  0
   91.5186   90.7215   90.8632 C   0  0  0  0  0  0  0  0  0  0  0  0
   90.1202   90.7887   90.7048 C   0  0  0  0  0  0  0  0  0  0  0  0
   94.1594   89.4260   89.3999 H   0  0  0  0  0  0  0  0  0  0  0  0
   92.1572   91.3994   92.0212 C   0  0  0  0  0  0  0  0  0  0  0  0
   91.9222   92.6171   92.2516 O   0  0  0  0  0  0  0  0  0  0  0  0
   93.0264   90.7092   92.8630 O   0  0  0  0  0  0  0  0  0  0  0  0
   93.2114   89.8043   92.7054 H   0  0  0  0  0  0  0  0  0  0  0  0
 18 19  1  0  0  0
 19 20  1  0  0  0
 19 21  1  0  0  0
 19 17  1  0  0  0
 17 16  1  0  0  0
 16 13  1  0  0  0
 13 14  2  0  0  0
 13 15  2  0  0  0
 13  7  1  0  0  0
  7  8  2  0  0  0
  8  9  1  0  0  0
  9 10  2  0  0  0
 10 11  1  0  0  0
 11  1  1  0  0  0
  1  2  2  0  0  0
  2  3  1  0  0  0
  3  4  2  0  0  0
  4  5  1  0  0  0
  5 22  1  0  0  0
 22 23  1  0  0  0
 23 24  1  0  0  0
 24 25  2  0  0  0
 25 26  1  0  0  0
 26 27  2  0  0  0
 27 28  1  0  0  0
 27 29  1  0  0  0
 29 32  1  0  0  0
 32 33  2  0  0  0
 32 34  1  0  0  0
 29 30  2  0  0  0
  5  6  2  0  0  0
 11 12  2  0  0  0
 12  7  1  0  0  0
  6  1  1  0  0  0
 30 24  1  0  0  0
 28 31  1  0  0  0
 34 35  1  0  0  0
M  END
> <Activity>
91.6

> <minimizedAffinity>
-9.32652

> <CNNscore>
0.5582393408

> <CNNaffinity>
6.5458822250

> <CNN_VS>
3.6541690826

$$$$
HIPS6247


 35 37  0  0  0  0  0  0  0  0999 V2000
   89.7033   89.6800   90.2120 C   0  0  0  0  0  0  0  0  0  0  0  0
   90.8395   89.5393   89.3948 C   0  0  0  0  0  0  0  0  0  0  0  0
   91.5366   90.6658   88.9521 C   0  0  0  0  0  0  0  0  0  0  0  0
   91.1134   91.9438   89.3213 C   0  0  0  0  0  0  0  0  0  0  0  0
   89.9927   92.1048   90.1488 C   0  0  0  0  0  0  0  0  0  0  0  0
   89.2829   90.9721   90.5788 C   0  0  0  0  0  0  0  0  0  0  0  0
   88.9337   86.1685   91.4422 C   0  0  0  0  0  0  0  0  0  0  0  0
   87.5366   86.2143   91.5381 C   0  0  0  0  0  0  0  0  0  0  0  0
   86.8503   87.3829   91.2029 C   0  0  0  0  0  0  0  0  0  0  0  0
   87.5522   88.5114   90.7718 C   0  0  0  0  0  0  0  0  0  0  0  0
   88.9553   88.4839   90.6752 C   0  0  0  0  0  0  0  0  0  0  0  0
   89.6386   87.3031   91.0189 C   0  0  0  0  0  0  0  0  0  0  0  0
   89.8146   84.6958   91.8354 S   0  0  0  0  0  0  0  0  0  0  0  0
   91.1877   85.1019   92.2914 O   0  0  0  0  0  0  0  0  0  0  0  0
   89.1505   83.9733   92.9749 O   0  0  0  0  0  0  0  0  0  0  0  0
   89.9904   83.6264   90.4616 N   0  0  0  0  0  0  0  0  0  0  0  0
   89.3640   82.8347   90.6073 H   0  0  0  0  0  0  0  0  0  0  0  0
   92.2854   84.1146   89.5359 C   0  0  0  0  0  0  0  0  0  0  0  0
   91.3461   83.0796   90.1929 C   0  0  0  0  0  0  0  0  0  0  0  0
   91.1846   81.8916   89.2183 C   0  0  0  0  0  0  0  0  0  0  0  0
   91.9834   82.5326   91.4874 C   0  0  0  0  0  0  0  0  0  0  0  0
   89.5128   93.4804   90.5081 C   0  0  0  0  0  0  0  0  0  0  0  0
   89.1144   93.4940   91.8759 O   0  0  0  0  0  0  0  0  0  0  0  0
   88.1969   94.4000   92.4284 C   0  0  0  0  0  0  0  0  0  0  0  0
   87.0953   94.7775   91.6578 C   0  0  0  0  0  0  0  0  0  0  0  0
   86.1478   95.6667   92.1648 C   0  0  0  0  0  0  0  0  0  0  0  0
   86.2815   96.1937   93.4536 C   0  0  0  0  0  0  0  0  0  0  0  0
   85.2572   97.0145   93.9301 O   0  0  0  0  0  0  0  0  0  0  0  0
   87.4134   95.8552   94.2347 C   0  0  0  0  0  0  0  0  0  0  0  0
   88.3514   94.9413   93.7183 C   0  0  0  0  0  0  0  0  0  0  0  0
   84.5243   97.2152   93.3820 H   0  0  0  0  0  0  0  0  0  0  0  0
   87.6674   96.4589   95.5613 C   0  0  0  0  0  0  0  0  0  0  0  0
   88.8101   96.9141   95.8387 O   0  0  0  0  0  0  0  0  0  0  0  0
   86.6388   96.5864   96.4903 O   0  0  0  0  0  0  0  0  0  0  0  0
   85.7861   96.2514   96.2940 H   0  0  0  0  0  0  0  0  0  0  0  0
 18 19  1  0  0  0
 19 20  1  0  0  0
 19 21  1  0  0  0
 19 16  1  0  0  0
 16 13  1  0  0  0
 13 14  2  0  0  0
 13 15  2  0  0  0
 13  7  1  0  0  0
  7  8  2  0  0  0
  8  9  1  0  0  0
  9 10  2  0  0  0
 10 11  1  0  0  0
 11  1  1  0  0  0
  1  2  2  0  0  0
  2  3  1  0  0  0
  3  4  2  0  0  0
  4  5  1  0  0  0
  5 22  1  0  0  0
 22 23  1  0  0  0
 23 24  1  0  0  0
 24 25  2  0  0  0
 25 26  1  0  0  0
 26 27  2  0  0  0
 27 28  1  0  0  0
 27 29  1  0  0  0
 29 32  1  0  0  0
 32 33  2  0  0  0
 32 34  1  0  0  0
 29 30  2  0  0  0
  5  6  2  0  0  0
 11 12  2  0  0  0
 12  7  1  0  0  0
  6  1  1  0  0  0
 30 24  1  0  0  0
 16 17  1  0  0  0
 28 31  1  0  0  0
 34 35  1  0  0  0
M  END
> <Activity>
95.2

> <minimizedAffinity>
-8.81709

> <CNNscore>
0.4544212818

> <CNNaffinity>
5.9827251434

> <CNN_VS>
2.7186775208

$$$$
HIPS6247


 35 37  0  0  0  0  0  0  0  0999 V2000
   89.3142   86.8640   90.9851 C   0  0  0  0  0  0  0  0  0  0  0  0
   90.4302   86.0194   90.8441 C   0  0  0  0  0  0  0  0  0  0  0  0
   90.3808   84.6997   91.2990 C   0  0  0  0  0  0  0  0  0  0  0  0
   89.2193   84.2050   91.8948 C   0  0  0  0  0  0  0  0  0  0  0  0
   88.0905   85.0259   92.0299 C   0  0  0  0  0  0  0  0  0  0  0  0
   88.1475   86.3575   91.5878 C   0  0  0  0  0  0  0  0  0  0  0  0
   90.5594   90.0803   89.3911 C   0  0  0  0  0  0  0  0  0  0  0  0
   89.4765   90.9374   89.6270 C   0  0  0  0  0  0  0  0  0  0  0  0
   88.3478   90.4693   90.3021 C   0  0  0  0  0  0  0  0  0  0  0  0
   88.2921   89.1451   90.7445 C   0  0  0  0  0  0  0  0  0  0  0  0
   89.3684   88.2700   90.5111 C   0  0  0  0  0  0  0  0  0  0  0  0
   90.5000   88.7498   89.8264 C   0  0  0  0  0  0  0  0  0  0  0  0
   92.0019   90.6597   88.5646 S   0  0  0  0  0  0  0  0  0  0  0  0
   92.1070   89.9106   87.2661 O   0  0  0  0  0  0  0  0  0  0  0  0
   91.8705   92.1218   88.2385 O   0  0  0  0  0  0  0  0  0  0  0  0
   93.4658   90.3733   89.4794 N   0  0  0  0  0  0  0  0  0  0  0  0
   93.3858   89.4495   89.9044 H   0  0  0  0  0  0  0  0  0  0  0  0
   94.3975   92.6523   90.0274 C   0  0  0  0  0  0  0  0  0  0  0  0
   93.7914   91.3368   90.5633 C   0  0  0  0  0  0  0  0  0  0  0  0
   94.8361   90.6671   91.4838 C   0  0  0  0  0  0  0  0  0  0  0  0
   92.5449   91.6388   91.4213 C   0  0  0  0  0  0  0  0  0  0  0  0
   86.8582   84.5065   92.7107 C   0  0  0  0  0  0  0  0  0  0  0  0
   85.8548   84.2533   91.7315 O   0  0  0  0  0  0  0  0  0  0  0  0
   85.5319   85.1234   90.6796 C   0  0  0  0  0  0  0  0  0  0  0  0
   84.9586   86.3570   90.9949 C   0  0  0  0  0  0  0  0  0  0  0  0
   84.6292   87.2630   89.9869 C   0  0  0  0  0  0  0  0  0  0  0  0
   84.8693   86.9546   88.6438 C   0  0  0  0  0  0  0  0  0  0  0  0
   84.5910   87.9369   87.6911 O   0  0  0  0  0  0  0  0  0  0  0  0
   85.4116   85.6919   88.3013 C   0  0  0  0  0  0  0  0  0  0  0  0
   85.7577   84.7952   89.3298 C   0  0  0  0  0  0  0  0  0  0  0  0
   84.2323   88.7603   87.9581 H   0  0  0  0  0  0  0  0  0  0  0  0
   85.5915   85.2636   86.8966 C   0  0  0  0  0  0  0  0  0  0  0  0
   86.2126   86.0035   86.0863 O   0  0  0  0  0  0  0  0  0  0  0  0
   85.1338   84.0199   86.4711 O   0  0  0  0  0  0  0  0  0  0  0  0
   84.6711   83.4625   87.0654 H   0  0  0  0  0  0  0  0  0  0  0  0
 18 19  1  0  0  0
 19 20  1  0  0  0
 19 21  1  0  0  0
 19 16  1  0  0  0
 16 13  1  0  0  0
 13 14  2  0  0  0
 13 15  2  0  0  0
 13  7  1  0  0  0
  7  8  2  0  0  0
  8  9  1  0  0  0
  9 10  2  0  0  0
 10 11  1  0  0  0
 11  1  1  0  0  0
  1  2  2  0  0  0
  2  3  1  0  0  0
  3  4  2  0  0  0
  4  5  1  0  0  0
  5 22  1  0  0  0
 22 23  1  0  0  0
 23 24  1  0  0  0
 24 25  2  0  0  0
 25 26  1  0  0  0
 26 27  2  0  0  0
 27 28  1  0  0  0
 27 29  1  0  0  0
 29 32  1  0  0  0
 32 33  2  0  0  0
 32 34  1  0  0  0
 29 30  2  0  0  0
  5  6  2  0  0  0
 11 12  2  0  0  0
 12  7  1  0  0  0
  6  1  1  0  0  0
 30 24  1  0  0  0
 16 17  1  0  0  0
 28 31  1  0  0  0
 34 35  1  0  0  0
M  END
> <Activity>
95.2

> <minimizedAffinity>
-9.19389

> <CNNscore>
0.4257990122

> <CNNaffinity>
6.3503179550

> <CNN_VS>
2.7039592266

$$$$
HIPS6247


 35 37  0  0  0  0  0  0  0  0999 V2000
   85.7596   86.0763   90.0842 C   0  0  0  0  0  0  0  0  0  0  0  0
   85.4805   87.2400   90.8234 C   0  0  0  0  0  0  0  0  0  0  0  0
   85.7097   87.2754   92.2008 C   0  0  0  0  0  0  0  0  0  0  0  0
   86.2233   86.1551   92.8565 C   0  0  0  0  0  0  0  0  0  0  0  0
   86.5235   84.9908   92.1350 C   0  0  0  0  0  0  0  0  0  0  0  0
   86.2763   84.9510   90.7533 C   0  0  0  0  0  0  0  0  0  0  0  0
   84.7864   87.1326   86.5666 C   0  0  0  0  0  0  0  0  0  0  0  0
   85.0147   85.9479   85.8543 C   0  0  0  0  0  0  0  0  0  0  0  0
   85.4824   84.8119   86.5173 C   0  0  0  0  0  0  0  0  0  0  0  0
   85.7259   84.8508   87.8926 C   0  0  0  0  0  0  0  0  0  0  0  0
   85.5070   86.0338   88.6217 C   0  0  0  0  0  0  0  0  0  0  0  0
   85.0394   87.1746   87.9442 C   0  0  0  0  0  0  0  0  0  0  0  0
   84.1719   88.5676   85.7526 S   0  0  0  0  0  0  0  0  0  0  0  0
   82.6765   88.4377   85.6810 O   0  0  0  0  0  0  0  0  0  0  0  0
   84.4850   89.8016   86.5529 O   0  0  0  0  0  0  0  0  0  0  0  0
   84.7836   88.7332   84.1215 N   0  0  0  0  0  0  0  0  0  0  0  0
   85.7636   89.0081   84.1882 H   0  0  0  0  0  0  0  0  0  0  0  0
   82.7994   89.1584   82.6234 C   0  0  0  0  0  0  0  0  0  0  0  0
   84.1040   89.7140   83.2353 C   0  0  0  0  0  0  0  0  0  0  0  0
   85.0729   90.0465   82.0787 C   0  0  0  0  0  0  0  0  0  0  0  0
   83.8168   91.0287   83.9906 C   0  0  0  0  0  0  0  0  0  0  0  0
   87.0333   83.7728   92.8481 C   0  0  0  0  0  0  0  0  0  0  0  0
   88.4136   83.9525   93.1519 O   0  0  0  0  0  0  0  0  0  0  0  0
   89.4246   84.1155   92.1932 C   0  0  0  0  0  0  0  0  0  0  0  0
   89.8698   85.4095   91.9158 C   0  0  0  0  0  0  0  0  0  0  0  0
   90.8807   85.6250   90.9792 C   0  0  0  0  0  0  0  0  0  0  0  0
   91.4686   84.5505   90.3037 C   0  0  0  0  0  0  0  0  0  0  0  0
   92.5296   84.8277   89.4391 O   0  0  0  0  0  0  0  0  0  0  0  0
   91.0020   83.2344   90.5409 C   0  0  0  0  0  0  0  0  0  0  0  0
   89.9951   83.0296   91.5031 C   0  0  0  0  0  0  0  0  0  0  0  0
   92.8088   85.7126   89.3088 H   0  0  0  0  0  0  0  0  0  0  0  0
   91.5077   82.0681   89.7840 C   0  0  0  0  0  0  0  0  0  0  0  0
   91.6501   80.9558   90.3604 O   0  0  0  0  0  0  0  0  0  0  0  0
   91.7720   82.1686   88.4212 O   0  0  0  0  0  0  0  0  0  0  0  0
   91.6692   82.9906   87.9834 H   0  0  0  0  0  0  0  0  0  0  0  0
 18 19  1  0  0  0
 19 20  1  0  0  0
 19 21  1  0  0  0
 19 16  1  0  0  0
 16 13  1  0  0  0
 13 14  2  0  0  0
 13 15  2  0  0  0
 13  7  1  0  0  0
  7  8  2  0  0  0
  8  9  1  0  0  0
  9 10  2  0  0  0
 10 11  1  0  0  0
 11  1  1  0  0  0
  1  2  2  0  0  0
  2  3  1  0  0  0
  3  4  2  0  0  0
  4  5  1  0  0  0
  5 22  1  0  0  0
 22 23  1  0  0  0
 23 24  1  0  0  0
 24 25  2  0  0  0
 25 26  1  0  0  0
 26 27  2  0  0  0
 27 28  1  0  0  0
 27 29  1  0  0  0
 29 32  1  0  0  0
 32 33  2  0  0  0
 32 34  1  0  0  0
 29 30  2  0  0  0
  5  6  2  0  0  0
 11 12  2  0  0  0
 12  7  1  0  0  0
  6  1  1  0  0  0
 30 24  1  0  0  0
 16 17  1  0  0  0
 28 31  1  0  0  0
 34 35  1  0  0  0
M  END
> <Activity>
95.2

> <minimizedAffinity>
-7.70916

> <CNNscore>
0.4215193689

> <CNNaffinity>
6.1103734970

> <CNN_VS>
2.5756406784

$$$$
HIPS6897


 30 33  0  0  0  0  0  0  0  0999 V2000
   88.5747   90.1993   90.7144 C   0  0  0  0  0  0  0  0  0  0  0  0
   89.0281   91.3627   90.5024 N   0  0  0  0  0  0  0  0  0  0  0  0
   91.6199   88.1221   90.0754 C   0  0  0  0  0  0  0  0  0  0  0  0
   90.7533   89.2075   90.1992 C   0  0  0  0  0  0  0  0  0  0  0  0
   89.4503   89.0565   90.5946 C   0  0  0  0  0  0  0  0  0  0  0  0
   88.9871   87.7934   90.8768 C   0  0  0  0  0  0  0  0  0  0  0  0
   89.8303   86.6792   90.7631 C   0  0  0  0  0  0  0  0  0  0  0  0
   91.1306   86.8705   90.3639 C   0  0  0  0  0  0  0  0  0  0  0  0
   92.0270   85.8009   90.2295 O   0  0  0  0  0  0  0  0  0  0  0  0
   91.7444   84.9267   90.4139 H   0  0  0  0  0  0  0  0  0  0  0  0
   93.4645   87.6823   88.5018 N   0  0  0  0  0  0  0  0  0  0  0  0
   92.9849   88.3455   89.6537 C   0  0  0  0  0  0  0  0  0  0  0  0
   93.7219   89.1138   90.3024 O   0  0  0  0  0  0  0  0  0  0  0  0
   94.3915   87.8242   88.2022 H   0  0  0  0  0  0  0  0  0  0  0  0
   92.8716   87.0784   87.9988 H   0  0  0  0  0  0  0  0  0  0  0  0
   88.3390   92.5521   90.5718 N   0  0  0  0  0  0  0  0  0  0  0  0
   88.9586   93.8329   90.6909 C   0  0  0  0  0  0  0  0  0  0  0  0
   90.2139   93.8042   90.7296 O   0  0  0  0  0  0  0  0  0  0  0  0
   87.3557   92.5175   90.5371 H   0  0  0  0  0  0  0  0  0  0  0  0
   88.2184   95.0860   90.7637 C   0  0  0  0  0  0  0  0  0  0  0  0
   87.5374   95.4031   92.0442 C   0  0  0  0  0  0  0  0  0  0  0  0
   88.2731   94.6929   93.2021 C   0  0  0  0  0  0  0  0  0  0  0  0
   87.7132   95.1022   94.5201 C   0  0  0  0  0  0  0  0  0  0  0  0
   86.2678   94.7271   94.5909 C   0  0  0  0  0  0  0  0  0  0  0  0
   85.5472   95.4206   93.4630 C   0  0  0  0  0  0  0  0  0  0  0  0
   85.6584   96.9025   93.6959 C   0  0  0  0  0  0  0  0  0  0  0  0
   87.1208   97.2990   93.6570 C   0  0  0  0  0  0  0  0  0  0  0  0
   87.9541   96.5911   94.6721 C   0  0  0  0  0  0  0  0  0  0  0  0
   87.6199   96.9115   92.2676 C   0  0  0  0  0  0  0  0  0  0  0  0
   86.1136   94.9941   92.1199 C   0  0  0  0  0  0  0  0  0  0  0  0
 11 12  1  0  0  0
 12 13  2  0  0  0
 12  3  1  0  0  0
  3  4  2  0  0  0
  4  5  1  0  0  0
  5  1  1  0  0  0
  1  2  2  0  0  0
  2 16  1  0  0  0
 16 17  1  0  0  0
 17 18  2  0  0  0
 17 20  1  0  0  0
 21 20  1  0  0  0
 21 22  1  0  0  0
 23 22  1  0  0  0
 23 24  1  0  0  0
 25 24  1  0  0  0
 25 26  1  0  0  0
 27 26  1  0  0  0
 27 28  1  0  0  0
 27 29  1  0  0  0
 25 30  1  0  0  0
  5  6  2  0  0  0
  6  7  1  0  0  0
  7  8  2  0  0  0
  8  9  1  0  0  0
  8  3  1  0  0  0
 29 21  1  0  0  0
 30 21  1  0  0  0
 28 23  1  0  0  0
 11 14  1  0  0  0
 11 15  1  0  0  0
 16 19  1  0  0  0
  9 10  1  0  0  0
M  END
> <Activity>
116.0

> <minimizedAffinity>
-7.70861

> <CNNscore>
0.3995161951

> <CNNaffinity>
5.1014232635

> <CNN_VS>
2.0381011963

$$$$
HIPS6897


 30 33  0  0  0  0  0  0  0  0999 V2000
   91.5958   87.7825   90.1619 C   0  0  0  0  0  0  0  0  0  0  0  0
   92.6331   88.0508   89.4865 N   0  0  0  0  0  0  0  0  0  0  0  0
   90.0515   84.7892   91.7901 C   0  0  0  0  0  0  0  0  0  0  0  0
   90.3661   86.1054   91.4546 C   0  0  0  0  0  0  0  0  0  0  0  0
   91.2895   86.4091   90.4891 C   0  0  0  0  0  0  0  0  0  0  0  0
   91.9233   85.3805   89.8334 C   0  0  0  0  0  0  0  0  0  0  0  0
   91.6318   84.0451   90.1449 C   0  0  0  0  0  0  0  0  0  0  0  0
   90.7000   83.7802   91.1188 C   0  0  0  0  0  0  0  0  0  0  0  0
   90.3611   82.4685   91.4797 O   0  0  0  0  0  0  0  0  0  0  0  0
   90.7739   81.7436   91.0528 H   0  0  0  0  0  0  0  0  0  0  0  0
   87.8862   83.8353   92.4786 N   0  0  0  0  0  0  0  0  0  0  0  0
   89.0676   84.5323   92.8182 C   0  0  0  0  0  0  0  0  0  0  0  0
   89.2661   84.9232   93.9853 O   0  0  0  0  0  0  0  0  0  0  0  0
   87.2070   83.6529   93.1675 H   0  0  0  0  0  0  0  0  0  0  0  0
   87.7423   83.5322   91.5530 H   0  0  0  0  0  0  0  0  0  0  0  0
   93.0718   89.2934   89.0893 N   0  0  0  0  0  0  0  0  0  0  0  0
   92.4854   90.0512   88.0308 C   0  0  0  0  0  0  0  0  0  0  0  0
   91.5116   89.4932   87.4664 O   0  0  0  0  0  0  0  0  0  0  0  0
   93.8392   89.6849   89.5657 H   0  0  0  0  0  0  0  0  0  0  0  0
   92.9587   91.3664   87.6189 C   0  0  0  0  0  0  0  0  0  0  0  0
   92.4568   92.5404   88.3764 C   0  0  0  0  0  0  0  0  0  0  0  0
   91.2080   92.1280   89.1869 C   0  0  0  0  0  0  0  0  0  0  0  0
   90.7598   93.2356   90.0760 C   0  0  0  0  0  0  0  0  0  0  0  0
   90.4024   94.4297   89.2507 C   0  0  0  0  0  0  0  0  0  0  0  0
   91.6201   94.8354   88.4602 C   0  0  0  0  0  0  0  0  0  0  0  0
   92.6832   95.2459   89.4422 C   0  0  0  0  0  0  0  0  0  0  0  0
   93.0393   94.0549   90.3094 C   0  0  0  0  0  0  0  0  0  0  0  0
   91.8771   93.5032   91.0649 C   0  0  0  0  0  0  0  0  0  0  0  0
   93.5466   92.9801   89.3516 C   0  0  0  0  0  0  0  0  0  0  0  0
   92.0693   93.7078   87.5474 C   0  0  0  0  0  0  0  0  0  0  0  0
 11 12  1  0  0  0
 12 13  2  0  0  0
 12  3  1  0  0  0
  3  4  2  0  0  0
  4  5  1  0  0  0
  5  1  1  0  0  0
  1  2  2  0  0  0
  2 16  1  0  0  0
 16 17  1  0  0  0
 17 18  2  0  0  0
 17 20  1  0  0  0
 21 20  1  0  0  0
 21 22  1  0  0  0
 23 22  1  0  0  0
 23 24  1  0  0  0
 25 24  1  0  0  0
 25 26  1  0  0  0
 27 26  1  0  0  0
 27 28  1  0  0  0
 27 29  1  0  0  0
 25 30  1  0  0  0
  5  6  2  0  0  0
  6  7  1  0  0  0
  7  8  2  0  0  0
  8  9  1  0  0  0
  8  3  1  0  0  0
 29 21  1  0  0  0
 30 21  1  0  0  0
 28 23  1  0  0  0
 11 14  1  0  0  0
 11 15  1  0  0  0
 16 19  1  0  0  0
  9 10  1  0  0  0
M  END
> <Activity>
116.0

> <minimizedAffinity>
-6.55271

> <CNNscore>
0.3275837004

> <CNNaffinity>
5.3579196930

> <CNN_VS>
1.7551671267

$$$$
HIPS6897


 30 33  0  0  0  0  0  0  0  0999 V2000
   87.7589   88.8811   88.3975 C   0  0  0  0  0  0  0  0  0  0  0  0
   87.9843   89.1224   89.6202 N   0  0  0  0  0  0  0  0  0  0  0  0
   85.3464   86.4616   86.8737 C   0  0  0  0  0  0  0  0  0  0  0  0
   86.5256   87.0964   87.2620 C   0  0  0  0  0  0  0  0  0  0  0  0
   86.5215   88.2447   88.0093 C   0  0  0  0  0  0  0  0  0  0  0  0
   85.3145   88.7844   88.3855 C   0  0  0  0  0  0  0  0  0  0  0  0
   84.1091   88.1731   88.0130 C   0  0  0  0  0  0  0  0  0  0  0  0
   84.1537   87.0228   87.2637 C   0  0  0  0  0  0  0  0  0  0  0  0
   82.9869   86.3603   86.8571 O   0  0  0  0  0  0  0  0  0  0  0  0
   82.1473   86.7009   87.0962 H   0  0  0  0  0  0  0  0  0  0  0  0
   84.8998   84.0512   86.6235 N   0  0  0  0  0  0  0  0  0  0  0  0
   85.4156   85.2515   86.0851 C   0  0  0  0  0  0  0  0  0  0  0  0
   85.9245   85.2750   84.9473 O   0  0  0  0  0  0  0  0  0  0  0  0
   84.9397   83.2192   86.0988 H   0  0  0  0  0  0  0  0  0  0  0  0
   84.5005   84.0470   87.5234 H   0  0  0  0  0  0  0  0  0  0  0  0
   89.1013   89.7175   90.1611 N   0  0  0  0  0  0  0  0  0  0  0  0
   89.2343   91.1214   90.3842 C   0  0  0  0  0  0  0  0  0  0  0  0
   88.2342   91.8013   90.0443 O   0  0  0  0  0  0  0  0  0  0  0  0
   89.8571   89.1378   90.4102 H   0  0  0  0  0  0  0  0  0  0  0  0
   90.4223   91.7404   90.9578 C   0  0  0  0  0  0  0  0  0  0  0  0
   91.4058   92.3320   90.0161 C   0  0  0  0  0  0  0  0  0  0  0  0
   91.0005   93.7899   89.7053 C   0  0  0  0  0  0  0  0  0  0  0  0
   92.0398   94.4682   88.8818 C   0  0  0  0  0  0  0  0  0  0  0  0
   92.2027   93.7461   87.5830 C   0  0  0  0  0  0  0  0  0  0  0  0
   92.6002   92.3235   87.8836 C   0  0  0  0  0  0  0  0  0  0  0  0
   93.9384   92.3610   88.5697 C   0  0  0  0  0  0  0  0  0  0  0  0
   93.8009   93.1155   89.8770 C   0  0  0  0  0  0  0  0  0  0  0  0
   93.3115   94.5144   89.7055 C   0  0  0  0  0  0  0  0  0  0  0  0
   92.7724   92.3416   90.6975 C   0  0  0  0  0  0  0  0  0  0  0  0
   91.5344   91.6312   88.7151 C   0  0  0  0  0  0  0  0  0  0  0  0
 11 12  1  0  0  0
 12 13  2  0  0  0
 12  3  1  0  0  0
  3  4  2  0  0  0
  4  5  1  0  0  0
  5  1  1  0  0  0
  1  2  2  0  0  0
  2 16  1  0  0  0
 16 17  1  0  0  0
 17 18  2  0  0  0
 17 20  1  0  0  0
 21 20  1  0  0  0
 21 22  1  0  0  0
 23 22  1  0  0  0
 23 24  1  0  0  0
 25 24  1  0  0  0
 25 26  1  0  0  0
 27 26  1  0  0  0
 27 28  1  0  0  0
 27 29  1  0  0  0
 25 30  1  0  0  0
  5  6  2  0  0  0
  6  7  1  0  0  0
  7  8  2  0  0  0
  8  9  1  0  0  0
  8  3  1  0  0  0
 29 21  1  0  0  0
 30 21  1  0  0  0
 28 23  1  0  0  0
 11 14  1  0  0  0
 11 15  1  0  0  0
 16 19  1  0  0  0
  9 10  1  0  0  0
M  END
> <Activity>
116.0

> <minimizedAffinity>
-6.12541

> <CNNscore>
0.3092312813

> <CNNaffinity>
4.8099451065

> <CNN_VS>
1.4873855114

$$$$
HIPS6706


 25 27  0  0  0  0  0  0  0  0999 V2000
   89.0546   90.8390   90.4839 N   0  0  0  0  0  0  0  0  0  0  0  0
   90.2430   90.8089   89.9515 C   0  0  0  0  0  0  0  0  0  0  0  0
   91.1298   89.6294   89.9667 C   0  0  0  0  0  0  0  0  0  0  0  0
   92.5012   89.6080   89.7846 C   0  0  0  0  0  0  0  0  0  0  0  0
   92.8696   88.2820   89.8509 C   0  0  0  0  0  0  0  0  0  0  0  0
   91.6983   87.5703   90.0583 C   0  0  0  0  0  0  0  0  0  0  0  0
   90.6832   88.4042   90.1151 O   0  0  0  0  0  0  0  0  0  0  0  0
   91.5575   86.1020   90.1961 C   0  0  0  0  0  0  0  0  0  0  0  0
   90.6078   85.5770   91.0908 C   0  0  0  0  0  0  0  0  0  0  0  0
   90.4588   84.1946   91.2372 C   0  0  0  0  0  0  0  0  0  0  0  0
   91.2557   83.3204   90.4933 C   0  0  0  0  0  0  0  0  0  0  0  0
   91.0673   81.5862   90.6787 Cl  0  0  0  0  0  0  0  0  0  0  0  0
   92.2033   83.8302   89.6014 C   0  0  0  0  0  0  0  0  0  0  0  0
   92.3558   85.2123   89.4516 C   0  0  0  0  0  0  0  0  0  0  0  0
   87.2658   89.2633   89.0120 O   0  0  0  0  0  0  0  0  0  0  0  0
   87.5569   88.8841   90.1795 C   0  0  0  0  0  0  0  0  0  0  0  0
   88.3837   89.7193   91.0066 N   0  0  0  0  0  0  0  0  0  0  0  0
   88.4827   89.5024   91.9618 H   0  0  0  0  0  0  0  0  0  0  0  0
   87.0341   87.5898   90.6804 C   0  0  0  0  0  0  0  0  0  0  0  0
   86.4412   87.4918   91.9535 C   0  0  0  0  0  0  0  0  0  0  0  0
   85.9646   86.2629   92.4204 C   0  0  0  0  0  0  0  0  0  0  0  0
   86.0774   85.1183   91.6267 C   0  0  0  0  0  0  0  0  0  0  0  0
   85.4265   83.4414   92.2685 Br  0  0  0  0  0  0  0  0  0  0  0  0
   86.6722   85.2017   90.3652 C   0  0  0  0  0  0  0  0  0  0  0  0
   87.1514   86.4280   89.8946 C   0  0  0  0  0  0  0  0  0  0  0  0
 15 16  2  0  0  0
 16 17  1  0  0  0
 17  1  1  0  0  0
  1  2  2  0  0  0
  2  3  1  0  0  0
  3  4  2  0  0  0
  4  5  1  0  0  0
  5  6  2  0  0  0
  6  8  1  0  0  0
  8  9  2  0  0  0
  9 10  1  0  0  0
 10 11  2  0  0  0
 11 12  1  0  0  0
 11 13  1  0  0  0
 13 14  2  0  0  0
  6  7  1  0  0  0
 16 19  1  0  0  0
 19 20  2  0  0  0
 20 21  1  0  0  0
 21 22  2  0  0  0
 22 23  1  0  0  0
 22 24  1  0  0  0
 24 25  2  0  0  0
  7  3  1  0  0  0
 25 19  1  0  0  0
 14  8  1  0  0  0
 17 18  1  0  0  0
M  END
> <Activity>
122.3

> <minimizedAffinity>
-7.51377

> <CNNscore>
0.6557858586

> <CNNaffinity>
6.3922567368

> <CNN_VS>
4.1919517517

$$$$
HIPS6706


 25 27  0  0  0  0  0  0  0  0999 V2000
   92.6728   88.3552   89.2964 N   0  0  0  0  0  0  0  0  0  0  0  0
   93.2761   89.3114   89.9431 C   0  0  0  0  0  0  0  0  0  0  0  0
   92.5834   90.3276   90.7588 C   0  0  0  0  0  0  0  0  0  0  0  0
   92.9378   90.7769   92.0185 C   0  0  0  0  0  0  0  0  0  0  0  0
   91.9736   91.6936   92.3769 C   0  0  0  0  0  0  0  0  0  0  0  0
   91.0801   91.7414   91.3182 C   0  0  0  0  0  0  0  0  0  0  0  0
   91.4713   90.9107   90.3769 O   0  0  0  0  0  0  0  0  0  0  0  0
   89.8597   92.5751   91.2159 C   0  0  0  0  0  0  0  0  0  0  0  0
   88.8955   92.2765   90.2365 C   0  0  0  0  0  0  0  0  0  0  0  0
   87.7370   93.0506   90.1217 C   0  0  0  0  0  0  0  0  0  0  0  0
   87.5275   94.1316   90.9821 C   0  0  0  0  0  0  0  0  0  0  0  0
   86.0733   95.1018   90.8362 Cl  0  0  0  0  0  0  0  0  0  0  0  0
   88.4787   94.4385   91.9590 C   0  0  0  0  0  0  0  0  0  0  0  0
   89.6390   93.6669   92.0775 C   0  0  0  0  0  0  0  0  0  0  0  0
   91.6088   86.5703   91.1755 O   0  0  0  0  0  0  0  0  0  0  0  0
   90.7981   87.2135   90.4539 C   0  0  0  0  0  0  0  0  0  0  0  0
   91.3031   88.0563   89.4051 N   0  0  0  0  0  0  0  0  0  0  0  0
   90.6752   88.4333   88.7472 H   0  0  0  0  0  0  0  0  0  0  0  0
   89.3407   87.0816   90.6940 C   0  0  0  0  0  0  0  0  0  0  0  0
   88.7732   85.8415   91.0434 C   0  0  0  0  0  0  0  0  0  0  0  0
   87.3956   85.7269   91.2536 C   0  0  0  0  0  0  0  0  0  0  0  0
   86.5681   86.8442   91.1136 C   0  0  0  0  0  0  0  0  0  0  0  0
   84.6868   86.6833   91.4001 Br  0  0  0  0  0  0  0  0  0  0  0  0
   87.1189   88.0782   90.7583 C   0  0  0  0  0  0  0  0  0  0  0  0
   88.4957   88.1975   90.5459 C   0  0  0  0  0  0  0  0  0  0  0  0
 15 16  2  0  0  0
 16 17  1  0  0  0
 17  1  1  0  0  0
  1  2  2  0  0  0
  2  3  1  0  0  0
  3  4  2  0  0  0
  4  5  1  0  0  0
  5  6  2  0  0  0
  6  8  1  0  0  0
  8  9  2  0  0  0
  9 10  1  0  0  0
 10 11  2  0  0  0
 11 12  1  0  0  0
 11 13  1  0  0  0
 13 14  2  0  0  0
  6  7  1  0  0  0
 16 19  1  0  0  0
 19 20  2  0  0  0
 20 21  1  0  0  0
 21 22  2  0  0  0
 22 23  1  0  0  0
 22 24  1  0  0  0
 24 25  2  0  0  0
  7  3  1  0  0  0
 25 19  1  0  0  0
 14  8  1  0  0  0
 17 18  1  0  0  0
M  END
> <Activity>
122.3

> <minimizedAffinity>
-7.26560

> <CNNscore>
0.5720157027

> <CNNaffinity>
6.0177345276

> <CNN_VS>
3.4422385693

$$$$
HIPS6706


 25 27  0  0  0  0  0  0  0  0999 V2000
   89.4926   83.9881   92.6688 N   0  0  0  0  0  0  0  0  0  0  0  0
   89.6580   82.6996   92.5729 C   0  0  0  0  0  0  0  0  0  0  0  0
   90.4649   82.0419   91.5269 C   0  0  0  0  0  0  0  0  0  0  0  0
   91.7104   81.4570   91.6714 C   0  0  0  0  0  0  0  0  0  0  0  0
   92.0661   81.0126   90.4166 C   0  0  0  0  0  0  0  0  0  0  0  0
   91.0204   81.3633   89.5769 C   0  0  0  0  0  0  0  0  0  0  0  0
   90.0891   81.9797   90.2709 O   0  0  0  0  0  0  0  0  0  0  0  0
   90.9211   81.1112   88.1204 C   0  0  0  0  0  0  0  0  0  0  0  0
   92.0169   81.4048   87.2891 C   0  0  0  0  0  0  0  0  0  0  0  0
   91.9445   81.1756   85.9119 C   0  0  0  0  0  0  0  0  0  0  0  0
   90.7782   80.6514   85.3482 C   0  0  0  0  0  0  0  0  0  0  0  0
   90.6894   80.3647   83.6199 Cl  0  0  0  0  0  0  0  0  0  0  0  0
   89.6825   80.3561   86.1640 C   0  0  0  0  0  0  0  0  0  0  0  0
   89.7504   80.5837   87.5422 C   0  0  0  0  0  0  0  0  0  0  0  0
   88.2246   85.8471   90.9998 O   0  0  0  0  0  0  0  0  0  0  0  0
   89.4753   85.9403   91.1372 C   0  0  0  0  0  0  0  0  0  0  0  0
   90.1776   84.9422   91.8959 N   0  0  0  0  0  0  0  0  0  0  0  0
   91.1617   84.9261   91.8739 H   0  0  0  0  0  0  0  0  0  0  0  0
   90.1986   87.0709   90.5065 C   0  0  0  0  0  0  0  0  0  0  0  0
   89.5052   88.2016   90.0343 C   0  0  0  0  0  0  0  0  0  0  0  0
   90.1970   89.2551   89.4288 C   0  0  0  0  0  0  0  0  0  0  0  0
   91.5853   89.1921   89.2830 C   0  0  0  0  0  0  0  0  0  0  0  0
   92.5265   90.6325   88.4542 Br  0  0  0  0  0  0  0  0  0  0  0  0
   92.2831   88.0710   89.7397 C   0  0  0  0  0  0  0  0  0  0  0  0
   91.5956   87.0145   90.3446 C   0  0  0  0  0  0  0  0  0  0  0  0
 15 16  2  0  0  0
 16 17  1  0  0  0
 17  1  1  0  0  0
  1  2  2  0  0  0
  2  3  1  0  0  0
  3  4  2  0  0  0
  4  5  1  0  0  0
  5  6  2  0  0  0
  6  8  1  0  0  0
  8  9  2  0  0  0
  9 10  1  0  0  0
 10 11  2  0  0  0
 11 12  1  0  0  0
 11 13  1  0  0  0
 13 14  2  0  0  0
  6  7  1  0  0  0
 16 19  1  0  0  0
 19 20  2  0  0  0
 20 21  1  0  0  0
 21 22  2  0  0  0
 22 23  1  0  0  0
 22 24  1  0  0  0
 24 25  2  0  0  0
  7  3  1  0  0  0
 25 19  1  0  0  0
 14  8  1  0  0  0
 17 18  1  0  0  0
M  END
> <Activity>
122.3

> <minimizedAffinity>
-6.17023

> <CNNscore>
0.4977316558

> <CNNaffinity>
6.0056800842

> <CNN_VS>
2.9892170429

$$$$
HIPS6297


 35 38  0  0  0  0  0  0  0  0999 V2000
   88.2534   85.4431   91.9186 C   0  0  0  0  0  0  0  0  0  0  0  0
   88.8552   84.2122   91.8074 C   0  0  0  0  0  0  0  0  0  0  0  0
   90.1168   84.1463   91.2175 C   0  0  0  0  0  0  0  0  0  0  0  0
   90.7330   85.3154   90.7587 C   0  0  0  0  0  0  0  0  0  0  0  0
   90.1324   86.5469   90.8692 C   0  0  0  0  0  0  0  0  0  0  0  0
   88.8728   86.5933   91.4610 C   0  0  0  0  0  0  0  0  0  0  0  0
   90.7701   87.7699   90.3946 C   0  0  0  0  0  0  0  0  0  0  0  0
   90.0246   88.8898   90.0798 C   0  0  0  0  0  0  0  0  0  0  0  0
   90.6600   90.0402   89.6297 C   0  0  0  0  0  0  0  0  0  0  0  0
   92.0333   90.0987   89.4856 C   0  0  0  0  0  0  0  0  0  0  0  0
   92.7926   88.9840   89.7974 C   0  0  0  0  0  0  0  0  0  0  0  0
   92.1478   87.8580   90.2400 C   0  0  0  0  0  0  0  0  0  0  0  0
   92.8386   91.5195   88.9264 S   0  0  0  0  0  0  0  0  0  0  0  0
   93.5509   91.2511   87.6321 O   0  0  0  0  0  0  0  0  0  0  0  0
   93.9070   91.8758   89.9411 O   0  0  0  0  0  0  0  0  0  0  0  0
   91.7947   92.8773   88.7999 N   0  0  0  0  0  0  0  0  0  0  0  0
   91.6587   93.5834   90.0554 C   0  0  0  0  0  0  0  0  0  0  0  0
   90.2801   94.2497   90.0312 C   0  0  0  0  0  0  0  0  0  0  0  0
   90.1589   94.9554   88.7030 C   0  0  0  0  0  0  0  0  0  0  0  0
   91.4973   95.1004   88.0045 C   0  0  0  0  0  0  0  0  0  0  0  0
   92.1012   93.7315   87.7019 C   0  0  0  0  0  0  0  0  0  0  0  0
   86.9122   85.5203   92.5470 C   0  0  0  0  0  0  0  0  0  0  0  0
   85.9233   85.0095   91.6751 O   0  0  0  0  0  0  0  0  0  0  0  0
   85.3510   85.7626   88.1126 C   0  0  0  0  0  0  0  0  0  0  0  0
   85.7469   85.1069   89.2574 C   0  0  0  0  0  0  0  0  0  0  0  0
   85.5465   85.6251   90.5068 C   0  0  0  0  0  0  0  0  0  0  0  0
   84.9190   86.8587   90.6001 C   0  0  0  0  0  0  0  0  0  0  0  0
   84.5220   87.5183   89.4734 C   0  0  0  0  0  0  0  0  0  0  0  0
   84.7334   86.9795   88.2338 C   0  0  0  0  0  0  0  0  0  0  0  0
   84.3073   87.6961   87.1098 O   0  0  0  0  0  0  0  0  0  0  0  0
   83.8869   88.5268   87.2154 H   0  0  0  0  0  0  0  0  0  0  0  0
   86.2210   85.8179   85.9318 O   0  0  0  0  0  0  0  0  0  0  0  0
   85.5749   85.1900   86.7849 C   0  0  0  0  0  0  0  0  0  0  0  0
   85.0765   83.9476   86.4532 O   0  0  0  0  0  0  0  0  0  0  0  0
   84.5858   83.4564   87.0824 H   0  0  0  0  0  0  0  0  0  0  0  0
 32 33  2  0  0  0
 33 34  1  0  0  0
 33 24  1  0  0  0
 24 25  2  0  0  0
 25 26  1  0  0  0
 26 23  1  0  0  0
 23 22  1  0  0  0
 22  1  1  0  0  0
  1  2  2  0  0  0
  2  3  1  0  0  0
  3  4  2  0  0  0
  4  5  1  0  0  0
  5  7  1  0  0  0
  7  8  2  0  0  0
  8  9  1  0  0  0
  9 10  2  0  0  0
 10 13  1  0  0  0
 13 14  2  0  0  0
 13 15  2  0  0  0
 13 16  1  0  0  0
 16 17  1  0  0  0
 17 18  1  0  0  0
 18 19  1  0  0  0
 19 20  1  0  0  0
 20 21  1  0  0  0
 10 11  1  0  0  0
 11 12  2  0  0  0
  5  6  2  0  0  0
 26 27  2  0  0  0
 27 28  1  0  0  0
 28 29  2  0  0  0
 29 30  1  0  0  0
 29 24  1  0  0  0
  6  1  1  0  0  0
 12  7  1  0  0  0
 21 16  1  0  0  0
 34 35  1  0  0  0
 30 31  1  0  0  0
M  END
> <Activity>
125.3

> <minimizedAffinity>
-9.31660

> <CNNscore>
0.3935553133

> <CNNaffinity>
6.2176370621

> <CNN_VS>
2.4469840527

$$$$
HIPS6297


 35 38  0  0  0  0  0  0  0  0999 V2000
   90.1127   88.6928   90.5740 C   0  0  0  0  0  0  0  0  0  0  0  0
   91.4032   88.2207   90.5387 C   0  0  0  0  0  0  0  0  0  0  0  0
   92.4389   89.1121   90.8157 C   0  0  0  0  0  0  0  0  0  0  0  0
   92.1472   90.4464   91.1184 C   0  0  0  0  0  0  0  0  0  0  0  0
   90.8571   90.9198   91.1540 C   0  0  0  0  0  0  0  0  0  0  0  0
   89.8360   90.0153   90.8748 C   0  0  0  0  0  0  0  0  0  0  0  0
   90.5460   92.3093   91.4707 C   0  0  0  0  0  0  0  0  0  0  0  0
   91.5440   93.2134   91.7800 C   0  0  0  0  0  0  0  0  0  0  0  0
   91.2170   94.5303   92.0779 C   0  0  0  0  0  0  0  0  0  0  0  0
   89.9063   94.9687   92.0739 C   0  0  0  0  0  0  0  0  0  0  0  0
   88.8963   94.0735   91.7657 C   0  0  0  0  0  0  0  0  0  0  0  0
   89.2385   92.7783   91.4745 C   0  0  0  0  0  0  0  0  0  0  0  0
   89.4826   96.6008   92.4429 S   0  0  0  0  0  0  0  0  0  0  0  0
   88.6823   97.2068   91.3262 O   0  0  0  0  0  0  0  0  0  0  0  0
   90.7659   97.4021   92.5383 O   0  0  0  0  0  0  0  0  0  0  0  0
   88.6782   96.7612   93.9518 N   0  0  0  0  0  0  0  0  0  0  0  0
   88.2341   95.4873   94.4746 C   0  0  0  0  0  0  0  0  0  0  0  0
   87.0091   95.7794   95.3460 C   0  0  0  0  0  0  0  0  0  0  0  0
   87.3809   96.9268   96.2526 C   0  0  0  0  0  0  0  0  0  0  0  0
   88.8776   97.1704   96.2877 C   0  0  0  0  0  0  0  0  0  0  0  0
   89.3983   97.5414   94.9015 C   0  0  0  0  0  0  0  0  0  0  0  0
   89.0063   87.7492   90.2823 C   0  0  0  0  0  0  0  0  0  0  0  0
   88.6503   87.0247   91.4430 O   0  0  0  0  0  0  0  0  0  0  0  0
   90.3178   83.7451   91.2193 C   0  0  0  0  0  0  0  0  0  0  0  0
   89.9679   85.0491   90.9462 C   0  0  0  0  0  0  0  0  0  0  0  0
   89.0315   85.7262   91.6771 C   0  0  0  0  0  0  0  0  0  0  0  0
   88.4245   85.0545   92.7281 C   0  0  0  0  0  0  0  0  0  0  0  0
   88.7625   83.7626   93.0088 C   0  0  0  0  0  0  0  0  0  0  0  0
   89.7026   83.1056   92.2631 C   0  0  0  0  0  0  0  0  0  0  0  0
   90.0135   81.7812   92.5919 O   0  0  0  0  0  0  0  0  0  0  0  0
   89.5807   81.3628   93.3099 H   0  0  0  0  0  0  0  0  0  0  0  0
   92.4926   83.4504   90.3831 O   0  0  0  0  0  0  0  0  0  0  0  0
   91.3229   83.0387   90.4245 C   0  0  0  0  0  0  0  0  0  0  0  0
   90.9957   81.9066   89.7080 O   0  0  0  0  0  0  0  0  0  0  0  0
   90.1181   81.5785   89.7253 H   0  0  0  0  0  0  0  0  0  0  0  0
 32 33  2  0  0  0
 33 34  1  0  0  0
 33 24  1  0  0  0
 24 25  2  0  0  0
 25 26  1  0  0  0
 26 23  1  0  0  0
 23 22  1  0  0  0
 22  1  1  0  0  0
  1  2  2  0  0  0
  2  3  1  0  0  0
  3  4  2  0  0  0
  4  5  1  0  0  0
  5  7  1  0  0  0
  7  8  2  0  0  0
  8  9  1  0  0  0
  9 10  2  0  0  0
 10 13  1  0  0  0
 13 14  2  0  0  0
 13 15  2  0  0  0
 13 16  1  0  0  0
 16 17  1  0  0  0
 17 18  1  0  0  0
 18 19  1  0  0  0
 19 20  1  0  0  0
 20 21  1  0  0  0
 10 11  1  0  0  0
 11 12  2  0  0  0
  5  6  2  0  0  0
 26 27  2  0  0  0
 27 28  1  0  0  0
 28 29  2  0  0  0
 29 30  1  0  0  0
 29 24  1  0  0  0
  6  1  1  0  0  0
 12  7  1  0  0  0
 21 16  1  0  0  0
 34 35  1  0  0  0
 30 31  1  0  0  0
M  END
> <Activity>
125.3

> <minimizedAffinity>
-9.06138

> <CNNscore>
0.3808909059

> <CNNaffinity>
5.9809398651

> <CNN_VS>
2.2780857086

$$$$
HIPS6297


 35 38  0  0  0  0  0  0  0  0999 V2000
   91.9065   89.0283   89.9184 C   0  0  0  0  0  0  0  0  0  0  0  0
   92.7663   89.1007   88.8482 C   0  0  0  0  0  0  0  0  0  0  0  0
   92.8260   90.2945   88.1304 C   0  0  0  0  0  0  0  0  0  0  0  0
   92.0227   91.3756   88.5086 C   0  0  0  0  0  0  0  0  0  0  0  0
   91.1625   91.3046   89.5785 C   0  0  0  0  0  0  0  0  0  0  0  0
   91.1163   90.1046   90.2834 C   0  0  0  0  0  0  0  0  0  0  0  0
   90.3235   92.4285   89.9792 C   0  0  0  0  0  0  0  0  0  0  0  0
   90.6834   93.7300   89.6864 C   0  0  0  0  0  0  0  0  0  0  0  0
   89.8642   94.7802   90.0813 C   0  0  0  0  0  0  0  0  0  0  0  0
   88.6849   94.5591   90.7672 C   0  0  0  0  0  0  0  0  0  0  0  0
   88.3121   93.2600   91.0671 C   0  0  0  0  0  0  0  0  0  0  0  0
   89.1333   92.2369   90.6692 C   0  0  0  0  0  0  0  0  0  0  0  0
   87.6563   95.8523   91.2664 S   0  0  0  0  0  0  0  0  0  0  0  0
   86.2324   95.5787   90.8763 O   0  0  0  0  0  0  0  0  0  0  0  0
   88.0788   97.0975   90.5120 O   0  0  0  0  0  0  0  0  0  0  0  0
   87.7919   96.2104   92.9406 N   0  0  0  0  0  0  0  0  0  0  0  0
   87.1268   95.2267   93.7673 C   0  0  0  0  0  0  0  0  0  0  0  0
   86.7039   95.9515   95.0484 C   0  0  0  0  0  0  0  0  0  0  0  0
   87.9091   96.7178   95.5353 C   0  0  0  0  0  0  0  0  0  0  0  0
   89.1906   96.2607   94.8652 C   0  0  0  0  0  0  0  0  0  0  0  0
   89.1249   96.4902   93.3574 C   0  0  0  0  0  0  0  0  0  0  0  0
   91.8396   87.7619   90.6873 C   0  0  0  0  0  0  0  0  0  0  0  0
   92.0844   86.6536   89.8442 O   0  0  0  0  0  0  0  0  0  0  0  0
   90.4154   83.7347   91.3546 C   0  0  0  0  0  0  0  0  0  0  0  0
   90.7695   85.0393   91.0896 C   0  0  0  0  0  0  0  0  0  0  0  0
   91.6993   85.3696   90.1430 C   0  0  0  0  0  0  0  0  0  0  0  0
   92.2948   84.3356   89.4357 C   0  0  0  0  0  0  0  0  0  0  0  0
   91.9525   83.0391   89.6888 C   0  0  0  0  0  0  0  0  0  0  0  0
   91.0192   82.7332   90.6411 C   0  0  0  0  0  0  0  0  0  0  0  0
   90.7034   81.3878   90.8625 O   0  0  0  0  0  0  0  0  0  0  0  0
   91.1285   80.7185   90.3631 H   0  0  0  0  0  0  0  0  0  0  0  0
   88.4371   84.1414   92.5534 O   0  0  0  0  0  0  0  0  0  0  0  0
   89.4175   83.4029   92.3720 C   0  0  0  0  0  0  0  0  0  0  0  0
   89.5427   82.2694   93.1476 O   0  0  0  0  0  0  0  0  0  0  0  0
   90.2754   81.6979   93.0271 H   0  0  0  0  0  0  0  0  0  0  0  0
 32 33  2  0  0  0
 33 34  1  0  0  0
 33 24  1  0  0  0
 24 25  2  0  0  0
 25 26  1  0  0  0
 26 23  1  0  0  0
 23 22  1  0  0  0
 22  1  1  0  0  0
  1  2  2  0  0  0
  2  3  1  0  0  0
  3  4  2  0  0  0
  4  5  1  0  0  0
  5  7  1  0  0  0
  7  8  2  0  0  0
  8  9  1  0  0  0
  9 10  2  0  0  0
 10 13  1  0  0  0
 13 14  2  0  0  0
 13 15  2  0  0  0
 13 16  1  0  0  0
 16 17  1  0  0  0
 17 18  1  0  0  0
 18 19  1  0  0  0
 19 20  1  0  0  0
 20 21  1  0  0  0
 10 11  1  0  0  0
 11 12  2  0  0  0
  5  6  2  0  0  0
 26 27  2  0  0  0
 27 28  1  0  0  0
 28 29  2  0  0  0
 29 30  1  0  0  0
 29 24  1  0  0  0
  6  1  1  0  0  0
 12  7  1  0  0  0
 21 16  1  0  0  0
 34 35  1  0  0  0
 30 31  1  0  0  0
M  END
> <Activity>
125.3

> <minimizedAffinity>
-7.89780

> <CNNscore>
0.3796588480

> <CNNaffinity>
5.7250127792

> <CNN_VS>
2.1735517979

$$$$
HIPS6249


 30 33  0  0  0  0  0  0  0  0999 V2000
   87.4450   86.1424   91.5372 C   0  0  0  0  0  0  0  0  0  0  0  0
   87.8368   87.4854   91.4586 C   0  0  0  0  0  0  0  0  0  0  0  0
   87.5377   88.2561   90.3225 C   0  0  0  0  0  0  0  0  0  0  0  0
   86.8288   87.6600   89.2636 C   0  0  0  0  0  0  0  0  0  0  0  0
   86.4182   86.3160   89.3308 C   0  0  0  0  0  0  0  0  0  0  0  0
   86.7264   85.5681   90.4797 C   0  0  0  0  0  0  0  0  0  0  0  0
   87.9643   89.6774   90.2427 C   0  0  0  0  0  0  0  0  0  0  0  0
   89.0411   90.2631   90.8858 C   0  0  0  0  0  0  0  0  0  0  0  0
   89.0329   91.5886   90.5074 C   0  0  0  0  0  0  0  0  0  0  0  0
   88.0307   91.8107   89.6895 O   0  0  0  0  0  0  0  0  0  0  0  0
   87.3701   90.6908   89.5078 C   0  0  0  0  0  0  0  0  0  0  0  0
   85.6723   85.6950   88.2053 C   0  0  0  0  0  0  0  0  0  0  0  0
   84.6171   86.2453   87.4982 C   0  0  0  0  0  0  0  0  0  0  0  0
   84.2570   85.3019   86.5598 C   0  0  0  0  0  0  0  0  0  0  0  0
   85.0259   84.2444   86.6755 O   0  0  0  0  0  0  0  0  0  0  0  0
   85.8837   84.4433   87.6494 C   0  0  0  0  0  0  0  0  0  0  0  0
   87.7906   85.3297   92.7582 C   0  0  0  0  0  0  0  0  0  0  0  0
   89.2066   85.2083   92.9022 O   0  0  0  0  0  0  0  0  0  0  0  0
   91.3028   83.4903   90.3117 C   0  0  0  0  0  0  0  0  0  0  0  0
   90.4070   83.6815   91.3794 C   0  0  0  0  0  0  0  0  0  0  0  0
   90.1134   84.9729   91.8555 C   0  0  0  0  0  0  0  0  0  0  0  0
   90.7393   86.0735   91.2671 C   0  0  0  0  0  0  0  0  0  0  0  0
   91.6492   85.8980   90.2247 C   0  0  0  0  0  0  0  0  0  0  0  0
   91.9547   84.6177   89.7515 C   0  0  0  0  0  0  0  0  0  0  0  0
   92.9293   84.5091   88.7570 O   0  0  0  0  0  0  0  0  0  0  0  0
   93.3359   85.2802   88.4133 H   0  0  0  0  0  0  0  0  0  0  0  0
   91.6304   81.1445   90.5899 O   0  0  0  0  0  0  0  0  0  0  0  0
   91.4973   82.1157   89.7983 C   0  0  0  0  0  0  0  0  0  0  0  0
   91.5995   81.8962   88.4270 O   0  0  0  0  0  0  0  0  0  0  0  0
   91.5022   82.6114   87.8295 H   0  0  0  0  0  0  0  0  0  0  0  0
 27 28  2  0  0  0
 28 29  1  0  0  0
 28 19  1  0  0  0
 19 20  2  0  0  0
 20 21  1  0  0  0
 21 18  1  0  0  0
 18 17  1  0  0  0
 17  1  1  0  0  0
  1  2  2  0  0  0
  2  3  1  0  0  0
  3  7  1  0  0  0
  7  8  1  0  0  0
  8  9  2  0  0  0
  9 10  1  0  0  0
 10 11  1  0  0  0
  3  4  2  0  0  0
  4  5  1  0  0  0
  5 12  1  0  0  0
 12 13  1  0  0  0
 13 14  2  0  0  0
 14 15  1  0  0  0
 15 16  1  0  0  0
  5  6  2  0  0  0
 21 22  2  0  0  0
 22 23  1  0  0  0
 23 24  2  0  0  0
 24 25  1  0  0  0
 24 19  1  0  0  0
  6  1  1  0  0  0
 11  7  2  0  0  0
 16 12  2  0  0  0
 29 30  1  0  0  0
 25 26  1  0  0  0
M  END
> <Activity>
233.5

> <minimizedAffinity>
-8.14974

> <CNNscore>
0.6342081428

> <CNNaffinity>
6.0367488861

> <CNN_VS>
3.8285553455

$$$$
HIPS6249


 30 33  0  0  0  0  0  0  0  0999 V2000
   90.5530   87.1954   90.4953 C   0  0  0  0  0  0  0  0  0  0  0  0
   89.1838   87.4764   90.5932 C   0  0  0  0  0  0  0  0  0  0  0  0
   88.2525   86.4471   90.8108 C   0  0  0  0  0  0  0  0  0  0  0  0
   88.7171   85.1252   90.9378 C   0  0  0  0  0  0  0  0  0  0  0  0
   90.0895   84.8269   90.8531 C   0  0  0  0  0  0  0  0  0  0  0  0
   91.0006   85.8750   90.6390 C   0  0  0  0  0  0  0  0  0  0  0  0
   86.8011   86.7518   90.9047 C   0  0  0  0  0  0  0  0  0  0  0  0
   85.9695   86.5276   91.9883 C   0  0  0  0  0  0  0  0  0  0  0  0
   84.7210   86.9688   91.6051 C   0  0  0  0  0  0  0  0  0  0  0  0
   84.7715   87.4346   90.3790 O   0  0  0  0  0  0  0  0  0  0  0  0
   85.9994   87.3215   89.9284 C   0  0  0  0  0  0  0  0  0  0  0  0
   90.5695   83.4267   90.9857 C   0  0  0  0  0  0  0  0  0  0  0  0
   91.4063   82.7450   90.1188 C   0  0  0  0  0  0  0  0  0  0  0  0
   91.5640   81.4856   90.6565 C   0  0  0  0  0  0  0  0  0  0  0  0
   90.8762   81.3888   91.7703 O   0  0  0  0  0  0  0  0  0  0  0  0
   90.2683   82.5299   91.9984 C   0  0  0  0  0  0  0  0  0  0  0  0
   91.5328   88.3127   90.2453 C   0  0  0  0  0  0  0  0  0  0  0  0
   90.8641   89.4701   89.7413 O   0  0  0  0  0  0  0  0  0  0  0  0
   89.3674   92.7069   90.8985 C   0  0  0  0  0  0  0  0  0  0  0  0
   89.5921   91.5484   90.1326 C   0  0  0  0  0  0  0  0  0  0  0  0
   90.6226   90.6496   90.4650 C   0  0  0  0  0  0  0  0  0  0  0  0
   91.4417   90.9288   91.5606 C   0  0  0  0  0  0  0  0  0  0  0  0
   91.2475   92.0862   92.3142 C   0  0  0  0  0  0  0  0  0  0  0  0
   90.2322   92.9903   91.9855 C   0  0  0  0  0  0  0  0  0  0  0  0
   90.1412   94.1647   92.7360 O   0  0  0  0  0  0  0  0  0  0  0  0
   90.7330   94.3132   93.4472 H   0  0  0  0  0  0  0  0  0  0  0  0
   87.1861   93.0713   90.0061 O   0  0  0  0  0  0  0  0  0  0  0  0
   88.2102   93.5622   90.5517 C   0  0  0  0  0  0  0  0  0  0  0  0
   88.2739   94.9361   90.7699 O   0  0  0  0  0  0  0  0  0  0  0  0
   89.0309   95.3115   91.1749 H   0  0  0  0  0  0  0  0  0  0  0  0
 27 28  2  0  0  0
 28 29  1  0  0  0
 28 19  1  0  0  0
 19 20  2  0  0  0
 20 21  1  0  0  0
 21 18  1  0  0  0
 18 17  1  0  0  0
 17  1  1  0  0  0
  1  2  2  0  0  0
  2  3  1  0  0  0
  3  7  1  0  0  0
  7  8  1  0  0  0
  8  9  2  0  0  0
  9 10  1  0  0  0
 10 11  1  0  0  0
  3  4  2  0  0  0
  4  5  1  0  0  0
  5 12  1  0  0  0
 12 13  1  0  0  0
 13 14  2  0  0  0
 14 15  1  0  0  0
 15 16  1  0  0  0
  5  6  2  0  0  0
 21 22  2  0  0  0
 22 23  1  0  0  0
 23 24  2  0  0  0
 24 25  1  0  0  0
 24 19  1  0  0  0
  6  1  1  0  0  0
 11  7  2  0  0  0
 16 12  2  0  0  0
 29 30  1  0  0  0
 25 26  1  0  0  0
M  END
> <Activity>
233.5

> <minimizedAffinity>
-8.00360

> <CNNscore>
0.6335688829

> <CNNaffinity>
6.1135520935

> <CNN_VS>
3.8733563423

$$$$
HIPS6249


 30 33  0  0  0  0  0  0  0  0999 V2000
   88.4038   86.8773   91.0056 C   0  0  0  0  0  0  0  0  0  0  0  0
   89.3391   87.8733   90.6955 C   0  0  0  0  0  0  0  0  0  0  0  0
   90.6934   87.5526   90.5025 C   0  0  0  0  0  0  0  0  0  0  0  0
   91.0974   86.2099   90.6173 C   0  0  0  0  0  0  0  0  0  0  0  0
   90.1694   85.1958   90.9172 C   0  0  0  0  0  0  0  0  0  0  0  0
   88.8203   85.5424   91.1017 C   0  0  0  0  0  0  0  0  0  0  0  0
   91.6811   88.6158   90.1826 C   0  0  0  0  0  0  0  0  0  0  0  0
   91.9426   89.7603   90.9159 C   0  0  0  0  0  0  0  0  0  0  0  0
   92.9289   90.4339   90.2277 C   0  0  0  0  0  0  0  0  0  0  0  0
   93.2586   89.7598   89.1508 O   0  0  0  0  0  0  0  0  0  0  0  0
   92.5335   88.6670   89.0912 C   0  0  0  0  0  0  0  0  0  0  0  0
   90.6073   83.7808   91.0392 C   0  0  0  0  0  0  0  0  0  0  0  0
   91.4862   83.1042   90.2109 C   0  0  0  0  0  0  0  0  0  0  0  0
   91.5778   81.8261   90.7192 C   0  0  0  0  0  0  0  0  0  0  0  0
   90.8128   81.7141   91.7799 O   0  0  0  0  0  0  0  0  0  0  0  0
   90.2166   82.8628   92.0009 C   0  0  0  0  0  0  0  0  0  0  0  0
   86.9592   87.2458   91.2248 C   0  0  0  0  0  0  0  0  0  0  0  0
   86.3505   87.6606   90.0008 O   0  0  0  0  0  0  0  0  0  0  0  0
   85.7862   86.3958   86.5169 C   0  0  0  0  0  0  0  0  0  0  0  0
   86.0607   87.2746   87.5805 C   0  0  0  0  0  0  0  0  0  0  0  0
   86.0575   86.8216   88.9129 C   0  0  0  0  0  0  0  0  0  0  0  0
   85.7575   85.4837   89.1758 C   0  0  0  0  0  0  0  0  0  0  0  0
   85.4581   84.6063   88.1338 C   0  0  0  0  0  0  0  0  0  0  0  0
   85.4492   85.0497   86.8073 C   0  0  0  0  0  0  0  0  0  0  0  0
   85.0684   84.1373   85.8208 O   0  0  0  0  0  0  0  0  0  0  0  0
   84.8535   83.2560   86.0556 H   0  0  0  0  0  0  0  0  0  0  0  0
   85.3573   88.0048   84.8096 O   0  0  0  0  0  0  0  0  0  0  0  0
   85.8965   86.9133   85.1344 C   0  0  0  0  0  0  0  0  0  0  0  0
   86.5474   86.1586   84.1619 O   0  0  0  0  0  0  0  0  0  0  0  0
   86.9517   85.3455   84.3927 H   0  0  0  0  0  0  0  0  0  0  0  0
 27 28  2  0  0  0
 28 29  1  0  0  0
 28 19  1  0  0  0
 19 20  2  0  0  0
 20 21  1  0  0  0
 21 18  1  0  0  0
 18 17  1  0  0  0
 17  1  1  0  0  0
  1  2  2  0  0  0
  2  3  1  0  0  0
  3  7  1  0  0  0
  7  8  1  0  0  0
  8  9  2  0  0  0
  9 10  1  0  0  0
 10 11  1  0  0  0
  3  4  2  0  0  0
  4  5  1  0  0  0
  5 12  1  0  0  0
 12 13  1  0  0  0
 13 14  2  0  0  0
 14 15  1  0  0  0
 15 16  1  0  0  0
  5  6  2  0  0  0
 21 22  2  0  0  0
 22 23  1  0  0  0
 23 24  2  0  0  0
 24 25  1  0  0  0
 24 19  1  0  0  0
  6  1  1  0  0  0
 11  7  2  0  0  0
 16 12  2  0  0  0
 29 30  1  0  0  0
 25 26  1  0  0  0
M  END
> <Activity>
233.5

> <minimizedAffinity>
-9.33263

> <CNNscore>
0.5982204080

> <CNNaffinity>
6.1029863358

> <CNN_VS>
3.6509308815

$$$$
HIPS7112


 31 33  0  0  0  0  0  0  0  0999 V2000
   92.0529   89.5722   91.2634 N   0  0  0  0  0  0  0  0  0  0  0  0
   91.3998   88.6492   90.3887 C   0  0  0  0  0  0  0  0  0  0  0  0
   90.5109   89.0537   89.5920 O   0  0  0  0  0  0  0  0  0  0  0  0
   92.7150   89.2458   91.9146 H   0  0  0  0  0  0  0  0  0  0  0  0
   90.8945   91.4920   91.9978 C   0  0  0  0  0  0  0  0  0  0  0  0
   91.7539   90.9421   91.1974 N   0  0  0  0  0  0  0  0  0  0  0  0
   88.9709   94.7539   92.0911 C   0  0  0  0  0  0  0  0  0  0  0  0
   89.2888   93.3850   92.1497 C   0  0  0  0  0  0  0  0  0  0  0  0
   90.5988   92.9373   91.9237 C   0  0  0  0  0  0  0  0  0  0  0  0
   91.6030   93.8748   91.6358 C   0  0  0  0  0  0  0  0  0  0  0  0
   91.3026   95.2365   91.5885 C   0  0  0  0  0  0  0  0  0  0  0  0
   90.0008   95.6892   91.8260 C   0  0  0  0  0  0  0  0  0  0  0  0
   89.7780   97.0679   91.8210 O   0  0  0  0  0  0  0  0  0  0  0  0
   90.4849   97.6561   91.6412 H   0  0  0  0  0  0  0  0  0  0  0  0
   87.1767   95.9531   93.4056 N   0  0  0  0  0  0  0  0  0  0  0  0
   87.5626   95.1672   92.2764 C   0  0  0  0  0  0  0  0  0  0  0  0
   86.6822   94.7974   91.4540 O   0  0  0  0  0  0  0  0  0  0  0  0
   86.2367   96.2229   93.5196 H   0  0  0  0  0  0  0  0  0  0  0  0
   87.8508   96.2248   94.0698 H   0  0  0  0  0  0  0  0  0  0  0  0
   91.7733   87.1985   90.4146 C   0  0  0  0  0  0  0  0  0  0  0  0
   90.6245   86.3858   90.1740 O   0  0  0  0  0  0  0  0  0  0  0  0
   89.9985   85.5506   91.1183 C   0  0  0  0  0  0  0  0  0  0  0  0
   89.0061   86.0327   91.9950 C   0  0  0  0  0  0  0  0  0  0  0  0
   88.3976   85.1813   92.9184 C   0  0  0  0  0  0  0  0  0  0  0  0
   88.7652   83.8388   92.9883 C   0  0  0  0  0  0  0  0  0  0  0  0
   89.7521   83.3339   92.1313 C   0  0  0  0  0  0  0  0  0  0  0  0
   90.1261   81.9825   92.2006 C   0  0  0  0  0  0  0  0  0  0  0  0
   91.1088   81.4803   91.3451 C   0  0  0  0  0  0  0  0  0  0  0  0
   91.7250   82.3197   90.4153 C   0  0  0  0  0  0  0  0  0  0  0  0
   91.3642   83.6672   90.3344 C   0  0  0  0  0  0  0  0  0  0  0  0
   90.3762   84.1922   91.1892 C   0  0  0  0  0  0  0  0  0  0  0  0
 15 16  1  0  0  0
 16 17  2  0  0  0
 16  7  1  0  0  0
  7  8  2  0  0  0
  8  9  1  0  0  0
  9  5  1  0  0  0
  5  6  2  0  0  0
  6  1  1  0  0  0
  1  2  1  0  0  0
  2  3  2  0  0  0
  2 20  1  0  0  0
 20 21  1  0  0  0
 21 22  1  0  0  0
 22 23  2  0  0  0
 23 24  1  0  0  0
 24 25  2  0  0  0
 25 26  1  0  0  0
 26 27  2  0  0  0
 27 28  1  0  0  0
 28 29  2  0  0  0
 29 30  1  0  0  0
 30 31  2  0  0  0
  9 10  2  0  0  0
 10 11  1  0  0  0
 11 12  2  0  0  0
 12 13  1  0  0  0
 12  7  1  0  0  0
 31 22  1  0  0  0
 31 26  1  0  0  0
 15 18  1  0  0  0
 15 19  1  0  0  0
  1  4  1  0  0  0
 13 14  1  0  0  0
M  END
> <Activity>
398.5

> <minimizedAffinity>
-7.30853

> <CNNscore>
0.5419697762

> <CNNaffinity>
5.3074951172

> <CNN_VS>
2.8765020370

$$$$
HIPS7112


 31 33  0  0  0  0  0  0  0  0999 V2000
   92.2952   89.7906   91.6471 N   0  0  0  0  0  0  0  0  0  0  0  0
   91.5024   89.0173   90.7431 C   0  0  0  0  0  0  0  0  0  0  0  0
   90.5306   89.5481   90.1413 O   0  0  0  0  0  0  0  0  0  0  0  0
   93.0259   89.3618   92.1484 H   0  0  0  0  0  0  0  0  0  0  0  0
   92.1572   92.0067   90.8492 C   0  0  0  0  0  0  0  0  0  0  0  0
   92.0360   91.1589   91.8229 N   0  0  0  0  0  0  0  0  0  0  0  0
   90.5639   95.1831   92.1610 C   0  0  0  0  0  0  0  0  0  0  0  0
   90.8626   93.8258   91.9445 C   0  0  0  0  0  0  0  0  0  0  0  0
   91.8699   93.4420   91.0469 C   0  0  0  0  0  0  0  0  0  0  0  0
   92.5874   94.4326   90.3582 C   0  0  0  0  0  0  0  0  0  0  0  0
   92.3095   95.7826   90.5750 C   0  0  0  0  0  0  0  0  0  0  0  0
   91.3151   96.1709   91.4786 C   0  0  0  0  0  0  0  0  0  0  0  0
   91.1256   97.5378   91.6931 O   0  0  0  0  0  0  0  0  0  0  0  0
   91.6422   98.1619   91.2224 H   0  0  0  0  0  0  0  0  0  0  0  0
   89.2104   94.7664   94.2538 N   0  0  0  0  0  0  0  0  0  0  0  0
   89.4511   95.5317   93.0714 C   0  0  0  0  0  0  0  0  0  0  0  0
   88.6818   96.4896   92.7909 O   0  0  0  0  0  0  0  0  0  0  0  0
   88.4671   95.0069   94.8530 H   0  0  0  0  0  0  0  0  0  0  0  0
   89.7877   93.9986   94.4692 H   0  0  0  0  0  0  0  0  0  0  0  0
   91.8276   87.5741   90.5063 C   0  0  0  0  0  0  0  0  0  0  0  0
   90.6401   86.8404   90.2069 O   0  0  0  0  0  0  0  0  0  0  0  0
   89.9467   86.0024   91.1004 C   0  0  0  0  0  0  0  0  0  0  0  0
   90.5533   84.8706   91.6809 C   0  0  0  0  0  0  0  0  0  0  0  0
   89.8443   84.0596   92.5682 C   0  0  0  0  0  0  0  0  0  0  0  0
   88.5219   84.3571   92.8922 C   0  0  0  0  0  0  0  0  0  0  0  0
   87.8929   85.4740   92.3263 C   0  0  0  0  0  0  0  0  0  0  0  0
   86.5602   85.7753   92.6491 C   0  0  0  0  0  0  0  0  0  0  0  0
   85.9350   86.8894   92.0856 C   0  0  0  0  0  0  0  0  0  0  0  0
   86.6322   87.7106   91.1977 C   0  0  0  0  0  0  0  0  0  0  0  0
   87.9589   87.4239   90.8660 C   0  0  0  0  0  0  0  0  0  0  0  0
   88.6061   86.3044   91.4232 C   0  0  0  0  0  0  0  0  0  0  0  0
 15 16  1  0  0  0
 16 17  2  0  0  0
 16  7  1  0  0  0
  7  8  2  0  0  0
  8  9  1  0  0  0
  9  5  1  0  0  0
  5  6  2  0  0  0
  6  1  1  0  0  0
  1  2  1  0  0  0
  2  3  2  0  0  0
  2 20  1  0  0  0
 20 21  1  0  0  0
 21 22  1  0  0  0
 22 23  2  0  0  0
 23 24  1  0  0  0
 24 25  2  0  0  0
 25 26  1  0  0  0
 26 27  2  0  0  0
 27 28  1  0  0  0
 28 29  2  0  0  0
 29 30  1  0  0  0
 30 31  2  0  0  0
  9 10  2  0  0  0
 10 11  1  0  0  0
 11 12  2  0  0  0
 12 13  1  0  0  0
 12  7  1  0  0  0
 31 22  1  0  0  0
 31 26  1  0  0  0
 15 18  1  0  0  0
 15 19  1  0  0  0
  1  4  1  0  0  0
 13 14  1  0  0  0
M  END
> <Activity>
398.5

> <minimizedAffinity>
-7.28814

> <CNNscore>
0.5180498958

> <CNNaffinity>
5.4143400192

> <CNN_VS>
2.8048982620

$$$$
HIPS7112


 31 33  0  0  0  0  0  0  0  0999 V2000
   85.9911   88.8601   88.7068 N   0  0  0  0  0  0  0  0  0  0  0  0
   85.2988   88.1710   87.6630 C   0  0  0  0  0  0  0  0  0  0  0  0
   85.9458   87.6106   86.7379 O   0  0  0  0  0  0  0  0  0  0  0  0
   85.4816   89.3338   89.4034 H   0  0  0  0  0  0  0  0  0  0  0  0
   88.0511   88.4578   89.7844 C   0  0  0  0  0  0  0  0  0  0  0  0
   87.3943   88.8641   88.7427 N   0  0  0  0  0  0  0  0  0  0  0  0
   91.6319   89.5103   89.1366 C   0  0  0  0  0  0  0  0  0  0  0  0
   90.2258   89.4762   89.1373 C   0  0  0  0  0  0  0  0  0  0  0  0
   89.5281   88.4574   89.8028 C   0  0  0  0  0  0  0  0  0  0  0  0
   90.2503   87.4601   90.4769 C   0  0  0  0  0  0  0  0  0  0  0  0
   91.6451   87.4910   90.4948 C   0  0  0  0  0  0  0  0  0  0  0  0
   92.3452   88.5119   89.8439 C   0  0  0  0  0  0  0  0  0  0  0  0
   93.7379   88.5177   89.9482 O   0  0  0  0  0  0  0  0  0  0  0  0
   94.1748   87.8396   90.4250 H   0  0  0  0  0  0  0  0  0  0  0  0
   93.6247   90.3525   87.8310 N   0  0  0  0  0  0  0  0  0  0  0  0
   92.3189   90.5714   88.3681 C   0  0  0  0  0  0  0  0  0  0  0  0
   91.7690   91.6944   88.2110 O   0  0  0  0  0  0  0  0  0  0  0  0
   94.0731   91.0653   87.3211 H   0  0  0  0  0  0  0  0  0  0  0  0
   94.0761   89.4888   87.9709 H   0  0  0  0  0  0  0  0  0  0  0  0
   83.8018   88.1105   87.6684 C   0  0  0  0  0  0  0  0  0  0  0  0
   83.2518   89.4098   87.4505 O   0  0  0  0  0  0  0  0  0  0  0  0
   83.3881   90.1713   86.2746 C   0  0  0  0  0  0  0  0  0  0  0  0
   82.8488   89.7434   85.0450 C   0  0  0  0  0  0  0  0  0  0  0  0
   82.9940   90.5209   83.8951 C   0  0  0  0  0  0  0  0  0  0  0  0
   83.6780   91.7341   83.9462 C   0  0  0  0  0  0  0  0  0  0  0  0
   84.2278   92.1817   85.1547 C   0  0  0  0  0  0  0  0  0  0  0  0
   84.9191   93.4023   85.2090 C   0  0  0  0  0  0  0  0  0  0  0  0
   85.4653   93.8479   86.4144 C   0  0  0  0  0  0  0  0  0  0  0  0
   85.3267   93.0816   87.5731 C   0  0  0  0  0  0  0  0  0  0  0  0
   84.6419   91.8642   87.5352 C   0  0  0  0  0  0  0  0  0  0  0  0
   84.0850   91.3977   86.3291 C   0  0  0  0  0  0  0  0  0  0  0  0
 15 16  1  0  0  0
 16 17  2  0  0  0
 16  7  1  0  0  0
  7  8  2  0  0  0
  8  9  1  0  0  0
  9  5  1  0  0  0
  5  6  2  0  0  0
  6  1  1  0  0  0
  1  2  1  0  0  0
  2  3  2  0  0  0
  2 20  1  0  0  0
 20 21  1  0  0  0
 21 22  1  0  0  0
 22 23  2  0  0  0
 23 24  1  0  0  0
 24 25  2  0  0  0
 25 26  1  0  0  0
 26 27  2  0  0  0
 27 28  1  0  0  0
 28 29  2  0  0  0
 29 30  1  0  0  0
 30 31  2  0  0  0
  9 10  2  0  0  0
 10 11  1  0  0  0
 11 12  2  0  0  0
 12 13  1  0  0  0
 12  7  1  0  0  0
 31 22  1  0  0  0
 31 26  1  0  0  0
 15 18  1  0  0  0
 15 19  1  0  0  0
  1  4  1  0  0  0
 13 14  1  0  0  0
M  END
> <Activity>
398.5

> <minimizedAffinity>
-6.75480

> <CNNscore>
0.4912790358

> <CNNaffinity>
5.0575246811

> <CNN_VS>
2.4846558571

$$$$
