HIPS6989


 37 40  0  0  0  0  0  0  0  0999 V2000
   66.7084   74.5643   91.1262 C   0  0  0  0  0  0  0  0  0  0  0  0
   65.3476   74.2204   91.2257 C   0  0  0  0  0  0  0  0  0  0  0  0
   64.4224   74.6985   90.2939 C   0  0  0  0  0  0  0  0  0  0  0  0
   64.8387   75.5416   89.2625 C   0  0  0  0  0  0  0  0  0  0  0  0
   66.1945   75.9103   89.1542 C   0  0  0  0  0  0  0  0  0  0  0  0
   67.1303   75.3865   90.0632 C   0  0  0  0  0  0  0  0  0  0  0  0
   66.6236   76.8762   88.1231 C   0  0  0  0  0  0  0  0  0  0  0  0
   66.4121   76.6170   86.7604 C   0  0  0  0  0  0  0  0  0  0  0  0
   66.8334   77.5352   85.7962 C   0  0  0  0  0  0  0  0  0  0  0  0
   67.4632   78.7222   86.1846 C   0  0  0  0  0  0  0  0  0  0  0  0
   67.6532   79.0071   87.5388 C   0  0  0  0  0  0  0  0  0  0  0  0
   67.2514   78.0735   88.5065 C   0  0  0  0  0  0  0  0  0  0  0  0
   68.2951   80.2000   87.8989 O   0  0  0  0  0  0  0  0  0  0  0  0
   69.6493   80.3162   88.2508 C   0  0  0  0  0  0  0  0  0  0  0  0
   70.3808   79.1539   88.5126 C   0  0  0  0  0  0  0  0  0  0  0  0
   71.7424   79.2215   88.8158 C   0  0  0  0  0  0  0  0  0  0  0  0
   72.3950   80.4631   88.8846 C   0  0  0  0  0  0  0  0  0  0  0  0
   71.6712   81.6323   88.5983 C   0  0  0  0  0  0  0  0  0  0  0  0
   70.3080   81.5593   88.2861 C   0  0  0  0  0  0  0  0  0  0  0  0
   73.8759   80.5525   89.1635 C   0  0  0  0  0  0  0  0  0  0  0  0
   74.1173   81.2140   90.3536 F   0  0  0  0  0  0  0  0  0  0  0  0
   74.4061   79.2742   89.2461 F   0  0  0  0  0  0  0  0  0  0  0  0
   74.5131   81.2411   88.1434 F   0  0  0  0  0  0  0  0  0  0  0  0
   67.6748   73.9887   92.1399 C   0  0  0  0  0  0  0  0  0  0  0  0
   68.3909   74.9773   92.8752 O   0  0  0  0  0  0  0  0  0  0  0  0
   66.7757   78.2996   92.2514 C   0  0  0  0  0  0  0  0  0  0  0  0
   67.0160   76.9119   92.2136 C   0  0  0  0  0  0  0  0  0  0  0  0
   68.1133   76.3541   92.8934 C   0  0  0  0  0  0  0  0  0  0  0  0
   68.9734   77.1912   93.6072 C   0  0  0  0  0  0  0  0  0  0  0  0
   68.7576   78.5663   93.6311 C   0  0  0  0  0  0  0  0  0  0  0  0
   67.6789   79.1364   92.9535 C   0  0  0  0  0  0  0  0  0  0  0  0
   67.5557   80.5265   92.9836 O   0  0  0  0  0  0  0  0  0  0  0  0
   68.1761   81.0415   93.4608 H   0  0  0  0  0  0  0  0  0  0  0  0
   65.6514   79.5866   90.6021 O   0  0  0  0  0  0  0  0  0  0  0  0
   65.5552   78.8174   91.5946 C   0  0  0  0  0  0  0  0  0  0  0  0
   64.2957   78.4036   92.0045 O   0  0  0  0  0  0  0  0  0  0  0  0
   64.2073   77.8314   92.7411 H   0  0  0  0  0  0  0  0  0  0  0  0
 34 35  2  0  0  0
 35 36  1  0  0  0
 35 26  1  0  0  0
 26 27  2  0  0  0
 27 28  1  0  0  0
 28 25  1  0  0  0
 25 24  1  0  0  0
 24  1  1  0  0  0
  1  2  2  0  0  0
  2  3  1  0  0  0
  3  4  2  0  0  0
  4  5  1  0  0  0
  5  7  1  0  0  0
  7  8  2  0  0  0
  8  9  1  0  0  0
  9 10  2  0  0  0
 10 11  1  0  0  0
 11 13  1  0  0  0
 13 14  1  0  0  0
 14 15  2  0  0  0
 15 16  1  0  0  0
 16 17  2  0  0  0
 17 20  1  0  0  0
 20 21  1  0  0  0
 20 22  1  0  0  0
 20 23  1  0  0  0
 17 18  1  0  0  0
 18 19  2  0  0  0
 11 12  2  0  0  0
  5  6  2  0  0  0
 28 29  2  0  0  0
 29 30  1  0  0  0
 30 31  2  0  0  0
 31 32  1  0  0  0
 31 26  1  0  0  0
  6  1  1  0  0  0
 12  7  1  0  0  0
 19 14  1  0  0  0
 36 37  1  0  0  0
 32 33  1  0  0  0
M  END
> <Activity>
3.1

> <minimizedAffinity>
-10.10733

$$$$
HIPS6989


 37 40  0  0  0  0  0  0  0  0999 V2000
   64.6563   74.3679   91.3246 C   0  0  0  0  0  0  0  0  0  0  0  0
   64.6770   72.9620   91.2694 C   0  0  0  0  0  0  0  0  0  0  0  0
   65.8865   72.2648   91.3315 C   0  0  0  0  0  0  0  0  0  0  0  0
   67.0923   72.9609   91.4295 C   0  0  0  0  0  0  0  0  0  0  0  0
   67.0942   74.3695   91.4707 C   0  0  0  0  0  0  0  0  0  0  0  0
   65.8726   75.0653   91.4593 C   0  0  0  0  0  0  0  0  0  0  0  0
   68.3701   75.1125   91.4786 C   0  0  0  0  0  0  0  0  0  0  0  0
   69.0884   75.2984   92.6696 C   0  0  0  0  0  0  0  0  0  0  0  0
   70.2882   76.0130   92.6631 C   0  0  0  0  0  0  0  0  0  0  0  0
   70.7839   76.5421   91.4670 C   0  0  0  0  0  0  0  0  0  0  0  0
   70.0949   76.3391   90.2691 C   0  0  0  0  0  0  0  0  0  0  0  0
   68.8771   75.6416   90.2796 C   0  0  0  0  0  0  0  0  0  0  0  0
   70.6103   76.8884   89.0869 O   0  0  0  0  0  0  0  0  0  0  0  0
   71.3257   78.0931   88.9987 C   0  0  0  0  0  0  0  0  0  0  0  0
   70.6179   79.2988   88.9823 C   0  0  0  0  0  0  0  0  0  0  0  0
   71.2925   80.5211   88.9471 C   0  0  0  0  0  0  0  0  0  0  0  0
   72.6957   80.5582   88.9051 C   0  0  0  0  0  0  0  0  0  0  0  0
   73.4127   79.3511   88.9464 C   0  0  0  0  0  0  0  0  0  0  0  0
   72.7325   78.1278   88.9904 C   0  0  0  0  0  0  0  0  0  0  0  0
   73.4429   81.8699   88.9152 C   0  0  0  0  0  0  0  0  0  0  0  0
   74.4944   81.8486   88.0175 F   0  0  0  0  0  0  0  0  0  0  0  0
   72.5769   82.8948   88.5665 F   0  0  0  0  0  0  0  0  0  0  0  0
   73.9524   82.1192   90.1797 F   0  0  0  0  0  0  0  0  0  0  0  0
   63.3164   75.0723   91.2913 C   0  0  0  0  0  0  0  0  0  0  0  0
   63.2854   76.2055   90.4278 O   0  0  0  0  0  0  0  0  0  0  0  0
   66.1997   77.2882   88.3371 C   0  0  0  0  0  0  0  0  0  0  0  0
   65.0781   76.5561   88.7742 C   0  0  0  0  0  0  0  0  0  0  0  0
   64.4029   76.9131   89.9549 C   0  0  0  0  0  0  0  0  0  0  0  0
   64.8577   78.0028   90.7004 C   0  0  0  0  0  0  0  0  0  0  0  0
   65.9790   78.7179   90.2890 C   0  0  0  0  0  0  0  0  0  0  0  0
   66.6660   78.3702   89.1250 C   0  0  0  0  0  0  0  0  0  0  0  0
   67.8093   79.1035   88.8033 O   0  0  0  0  0  0  0  0  0  0  0  0
   68.0817   79.8117   89.3530 H   0  0  0  0  0  0  0  0  0  0  0  0
   67.9806   76.4539   87.0057 O   0  0  0  0  0  0  0  0  0  0  0  0
   66.8127   76.9235   87.0408 C   0  0  0  0  0  0  0  0  0  0  0  0
   66.0889   77.0139   85.8602 O   0  0  0  0  0  0  0  0  0  0  0  0
   65.2187   77.3611   85.8697 H   0  0  0  0  0  0  0  0  0  0  0  0
 34 35  2  0  0  0
 35 36  1  0  0  0
 35 26  1  0  0  0
 26 27  2  0  0  0
 27 28  1  0  0  0
 28 25  1  0  0  0
 25 24  1  0  0  0
 24  1  1  0  0  0
  1  2  2  0  0  0
  2  3  1  0  0  0
  3  4  2  0  0  0
  4  5  1  0  0  0
  5  7  1  0  0  0
  7  8  2  0  0  0
  8  9  1  0  0  0
  9 10  2  0  0  0
 10 11  1  0  0  0
 11 13  1  0  0  0
 13 14  1  0  0  0
 14 15  2  0  0  0
 15 16  1  0  0  0
 16 17  2  0  0  0
 17 20  1  0  0  0
 20 21  1  0  0  0
 20 22  1  0  0  0
 20 23  1  0  0  0
 17 18  1  0  0  0
 18 19  2  0  0  0
 11 12  2  0  0  0
  5  6  2  0  0  0
 28 29  2  0  0  0
 29 30  1  0  0  0
 30 31  2  0  0  0
 31 32  1  0  0  0
 31 26  1  0  0  0
  6  1  1  0  0  0
 12  7  1  0  0  0
 19 14  1  0  0  0
 36 37  1  0  0  0
 32 33  1  0  0  0
M  END
> <Activity>
3.1

> <minimizedAffinity>
-9.46282

$$$$
HIPS6989


 37 40  0  0  0  0  0  0  0  0999 V2000
   71.3759   80.2391   88.5479 C   0  0  0  0  0  0  0  0  0  0  0  0
   72.7586   80.1426   88.3048 C   0  0  0  0  0  0  0  0  0  0  0  0
   73.4816   79.0279   88.7378 C   0  0  0  0  0  0  0  0  0  0  0  0
   72.8392   78.0043   89.4362 C   0  0  0  0  0  0  0  0  0  0  0  0
   71.4582   78.0889   89.7032 C   0  0  0  0  0  0  0  0  0  0  0  0
   70.7248   79.1874   89.2217 C   0  0  0  0  0  0  0  0  0  0  0  0
   70.7935   77.0561   90.5226 C   0  0  0  0  0  0  0  0  0  0  0  0
   71.4640   75.8753   90.8767 C   0  0  0  0  0  0  0  0  0  0  0  0
   70.8182   74.9026   91.6430 C   0  0  0  0  0  0  0  0  0  0  0  0
   69.5007   75.1034   92.0674 C   0  0  0  0  0  0  0  0  0  0  0  0
   68.8314   76.2870   91.7478 C   0  0  0  0  0  0  0  0  0  0  0  0
   69.4720   77.2538   90.9576 C   0  0  0  0  0  0  0  0  0  0  0  0
   67.5085   76.4576   92.1788 O   0  0  0  0  0  0  0  0  0  0  0  0
   66.3652   76.1685   91.4169 C   0  0  0  0  0  0  0  0  0  0  0  0
   65.6547   77.2247   90.8384 C   0  0  0  0  0  0  0  0  0  0  0  0
   64.5421   76.9779   90.0312 C   0  0  0  0  0  0  0  0  0  0  0  0
   64.1049   75.6626   89.8053 C   0  0  0  0  0  0  0  0  0  0  0  0
   64.8292   74.5964   90.3633 C   0  0  0  0  0  0  0  0  0  0  0  0
   65.9495   74.8479   91.1651 C   0  0  0  0  0  0  0  0  0  0  0  0
   62.9339   75.3741   88.8973 C   0  0  0  0  0  0  0  0  0  0  0  0
   63.3634   74.9356   87.6582 F   0  0  0  0  0  0  0  0  0  0  0  0
   62.1398   74.3920   89.4693 F   0  0  0  0  0  0  0  0  0  0  0  0
   62.1759   76.5202   88.7170 F   0  0  0  0  0  0  0  0  0  0  0  0
   70.6333   81.4503   88.0243 C   0  0  0  0  0  0  0  0  0  0  0  0
   69.2153   81.3127   88.0586 O   0  0  0  0  0  0  0  0  0  0  0  0
   67.6713   78.0349   87.1057 C   0  0  0  0  0  0  0  0  0  0  0  0
   68.4315   78.9902   87.8089 C   0  0  0  0  0  0  0  0  0  0  0  0
   68.4652   80.3318   87.3891 C   0  0  0  0  0  0  0  0  0  0  0  0
   67.7395   80.7135   86.2588 C   0  0  0  0  0  0  0  0  0  0  0  0
   67.0041   79.7722   85.5438 C   0  0  0  0  0  0  0  0  0  0  0  0
   66.9684   78.4350   85.9417 C   0  0  0  0  0  0  0  0  0  0  0  0
   66.2489   77.5410   85.1470 O   0  0  0  0  0  0  0  0  0  0  0  0
   65.7985   77.8491   84.3853 H   0  0  0  0  0  0  0  0  0  0  0  0
   66.5104   76.0289   87.6240 O   0  0  0  0  0  0  0  0  0  0  0  0
   67.6000   76.6598   87.6470 C   0  0  0  0  0  0  0  0  0  0  0  0
   68.7393   76.0166   88.1097 O   0  0  0  0  0  0  0  0  0  0  0  0
   69.5577   76.4723   88.1331 H   0  0  0  0  0  0  0  0  0  0  0  0
 34 35  2  0  0  0
 35 36  1  0  0  0
 35 26  1  0  0  0
 26 27  2  0  0  0
 27 28  1  0  0  0
 28 25  1  0  0  0
 25 24  1  0  0  0
 24  1  1  0  0  0
  1  2  2  0  0  0
  2  3  1  0  0  0
  3  4  2  0  0  0
  4  5  1  0  0  0
  5  7  1  0  0  0
  7  8  2  0  0  0
  8  9  1  0  0  0
  9 10  2  0  0  0
 10 11  1  0  0  0
 11 13  1  0  0  0
 13 14  1  0  0  0
 14 15  2  0  0  0
 15 16  1  0  0  0
 16 17  2  0  0  0
 17 20  1  0  0  0
 20 21  1  0  0  0
 20 22  1  0  0  0
 20 23  1  0  0  0
 17 18  1  0  0  0
 18 19  2  0  0  0
 11 12  2  0  0  0
  5  6  2  0  0  0
 28 29  2  0  0  0
 29 30  1  0  0  0
 30 31  2  0  0  0
 31 32  1  0  0  0
 31 26  1  0  0  0
  6  1  1  0  0  0
 12  7  1  0  0  0
 19 14  1  0  0  0
 36 37  1  0  0  0
 32 33  1  0  0  0
M  END
> <Activity>
3.1

> <minimizedAffinity>
-9.18543

$$$$
HIPS6989


 37 40  0  0  0  0  0  0  0  0999 V2000
   65.0974   74.3891   90.9762 C   0  0  0  0  0  0  0  0  0  0  0  0
   63.7789   74.8049   91.2384 C   0  0  0  0  0  0  0  0  0  0  0  0
   63.2107   75.8630   90.5240 C   0  0  0  0  0  0  0  0  0  0  0  0
   63.9562   76.5330   89.5528 C   0  0  0  0  0  0  0  0  0  0  0  0
   65.2834   76.1420   89.2858 C   0  0  0  0  0  0  0  0  0  0  0  0
   65.8343   75.0447   89.9706 C   0  0  0  0  0  0  0  0  0  0  0  0
   66.1068   76.9069   88.3281 C   0  0  0  0  0  0  0  0  0  0  0  0
   66.2271   76.4954   86.9920 C   0  0  0  0  0  0  0  0  0  0  0  0
   67.0184   77.2232   86.1006 C   0  0  0  0  0  0  0  0  0  0  0  0
   67.6905   78.3707   86.5338 C   0  0  0  0  0  0  0  0  0  0  0  0
   67.5557   78.8088   87.8533 C   0  0  0  0  0  0  0  0  0  0  0  0
   66.7799   78.0641   88.7550 C   0  0  0  0  0  0  0  0  0  0  0  0
   68.2479   79.9571   88.2623 O   0  0  0  0  0  0  0  0  0  0  0  0
   69.6394   80.0487   88.4246 C   0  0  0  0  0  0  0  0  0  0  0  0
   70.2644   81.2807   88.2092 C   0  0  0  0  0  0  0  0  0  0  0  0
   71.6388   81.4275   88.4093 C   0  0  0  0  0  0  0  0  0  0  0  0
   72.4204   80.3316   88.8096 C   0  0  0  0  0  0  0  0  0  0  0  0
   71.7943   79.0977   89.0514 C   0  0  0  0  0  0  0  0  0  0  0  0
   70.4145   78.9570   88.8580 C   0  0  0  0  0  0  0  0  0  0  0  0
   73.8984   80.4827   89.0771 C   0  0  0  0  0  0  0  0  0  0  0  0
   74.5086   81.2264   88.0838 F   0  0  0  0  0  0  0  0  0  0  0  0
   74.0823   81.1230   90.2930 F   0  0  0  0  0  0  0  0  0  0  0  0
   74.5045   79.2374   89.1258 F   0  0  0  0  0  0  0  0  0  0  0  0
   65.6518   73.2132   91.7525 C   0  0  0  0  0  0  0  0  0  0  0  0
   66.5441   73.5864   92.7991 O   0  0  0  0  0  0  0  0  0  0  0  0
   68.8311   76.5474   92.6039 C   0  0  0  0  0  0  0  0  0  0  0  0
   67.6566   75.7845   92.7570 C   0  0  0  0  0  0  0  0  0  0  0  0
   67.6930   74.3822   92.6591 C   0  0  0  0  0  0  0  0  0  0  0  0
   68.9090   73.7457   92.4017 C   0  0  0  0  0  0  0  0  0  0  0  0
   70.0707   74.4924   92.2257 C   0  0  0  0  0  0  0  0  0  0  0  0
   70.0493   75.8854   92.3100 C   0  0  0  0  0  0  0  0  0  0  0  0
   71.2440   76.5676   92.0740 O   0  0  0  0  0  0  0  0  0  0  0  0
   72.0268   76.0894   91.8831 H   0  0  0  0  0  0  0  0  0  0  0  0
   68.4782   78.7683   91.8398 O   0  0  0  0  0  0  0  0  0  0  0  0
   68.7479   78.0104   92.8087 C   0  0  0  0  0  0  0  0  0  0  0  0
   68.8826   78.5610   94.0754 O   0  0  0  0  0  0  0  0  0  0  0  0
   69.0830   78.0105   94.8066 H   0  0  0  0  0  0  0  0  0  0  0  0
 34 35  2  0  0  0
 35 36  1  0  0  0
 35 26  1  0  0  0
 26 27  2  0  0  0
 27 28  1  0  0  0
 28 25  1  0  0  0
 25 24  1  0  0  0
 24  1  1  0  0  0
  1  2  2  0  0  0
  2  3  1  0  0  0
  3  4  2  0  0  0
  4  5  1  0  0  0
  5  7  1  0  0  0
  7  8  2  0  0  0
  8  9  1  0  0  0
  9 10  2  0  0  0
 10 11  1  0  0  0
 11 13  1  0  0  0
 13 14  1  0  0  0
 14 15  2  0  0  0
 15 16  1  0  0  0
 16 17  2  0  0  0
 17 20  1  0  0  0
 20 21  1  0  0  0
 20 22  1  0  0  0
 20 23  1  0  0  0
 17 18  1  0  0  0
 18 19  2  0  0  0
 11 12  2  0  0  0
  5  6  2  0  0  0
 28 29  2  0  0  0
 29 30  1  0  0  0
 30 31  2  0  0  0
 31 32  1  0  0  0
 31 26  1  0  0  0
  6  1  1  0  0  0
 12  7  1  0  0  0
 19 14  1  0  0  0
 36 37  1  0  0  0
 32 33  1  0  0  0
M  END
> <Activity>
3.1

> <minimizedAffinity>
-8.95549

$$$$
HIPS6989


 37 40  0  0  0  0  0  0  0  0999 V2000
   71.3862   80.4664   88.4230 C   0  0  0  0  0  0  0  0  0  0  0  0
   72.7848   80.5344   88.2831 C   0  0  0  0  0  0  0  0  0  0  0  0
   73.5967   79.4885   88.7301 C   0  0  0  0  0  0  0  0  0  0  0  0
   73.0263   78.3703   89.3402 C   0  0  0  0  0  0  0  0  0  0  0  0
   71.6290   78.2897   89.5037 C   0  0  0  0  0  0  0  0  0  0  0  0
   70.8120   79.3205   89.0071 C   0  0  0  0  0  0  0  0  0  0  0  0
   71.0287   77.1545   90.2324 C   0  0  0  0  0  0  0  0  0  0  0  0
   71.6785   75.9122   90.2924 C   0  0  0  0  0  0  0  0  0  0  0  0
   71.0928   74.8446   90.9762 C   0  0  0  0  0  0  0  0  0  0  0  0
   69.8576   75.0101   91.6110 C   0  0  0  0  0  0  0  0  0  0  0  0
   69.2138   76.2494   91.5850 C   0  0  0  0  0  0  0  0  0  0  0  0
   69.7908   77.3154   90.8776 C   0  0  0  0  0  0  0  0  0  0  0  0
   67.9725   76.3842   92.2221 O   0  0  0  0  0  0  0  0  0  0  0  0
   66.8008   75.6979   91.8655 C   0  0  0  0  0  0  0  0  0  0  0  0
   66.7697   74.3057   91.9900 C   0  0  0  0  0  0  0  0  0  0  0  0
   65.6077   73.5893   91.6949 C   0  0  0  0  0  0  0  0  0  0  0  0
   64.4559   74.2558   91.2459 C   0  0  0  0  0  0  0  0  0  0  0  0
   64.4735   75.6565   91.1427 C   0  0  0  0  0  0  0  0  0  0  0  0
   65.6381   76.3717   91.4479 C   0  0  0  0  0  0  0  0  0  0  0  0
   63.1768   73.5037   90.9683 C   0  0  0  0  0  0  0  0  0  0  0  0
   62.8323   73.5877   89.6318 F   0  0  0  0  0  0  0  0  0  0  0  0
   63.3461   72.1693   91.3042 F   0  0  0  0  0  0  0  0  0  0  0  0
   62.1398   74.0313   91.7213 F   0  0  0  0  0  0  0  0  0  0  0  0
   70.5504   81.6099   87.8878 C   0  0  0  0  0  0  0  0  0  0  0  0
   69.1462   81.4018   88.0135 O   0  0  0  0  0  0  0  0  0  0  0  0
   67.3837   78.1881   87.2380 C   0  0  0  0  0  0  0  0  0  0  0  0
   68.1346   79.1566   87.9330 C   0  0  0  0  0  0  0  0  0  0  0  0
   68.3969   80.4120   87.3564 C   0  0  0  0  0  0  0  0  0  0  0  0
   67.9094   80.6932   86.0784 C   0  0  0  0  0  0  0  0  0  0  0  0
   67.1864   79.7342   85.3743 C   0  0  0  0  0  0  0  0  0  0  0  0
   66.9263   78.4801   85.9287 C   0  0  0  0  0  0  0  0  0  0  0  0
   66.2371   77.5544   85.1434 O   0  0  0  0  0  0  0  0  0  0  0  0
   65.9527   77.7902   84.2823 H   0  0  0  0  0  0  0  0  0  0  0  0
   67.9883   76.1662   88.3275 O   0  0  0  0  0  0  0  0  0  0  0  0
   67.0616   76.9212   87.9311 C   0  0  0  0  0  0  0  0  0  0  0  0
   65.7481   76.5853   88.2271 O   0  0  0  0  0  0  0  0  0  0  0  0
   65.0473   77.1367   87.9393 H   0  0  0  0  0  0  0  0  0  0  0  0
 34 35  2  0  0  0
 35 36  1  0  0  0
 35 26  1  0  0  0
 26 27  2  0  0  0
 27 28  1  0  0  0
 28 25  1  0  0  0
 25 24  1  0  0  0
 24  1  1  0  0  0
  1  2  2  0  0  0
  2  3  1  0  0  0
  3  4  2  0  0  0
  4  5  1  0  0  0
  5  7  1  0  0  0
  7  8  2  0  0  0
  8  9  1  0  0  0
  9 10  2  0  0  0
 10 11  1  0  0  0
 11 13  1  0  0  0
 13 14  1  0  0  0
 14 15  2  0  0  0
 15 16  1  0  0  0
 16 17  2  0  0  0
 17 20  1  0  0  0
 20 21  1  0  0  0
 20 22  1  0  0  0
 20 23  1  0  0  0
 17 18  1  0  0  0
 18 19  2  0  0  0
 11 12  2  0  0  0
  5  6  2  0  0  0
 28 29  2  0  0  0
 29 30  1  0  0  0
 30 31  2  0  0  0
 31 32  1  0  0  0
 31 26  1  0  0  0
  6  1  1  0  0  0
 12  7  1  0  0  0
 19 14  1  0  0  0
 36 37  1  0  0  0
 32 33  1  0  0  0
M  END
> <Activity>
3.1

> <minimizedAffinity>
-8.90454

$$$$
HIPS6989


 37 40  0  0  0  0  0  0  0  0999 V2000
   63.9814   73.1880   91.5428 C   0  0  0  0  0  0  0  0  0  0  0  0
   64.0634   71.8688   91.0600 C   0  0  0  0  0  0  0  0  0  0  0  0
   65.3051   71.2587   90.8627 C   0  0  0  0  0  0  0  0  0  0  0  0
   66.4812   71.9627   91.1254 C   0  0  0  0  0  0  0  0  0  0  0  0
   66.4210   73.2900   91.5950 C   0  0  0  0  0  0  0  0  0  0  0  0
   65.1700   73.8827   91.8405 C   0  0  0  0  0  0  0  0  0  0  0  0
   67.6603   74.0701   91.7838 C   0  0  0  0  0  0  0  0  0  0  0  0
   68.1406   74.3596   93.0701 C   0  0  0  0  0  0  0  0  0  0  0  0
   69.3084   75.1080   93.2327 C   0  0  0  0  0  0  0  0  0  0  0  0
   70.0095   75.5678   92.1132 C   0  0  0  0  0  0  0  0  0  0  0  0
   69.5595   75.2617   90.8268 C   0  0  0  0  0  0  0  0  0  0  0  0
   68.3731   74.5301   90.6635 C   0  0  0  0  0  0  0  0  0  0  0  0
   70.2770   75.7431   89.7231 O   0  0  0  0  0  0  0  0  0  0  0  0
   70.4602   77.0983   89.4053 C   0  0  0  0  0  0  0  0  0  0  0  0
   69.3391   77.8800   89.1105 C   0  0  0  0  0  0  0  0  0  0  0  0
   69.4720   79.2436   88.8395 C   0  0  0  0  0  0  0  0  0  0  0  0
   70.7396   79.8480   88.8367 C   0  0  0  0  0  0  0  0  0  0  0  0
   71.8668   79.0733   89.1564 C   0  0  0  0  0  0  0  0  0  0  0  0
   71.7281   77.7081   89.4362 C   0  0  0  0  0  0  0  0  0  0  0  0
   70.8978   81.3294   88.5933 C   0  0  0  0  0  0  0  0  0  0  0  0
   72.1907   81.6335   88.2085 F   0  0  0  0  0  0  0  0  0  0  0  0
   70.0269   81.7260   87.5901 F   0  0  0  0  0  0  0  0  0  0  0  0
   70.6078   82.0367   89.7493 F   0  0  0  0  0  0  0  0  0  0  0  0
   62.6108   73.7885   91.7745 C   0  0  0  0  0  0  0  0  0  0  0  0
   62.4132   75.0372   91.1169 O   0  0  0  0  0  0  0  0  0  0  0  0
   65.0239   77.6582   90.5248 C   0  0  0  0  0  0  0  0  0  0  0  0
   64.0304   76.8954   91.1698 C   0  0  0  0  0  0  0  0  0  0  0  0
   63.4117   75.8178   90.5114 C   0  0  0  0  0  0  0  0  0  0  0  0
   63.7869   75.5094   89.2022 C   0  0  0  0  0  0  0  0  0  0  0  0
   64.7509   76.2719   88.5483 C   0  0  0  0  0  0  0  0  0  0  0  0
   65.3670   77.3506   89.1845 C   0  0  0  0  0  0  0  0  0  0  0  0
   66.2884   78.0974   88.4483 O   0  0  0  0  0  0  0  0  0  0  0  0
   66.4857   77.8581   87.5641 H   0  0  0  0  0  0  0  0  0  0  0  0
   66.9280   78.9506   91.1117 O   0  0  0  0  0  0  0  0  0  0  0  0
   65.7041   78.7203   91.2984 C   0  0  0  0  0  0  0  0  0  0  0  0
   64.9943   79.5287   92.1749 O   0  0  0  0  0  0  0  0  0  0  0  0
   64.0830   79.3703   92.3246 H   0  0  0  0  0  0  0  0  0  0  0  0
 34 35  2  0  0  0
 35 36  1  0  0  0
 35 26  1  0  0  0
 26 27  2  0  0  0
 27 28  1  0  0  0
 28 25  1  0  0  0
 25 24  1  0  0  0
 24  1  1  0  0  0
  1  2  2  0  0  0
  2  3  1  0  0  0
  3  4  2  0  0  0
  4  5  1  0  0  0
  5  7  1  0  0  0
  7  8  2  0  0  0
  8  9  1  0  0  0
  9 10  2  0  0  0
 10 11  1  0  0  0
 11 13  1  0  0  0
 13 14  1  0  0  0
 14 15  2  0  0  0
 15 16  1  0  0  0
 16 17  2  0  0  0
 17 20  1  0  0  0
 20 21  1  0  0  0
 20 22  1  0  0  0
 20 23  1  0  0  0
 17 18  1  0  0  0
 18 19  2  0  0  0
 11 12  2  0  0  0
  5  6  2  0  0  0
 28 29  2  0  0  0
 29 30  1  0  0  0
 30 31  2  0  0  0
 31 32  1  0  0  0
 31 26  1  0  0  0
  6  1  1  0  0  0
 12  7  1  0  0  0
 19 14  1  0  0  0
 36 37  1  0  0  0
 32 33  1  0  0  0
M  END
> <Activity>
3.1

> <minimizedAffinity>
-8.88333

$$$$
HIPS6989


 37 40  0  0  0  0  0  0  0  0999 V2000
   63.8399   74.2130   91.2288 C   0  0  0  0  0  0  0  0  0  0  0  0
   63.6732   72.8445   90.9470 C   0  0  0  0  0  0  0  0  0  0  0  0
   64.7503   71.9601   91.0492 C   0  0  0  0  0  0  0  0  0  0  0  0
   66.0120   72.4320   91.4145 C   0  0  0  0  0  0  0  0  0  0  0  0
   66.2034   73.8014   91.6861 C   0  0  0  0  0  0  0  0  0  0  0  0
   65.1065   74.6791   91.6317 C   0  0  0  0  0  0  0  0  0  0  0  0
   67.5540   74.3207   91.9801 C   0  0  0  0  0  0  0  0  0  0  0  0
   68.5891   73.4570   92.3696 C   0  0  0  0  0  0  0  0  0  0  0  0
   69.8585   73.9645   92.6550 C   0  0  0  0  0  0  0  0  0  0  0  0
   70.1066   75.3368   92.5476 C   0  0  0  0  0  0  0  0  0  0  0  0
   69.0939   76.2043   92.1320 C   0  0  0  0  0  0  0  0  0  0  0  0
   67.8120   75.6975   91.8684 C   0  0  0  0  0  0  0  0  0  0  0  0
   69.3683   77.5760   92.0418 O   0  0  0  0  0  0  0  0  0  0  0  0
   69.0834   78.5255   93.0359 C   0  0  0  0  0  0  0  0  0  0  0  0
   68.5546   79.7628   92.6559 C   0  0  0  0  0  0  0  0  0  0  0  0
   68.2093   80.7160   93.6164 C   0  0  0  0  0  0  0  0  0  0  0  0
   68.4092   80.4547   94.9817 C   0  0  0  0  0  0  0  0  0  0  0  0
   68.9169   79.2042   95.3710 C   0  0  0  0  0  0  0  0  0  0  0  0
   69.2536   78.2479   94.4050 C   0  0  0  0  0  0  0  0  0  0  0  0
   67.9977   81.4533   96.0363 C   0  0  0  0  0  0  0  0  0  0  0  0
   69.1044   82.0196   96.6418 F   0  0  0  0  0  0  0  0  0  0  0  0
   67.2453   82.4586   95.4487 F   0  0  0  0  0  0  0  0  0  0  0  0
   67.2360   80.8304   97.0123 F   0  0  0  0  0  0  0  0  0  0  0  0
   62.6317   75.1212   91.1392 C   0  0  0  0  0  0  0  0  0  0  0  0
   62.8365   76.2688   90.3195 O   0  0  0  0  0  0  0  0  0  0  0  0
   66.1145   77.1090   88.7119 C   0  0  0  0  0  0  0  0  0  0  0  0
   64.8765   76.4817   88.9543 C   0  0  0  0  0  0  0  0  0  0  0  0
   64.0733   76.8730   90.0402 C   0  0  0  0  0  0  0  0  0  0  0  0
   64.5163   77.8913   90.8868 C   0  0  0  0  0  0  0  0  0  0  0  0
   65.7488   78.5010   90.6692 C   0  0  0  0  0  0  0  0  0  0  0  0
   66.5620   78.1173   89.6018 C   0  0  0  0  0  0  0  0  0  0  0  0
   67.8047   78.7405   89.4767 O   0  0  0  0  0  0  0  0  0  0  0  0
   68.0603   79.4029   90.0882 H   0  0  0  0  0  0  0  0  0  0  0  0
   67.9977   76.1649   87.6151 O   0  0  0  0  0  0  0  0  0  0  0  0
   66.8725   76.7192   87.5025 C   0  0  0  0  0  0  0  0  0  0  0  0
   66.3266   76.8808   86.2370 O   0  0  0  0  0  0  0  0  0  0  0  0
   65.4904   77.2913   86.1364 H   0  0  0  0  0  0  0  0  0  0  0  0
 34 35  2  0  0  0
 35 36  1  0  0  0
 35 26  1  0  0  0
 26 27  2  0  0  0
 27 28  1  0  0  0
 28 25  1  0  0  0
 25 24  1  0  0  0
 24  1  1  0  0  0
  1  2  2  0  0  0
  2  3  1  0  0  0
  3  4  2  0  0  0
  4  5  1  0  0  0
  5  7  1  0  0  0
  7  8  2  0  0  0
  8  9  1  0  0  0
  9 10  2  0  0  0
 10 11  1  0  0  0
 11 13  1  0  0  0
 13 14  1  0  0  0
 14 15  2  0  0  0
 15 16  1  0  0  0
 16 17  2  0  0  0
 17 20  1  0  0  0
 20 21  1  0  0  0
 20 22  1  0  0  0
 20 23  1  0  0  0
 17 18  1  0  0  0
 18 19  2  0  0  0
 11 12  2  0  0  0
  5  6  2  0  0  0
 28 29  2  0  0  0
 29 30  1  0  0  0
 30 31  2  0  0  0
 31 32  1  0  0  0
 31 26  1  0  0  0
  6  1  1  0  0  0
 12  7  1  0  0  0
 19 14  1  0  0  0
 36 37  1  0  0  0
 32 33  1  0  0  0
M  END
> <Activity>
3.1

> <minimizedAffinity>
-8.76086

$$$$
HIPS6989


 37 40  0  0  0  0  0  0  0  0999 V2000
   67.8973   78.6926   87.7703 C   0  0  0  0  0  0  0  0  0  0  0  0
   67.2401   77.7809   86.9235 C   0  0  0  0  0  0  0  0  0  0  0  0
   66.7394   76.5766   87.4255 C   0  0  0  0  0  0  0  0  0  0  0  0
   66.9050   76.2568   88.7739 C   0  0  0  0  0  0  0  0  0  0  0  0
   67.5737   77.1493   89.6354 C   0  0  0  0  0  0  0  0  0  0  0  0
   68.0309   78.3821   89.1377 C   0  0  0  0  0  0  0  0  0  0  0  0
   67.8347   76.7744   91.0394 C   0  0  0  0  0  0  0  0  0  0  0  0
   67.4273   75.5285   91.5402 C   0  0  0  0  0  0  0  0  0  0  0  0
   67.6715   75.1925   92.8736 C   0  0  0  0  0  0  0  0  0  0  0  0
   68.3300   76.0944   93.7158 C   0  0  0  0  0  0  0  0  0  0  0  0
   68.7678   77.3259   93.2229 C   0  0  0  0  0  0  0  0  0  0  0  0
   68.5011   77.6731   91.8896 C   0  0  0  0  0  0  0  0  0  0  0  0
   69.4171   78.2138   94.0917 O   0  0  0  0  0  0  0  0  0  0  0  0
   68.8419   79.3669   94.6491 C   0  0  0  0  0  0  0  0  0  0  0  0
   68.5570   80.4507   93.8130 C   0  0  0  0  0  0  0  0  0  0  0  0
   67.9381   81.5967   94.3172 C   0  0  0  0  0  0  0  0  0  0  0  0
   67.6116   81.6876   95.6801 C   0  0  0  0  0  0  0  0  0  0  0  0
   67.8728   80.5924   96.5198 C   0  0  0  0  0  0  0  0  0  0  0  0
   68.4855   79.4418   96.0084 C   0  0  0  0  0  0  0  0  0  0  0  0
   66.8994   82.8982   96.2333 C   0  0  0  0  0  0  0  0  0  0  0  0
   65.8181   82.5253   97.0104 F   0  0  0  0  0  0  0  0  0  0  0  0
   67.7794   83.6326   97.0133 F   0  0  0  0  0  0  0  0  0  0  0  0
   66.4393   83.6961   95.1978 F   0  0  0  0  0  0  0  0  0  0  0  0
   68.3872   79.9994   87.1832 C   0  0  0  0  0  0  0  0  0  0  0  0
   69.1889   80.7655   88.0784 O   0  0  0  0  0  0  0  0  0  0  0  0
   72.8048   81.2030   88.9557 C   0  0  0  0  0  0  0  0  0  0  0  0
   71.4746   81.5150   88.6120 C   0  0  0  0  0  0  0  0  0  0  0  0
   70.5226   80.4966   88.4274 C   0  0  0  0  0  0  0  0  0  0  0  0
   70.9081   79.1634   88.5825 C   0  0  0  0  0  0  0  0  0  0  0  0
   72.2256   78.8442   88.8989 C   0  0  0  0  0  0  0  0  0  0  0  0
   73.1845   79.8427   89.0757 C   0  0  0  0  0  0  0  0  0  0  0  0
   74.4949   79.4432   89.3436 O   0  0  0  0  0  0  0  0  0  0  0  0
   74.7016   78.5321   89.4148 H   0  0  0  0  0  0  0  0  0  0  0  0
   74.3072   82.9108   88.2727 O   0  0  0  0  0  0  0  0  0  0  0  0
   73.7383   82.3184   89.2272 C   0  0  0  0  0  0  0  0  0  0  0  0
   73.9384   82.7809   90.5202 O   0  0  0  0  0  0  0  0  0  0  0  0
   73.5222   82.3510   91.2412 H   0  0  0  0  0  0  0  0  0  0  0  0
 34 35  2  0  0  0
 35 36  1  0  0  0
 35 26  1  0  0  0
 26 27  2  0  0  0
 27 28  1  0  0  0
 28 25  1  0  0  0
 25 24  1  0  0  0
 24  1  1  0  0  0
  1  2  2  0  0  0
  2  3  1  0  0  0
  3  4  2  0  0  0
  4  5  1  0  0  0
  5  7  1  0  0  0
  7  8  2  0  0  0
  8  9  1  0  0  0
  9 10  2  0  0  0
 10 11  1  0  0  0
 11 13  1  0  0  0
 13 14  1  0  0  0
 14 15  2  0  0  0
 15 16  1  0  0  0
 16 17  2  0  0  0
 17 20  1  0  0  0
 20 21  1  0  0  0
 20 22  1  0  0  0
 20 23  1  0  0  0
 17 18  1  0  0  0
 18 19  2  0  0  0
 11 12  2  0  0  0
  5  6  2  0  0  0
 28 29  2  0  0  0
 29 30  1  0  0  0
 30 31  2  0  0  0
 31 32  1  0  0  0
 31 26  1  0  0  0
  6  1  1  0  0  0
 12  7  1  0  0  0
 19 14  1  0  0  0
 36 37  1  0  0  0
 32 33  1  0  0  0
M  END
> <Activity>
3.1

> <minimizedAffinity>
-8.72419

$$$$
HIPS6989


 37 40  0  0  0  0  0  0  0  0999 V2000
   63.9486   73.5630   91.5927 C   0  0  0  0  0  0  0  0  0  0  0  0
   64.0227   72.2336   91.1373 C   0  0  0  0  0  0  0  0  0  0  0  0
   65.2610   71.6209   90.9273 C   0  0  0  0  0  0  0  0  0  0  0  0
   66.4412   72.3320   91.1495 C   0  0  0  0  0  0  0  0  0  0  0  0
   66.3886   73.6692   91.5909 C   0  0  0  0  0  0  0  0  0  0  0  0
   65.1421   74.2656   91.8498 C   0  0  0  0  0  0  0  0  0  0  0  0
   67.6302   74.4549   91.7363 C   0  0  0  0  0  0  0  0  0  0  0  0
   68.2177   74.6476   92.9960 C   0  0  0  0  0  0  0  0  0  0  0  0
   69.3862   75.4025   93.1190 C   0  0  0  0  0  0  0  0  0  0  0  0
   69.9812   75.9654   91.9852 C   0  0  0  0  0  0  0  0  0  0  0  0
   69.4242   75.7566   90.7214 C   0  0  0  0  0  0  0  0  0  0  0  0
   68.2368   75.0182   90.6008 C   0  0  0  0  0  0  0  0  0  0  0  0
   70.0366   76.3400   89.6037 O   0  0  0  0  0  0  0  0  0  0  0  0
   69.4589   77.3239   88.7856 C   0  0  0  0  0  0  0  0  0  0  0  0
   69.8895   78.6478   88.9152 C   0  0  0  0  0  0  0  0  0  0  0  0
   69.3780   79.6483   88.0860 C   0  0  0  0  0  0  0  0  0  0  0  0
   68.4040   79.3436   87.1211 C   0  0  0  0  0  0  0  0  0  0  0  0
   67.9858   78.0113   86.9695 C   0  0  0  0  0  0  0  0  0  0  0  0
   68.5077   77.0096   87.7972 C   0  0  0  0  0  0  0  0  0  0  0  0
   67.8750   80.4024   86.1842 C   0  0  0  0  0  0  0  0  0  0  0  0
   68.8833   80.9023   85.3807 F   0  0  0  0  0  0  0  0  0  0  0  0
   66.8908   79.8520   85.3775 F   0  0  0  0  0  0  0  0  0  0  0  0
   67.3315   81.4519   86.9079 F   0  0  0  0  0  0  0  0  0  0  0  0
   62.5822   74.1666   91.8400 C   0  0  0  0  0  0  0  0  0  0  0  0
   62.4215   75.4691   91.2844 O   0  0  0  0  0  0  0  0  0  0  0  0
   65.2497   77.9258   91.2453 C   0  0  0  0  0  0  0  0  0  0  0  0
   64.2250   77.0882   91.7282 C   0  0  0  0  0  0  0  0  0  0  0  0
   63.4556   76.3114   90.8439 C   0  0  0  0  0  0  0  0  0  0  0  0
   63.7118   76.3799   89.4728 C   0  0  0  0  0  0  0  0  0  0  0  0
   64.7067   77.2223   88.9842 C   0  0  0  0  0  0  0  0  0  0  0  0
   65.4722   78.0069   89.8479 C   0  0  0  0  0  0  0  0  0  0  0  0
   66.4178   78.8625   89.2802 O   0  0  0  0  0  0  0  0  0  0  0  0
   66.5319   78.8839   88.3504 H   0  0  0  0  0  0  0  0  0  0  0  0
   66.0357   79.9048   92.2971 O   0  0  0  0  0  0  0  0  0  0  0  0
   66.0859   78.6484   92.2292 C   0  0  0  0  0  0  0  0  0  0  0  0
   66.8707   77.9569   93.1411 O   0  0  0  0  0  0  0  0  0  0  0  0
   66.9186   77.0219   93.1038 H   0  0  0  0  0  0  0  0  0  0  0  0
 34 35  2  0  0  0
 35 36  1  0  0  0
 35 26  1  0  0  0
 26 27  2  0  0  0
 27 28  1  0  0  0
 28 25  1  0  0  0
 25 24  1  0  0  0
 24  1  1  0  0  0
  1  2  2  0  0  0
  2  3  1  0  0  0
  3  4  2  0  0  0
  4  5  1  0  0  0
  5  7  1  0  0  0
  7  8  2  0  0  0
  8  9  1  0  0  0
  9 10  2  0  0  0
 10 11  1  0  0  0
 11 13  1  0  0  0
 13 14  1  0  0  0
 14 15  2  0  0  0
 15 16  1  0  0  0
 16 17  2  0  0  0
 17 20  1  0  0  0
 20 21  1  0  0  0
 20 22  1  0  0  0
 20 23  1  0  0  0
 17 18  1  0  0  0
 18 19  2  0  0  0
 11 12  2  0  0  0
  5  6  2  0  0  0
 28 29  2  0  0  0
 29 30  1  0  0  0
 30 31  2  0  0  0
 31 32  1  0  0  0
 31 26  1  0  0  0
  6  1  1  0  0  0
 12  7  1  0  0  0
 19 14  1  0  0  0
 36 37  1  0  0  0
 32 33  1  0  0  0
M  END
> <Activity>
3.1

> <minimizedAffinity>
-8.54619

$$$$
HIPS6989


 37 40  0  0  0  0  0  0  0  0999 V2000
   64.0058   73.4772   91.3518 C   0  0  0  0  0  0  0  0  0  0  0  0
   64.0490   72.1232   90.9712 C   0  0  0  0  0  0  0  0  0  0  0  0
   65.2663   71.4397   90.9089 C   0  0  0  0  0  0  0  0  0  0  0  0
   66.4581   72.1026   91.2061 C   0  0  0  0  0  0  0  0  0  0  0  0
   66.4379   73.4626   91.5744 C   0  0  0  0  0  0  0  0  0  0  0  0
   65.2070   74.1328   91.6852 C   0  0  0  0  0  0  0  0  0  0  0  0
   67.7017   74.1927   91.7972 C   0  0  0  0  0  0  0  0  0  0  0  0
   68.1673   74.4476   93.0962 C   0  0  0  0  0  0  0  0  0  0  0  0
   69.3590   75.1491   93.2911 C   0  0  0  0  0  0  0  0  0  0  0  0
   70.0988   75.5960   92.1914 C   0  0  0  0  0  0  0  0  0  0  0  0
   69.6629   75.3232   90.8927 C   0  0  0  0  0  0  0  0  0  0  0  0
   68.4531   74.6393   90.6970 C   0  0  0  0  0  0  0  0  0  0  0  0
   70.4196   75.7909   89.8094 O   0  0  0  0  0  0  0  0  0  0  0  0
   70.5962   77.1413   89.4684 C   0  0  0  0  0  0  0  0  0  0  0  0
   69.4683   77.9233   89.2017 C   0  0  0  0  0  0  0  0  0  0  0  0
   69.5962   79.2828   88.9089 C   0  0  0  0  0  0  0  0  0  0  0  0
   70.8650   79.8826   88.8557 C   0  0  0  0  0  0  0  0  0  0  0  0
   71.9998   79.1079   89.1470 C   0  0  0  0  0  0  0  0  0  0  0  0
   71.8663   77.7469   89.4487 C   0  0  0  0  0  0  0  0  0  0  0  0
   71.0196   81.3603   88.5883 C   0  0  0  0  0  0  0  0  0  0  0  0
   70.7570   82.1003   89.7265 F   0  0  0  0  0  0  0  0  0  0  0  0
   72.3174   81.6193   88.1751 F   0  0  0  0  0  0  0  0  0  0  0  0
   70.1405   81.7600   87.5943 F   0  0  0  0  0  0  0  0  0  0  0  0
   62.6572   74.1600   91.4395 C   0  0  0  0  0  0  0  0  0  0  0  0
   62.5486   75.3224   90.6223 O   0  0  0  0  0  0  0  0  0  0  0  0
   65.5321   77.0762   89.1874 C   0  0  0  0  0  0  0  0  0  0  0  0
   64.5269   76.1084   89.3814 C   0  0  0  0  0  0  0  0  0  0  0  0
   63.5626   76.2669   90.3925 C   0  0  0  0  0  0  0  0  0  0  0  0
   63.6111   77.3956   91.2133 C   0  0  0  0  0  0  0  0  0  0  0  0
   64.6145   78.3458   91.0445 C   0  0  0  0  0  0  0  0  0  0  0  0
   65.5846   78.1980   90.0521 C   0  0  0  0  0  0  0  0  0  0  0  0
   66.5866   79.1668   89.9755 O   0  0  0  0  0  0  0  0  0  0  0  0
   66.5826   79.8928   90.5678 H   0  0  0  0  0  0  0  0  0  0  0  0
   67.0620   75.8063   87.8884 O   0  0  0  0  0  0  0  0  0  0  0  0
   66.4625   76.9018   88.0502 C   0  0  0  0  0  0  0  0  0  0  0  0
   66.6266   77.9038   87.1042 O   0  0  0  0  0  0  0  0  0  0  0  0
   66.1874   78.7246   87.2102 H   0  0  0  0  0  0  0  0  0  0  0  0
 34 35  2  0  0  0
 35 36  1  0  0  0
 35 26  1  0  0  0
 26 27  2  0  0  0
 27 28  1  0  0  0
 28 25  1  0  0  0
 25 24  1  0  0  0
 24  1  1  0  0  0
  1  2  2  0  0  0
  2  3  1  0  0  0
  3  4  2  0  0  0
  4  5  1  0  0  0
  5  7  1  0  0  0
  7  8  2  0  0  0
  8  9  1  0  0  0
  9 10  2  0  0  0
 10 11  1  0  0  0
 11 13  1  0  0  0
 13 14  1  0  0  0
 14 15  2  0  0  0
 15 16  1  0  0  0
 16 17  2  0  0  0
 17 20  1  0  0  0
 20 21  1  0  0  0
 20 22  1  0  0  0
 20 23  1  0  0  0
 17 18  1  0  0  0
 18 19  2  0  0  0
 11 12  2  0  0  0
  5  6  2  0  0  0
 28 29  2  0  0  0
 29 30  1  0  0  0
 30 31  2  0  0  0
 31 32  1  0  0  0
 31 26  1  0  0  0
  6  1  1  0  0  0
 12  7  1  0  0  0
 19 14  1  0  0  0
 36 37  1  0  0  0
 32 33  1  0  0  0
M  END
> <Activity>
3.1

> <minimizedAffinity>
-8.53420

$$$$
HIPS7002


 39 42  0  0  0  0  0  0  0  0999 V2000
   65.7837   76.1808   88.5918 C   0  0  0  0  0  0  0  0  0  0  0  0
   64.5603   75.6296   89.0015 C   0  0  0  0  0  0  0  0  0  0  0  0
   64.2758   75.4833   90.3604 C   0  0  0  0  0  0  0  0  0  0  0  0
   65.2033   75.8927   91.3215 C   0  0  0  0  0  0  0  0  0  0  0  0
   66.4281   76.4620   90.9312 C   0  0  0  0  0  0  0  0  0  0  0  0
   66.7077   76.6054   89.5600 C   0  0  0  0  0  0  0  0  0  0  0  0
   67.4126   76.9032   91.9504 C   0  0  0  0  0  0  0  0  0  0  0  0
   68.3300   75.9905   92.4987 C   0  0  0  0  0  0  0  0  0  0  0  0
   69.2595   76.4105   93.4521 C   0  0  0  0  0  0  0  0  0  0  0  0
   69.2819   77.7410   93.8747 C   0  0  0  0  0  0  0  0  0  0  0  0
   68.3635   78.6672   93.3462 C   0  0  0  0  0  0  0  0  0  0  0  0
   67.4416   78.2417   92.3820 C   0  0  0  0  0  0  0  0  0  0  0  0
   68.3269   80.0120   93.7495 O   0  0  0  0  0  0  0  0  0  0  0  0
   68.9427   80.5378   94.9263 C   0  0  0  0  0  0  0  0  0  0  0  0
   67.9774   81.3918   95.7065 C   0  0  0  0  0  0  0  0  0  0  0  0
   67.9208   81.2993   97.1052 C   0  0  0  0  0  0  0  0  0  0  0  0
   67.0257   82.0907   97.8313 C   0  0  0  0  0  0  0  0  0  0  0  0
   66.1610   82.9795   97.1643 C   0  0  0  0  0  0  0  0  0  0  0  0
   66.2043   83.0508   95.7671 C   0  0  0  0  0  0  0  0  0  0  0  0
   67.1004   82.2613   95.0413 C   0  0  0  0  0  0  0  0  0  0  0  0
   65.2491   83.8048   97.8419 O   0  0  0  0  0  0  0  0  0  0  0  0
   64.9636   85.1625   97.5114 C   0  0  0  0  0  0  0  0  0  0  0  0
   64.7746   85.9051   98.6637 F   0  0  0  0  0  0  0  0  0  0  0  0
   63.8345   85.2313   96.7148 F   0  0  0  0  0  0  0  0  0  0  0  0
   66.0332   85.6886   96.8136 F   0  0  0  0  0  0  0  0  0  0  0  0
   66.1082   76.3266   87.1285 C   0  0  0  0  0  0  0  0  0  0  0  0
   67.4987   76.5971   86.9453 O   0  0  0  0  0  0  0  0  0  0  0  0
   68.2999   80.2129   87.1476 C   0  0  0  0  0  0  0  0  0  0  0  0
   67.6940   78.9904   86.8017 C   0  0  0  0  0  0  0  0  0  0  0  0
   68.1528   77.7793   87.3298 C   0  0  0  0  0  0  0  0  0  0  0  0
   69.2466   77.7875   88.2118 C   0  0  0  0  0  0  0  0  0  0  0  0
   69.8451   78.9934   88.5778 C   0  0  0  0  0  0  0  0  0  0  0  0
   69.3690   80.2093   88.0766 C   0  0  0  0  0  0  0  0  0  0  0  0
   69.9576   81.3832   88.5516 O   0  0  0  0  0  0  0  0  0  0  0  0
   70.6634   81.3379   89.1662 H   0  0  0  0  0  0  0  0  0  0  0  0
   68.1126   81.6903   85.2962 O   0  0  0  0  0  0  0  0  0  0  0  0
   67.8175   81.4521   86.4984 C   0  0  0  0  0  0  0  0  0  0  0  0
   67.0890   82.3931   87.2189 O   0  0  0  0  0  0  0  0  0  0  0  0
   66.8640   82.2267   88.1131 H   0  0  0  0  0  0  0  0  0  0  0  0
 36 37  2  0  0  0
 37 38  1  0  0  0
 37 28  1  0  0  0
 28 29  2  0  0  0
 29 30  1  0  0  0
 30 27  1  0  0  0
 27 26  1  0  0  0
 26  1  1  0  0  0
  1  2  2  0  0  0
  2  3  1  0  0  0
  3  4  2  0  0  0
  4  5  1  0  0  0
  5  7  1  0  0  0
  7  8  2  0  0  0
  8  9  1  0  0  0
  9 10  2  0  0  0
 10 11  1  0  0  0
 11 13  1  0  0  0
 13 14  1  0  0  0
 14 15  1  0  0  0
 15 16  2  0  0  0
 16 17  1  0  0  0
 17 18  2  0  0  0
 18 21  1  0  0  0
 21 22  1  0  0  0
 22 23  1  0  0  0
 22 24  1  0  0  0
 22 25  1  0  0  0
 18 19  1  0  0  0
 19 20  2  0  0  0
 11 12  2  0  0  0
  5  6  2  0  0  0
 30 31  2  0  0  0
 31 32  1  0  0  0
 32 33  2  0  0  0
 33 34  1  0  0  0
 33 28  1  0  0  0
  6  1  1  0  0  0
 12  7  1  0  0  0
 20 15  1  0  0  0
 38 39  1  0  0  0
 34 35  1  0  0  0
M  END
> <Activity>
3.2

> <minimizedAffinity>
-10.94666

$$$$
HIPS7002


 39 42  0  0  0  0  0  0  0  0999 V2000
   68.7264   75.0370   91.8208 C   0  0  0  0  0  0  0  0  0  0  0  0
   70.0768   74.7970   92.1161 C   0  0  0  0  0  0  0  0  0  0  0  0
   71.0769   75.5312   91.4760 C   0  0  0  0  0  0  0  0  0  0  0  0
   70.7399   76.5155   90.5438 C   0  0  0  0  0  0  0  0  0  0  0  0
   69.3920   76.7817   90.2460 C   0  0  0  0  0  0  0  0  0  0  0  0
   68.3901   76.0372   90.8947 C   0  0  0  0  0  0  0  0  0  0  0  0
   69.0311   77.8310   89.2603 C   0  0  0  0  0  0  0  0  0  0  0  0
   67.7787   77.8109   88.6229 C   0  0  0  0  0  0  0  0  0  0  0  0
   67.4398   78.8036   87.7013 C   0  0  0  0  0  0  0  0  0  0  0  0
   68.3453   79.8224   87.3996 C   0  0  0  0  0  0  0  0  0  0  0  0
   69.6089   79.8528   88.0186 C   0  0  0  0  0  0  0  0  0  0  0  0
   69.9378   78.8608   88.9502 C   0  0  0  0  0  0  0  0  0  0  0  0
   70.5662   80.8414   87.7378 O   0  0  0  0  0  0  0  0  0  0  0  0
   71.3564   81.5254   88.7116 C   0  0  0  0  0  0  0  0  0  0  0  0
   72.7605   80.9804   88.7484 C   0  0  0  0  0  0  0  0  0  0  0  0
   73.8573   81.8364   88.5673 C   0  0  0  0  0  0  0  0  0  0  0  0
   75.1612   81.3329   88.6010 C   0  0  0  0  0  0  0  0  0  0  0  0
   75.3867   79.9578   88.8031 C   0  0  0  0  0  0  0  0  0  0  0  0
   74.2885   79.1042   88.9593 C   0  0  0  0  0  0  0  0  0  0  0  0
   72.9852   79.6075   88.9278 C   0  0  0  0  0  0  0  0  0  0  0  0
   76.6735   79.3984   88.8557 O   0  0  0  0  0  0  0  0  0  0  0  0
   77.1009   78.2455   88.1329 C   0  0  0  0  0  0  0  0  0  0  0  0
   76.0060   77.5575   87.6402 F   0  0  0  0  0  0  0  0  0  0  0  0
   77.8478   77.4190   88.9534 F   0  0  0  0  0  0  0  0  0  0  0  0
   77.8878   78.6479   87.0716 F   0  0  0  0  0  0  0  0  0  0  0  0
   67.6403   74.2386   92.4922 C   0  0  0  0  0  0  0  0  0  0  0  0
   66.8009   73.6130   91.5206 O   0  0  0  0  0  0  0  0  0  0  0  0
   63.8960   75.6103   90.3679 C   0  0  0  0  0  0  0  0  0  0  0  0
   65.2097   75.2002   90.6631 C   0  0  0  0  0  0  0  0  0  0  0  0
   65.4654   73.9604   91.2578 C   0  0  0  0  0  0  0  0  0  0  0  0
   64.3867   73.1178   91.5753 C   0  0  0  0  0  0  0  0  0  0  0  0
   63.0808   73.5034   91.2715 C   0  0  0  0  0  0  0  0  0  0  0  0
   62.8235   74.7287   90.6480 C   0  0  0  0  0  0  0  0  0  0  0  0
   61.5030   75.0130   90.2939 O   0  0  0  0  0  0  0  0  0  0  0  0
   60.8216   74.4029   90.4973 H   0  0  0  0  0  0  0  0  0  0  0  0
   64.4559   77.9071   90.1300 O   0  0  0  0  0  0  0  0  0  0  0  0
   63.6846   76.9636   89.8076 C   0  0  0  0  0  0  0  0  0  0  0  0
   62.6034   77.2245   88.9722 O   0  0  0  0  0  0  0  0  0  0  0  0
   62.0235   76.5309   88.7260 H   0  0  0  0  0  0  0  0  0  0  0  0
 36 37  2  0  0  0
 37 38  1  0  0  0
 37 28  1  0  0  0
 28 29  2  0  0  0
 29 30  1  0  0  0
 30 27  1  0  0  0
 27 26  1  0  0  0
 26  1  1  0  0  0
  1  2  2  0  0  0
  2  3  1  0  0  0
  3  4  2  0  0  0
  4  5  1  0  0  0
  5  7  1  0  0  0
  7  8  2  0  0  0
  8  9  1  0  0  0
  9 10  2  0  0  0
 10 11  1  0  0  0
 11 13  1  0  0  0
 13 14  1  0  0  0
 14 15  1  0  0  0
 15 16  2  0  0  0
 16 17  1  0  0  0
 17 18  2  0  0  0
 18 21  1  0  0  0
 21 22  1  0  0  0
 22 23  1  0  0  0
 22 24  1  0  0  0
 22 25  1  0  0  0
 18 19  1  0  0  0
 19 20  2  0  0  0
 11 12  2  0  0  0
  5  6  2  0  0  0
 30 31  2  0  0  0
 31 32  1  0  0  0
 32 33  2  0  0  0
 33 34  1  0  0  0
 33 28  1  0  0  0
  6  1  1  0  0  0
 12  7  1  0  0  0
 20 15  1  0  0  0
 38 39  1  0  0  0
 34 35  1  0  0  0
M  END
> <Activity>
3.2

> <minimizedAffinity>
-10.69983

$$$$
HIPS7002


 39 42  0  0  0  0  0  0  0  0999 V2000
   67.3019   77.4234   87.7494 C   0  0  0  0  0  0  0  0  0  0  0  0
   67.8518   78.5252   87.0773 C   0  0  0  0  0  0  0  0  0  0  0  0
   68.7284   79.3863   87.7400 C   0  0  0  0  0  0  0  0  0  0  0  0
   69.0707   79.1519   89.0739 C   0  0  0  0  0  0  0  0  0  0  0  0
   68.5426   78.0443   89.7599 C   0  0  0  0  0  0  0  0  0  0  0  0
   67.6594   77.1816   89.0855 C   0  0  0  0  0  0  0  0  0  0  0  0
   68.9093   77.7897   91.1754 C   0  0  0  0  0  0  0  0  0  0  0  0
   69.7095   76.6863   91.5180 C   0  0  0  0  0  0  0  0  0  0  0  0
   70.0584   76.4537   92.8498 C   0  0  0  0  0  0  0  0  0  0  0  0
   69.6097   77.3124   93.8550 C   0  0  0  0  0  0  0  0  0  0  0  0
   68.7976   78.4158   93.5332 C   0  0  0  0  0  0  0  0  0  0  0  0
   68.4610   78.6497   92.1944 C   0  0  0  0  0  0  0  0  0  0  0  0
   68.3011   79.2999   94.5051 O   0  0  0  0  0  0  0  0  0  0  0  0
   68.9269   80.5188   94.9089 C   0  0  0  0  0  0  0  0  0  0  0  0
   67.9725   81.3836   95.6907 C   0  0  0  0  0  0  0  0  0  0  0  0
   67.9081   81.2824   97.0885 C   0  0  0  0  0  0  0  0  0  0  0  0
   67.0233   82.0839   97.8162 C   0  0  0  0  0  0  0  0  0  0  0  0
   66.1766   82.9917   97.1516 C   0  0  0  0  0  0  0  0  0  0  0  0
   66.2274   83.0718   95.7551 C   0  0  0  0  0  0  0  0  0  0  0  0
   67.1134   82.2723   95.0278 C   0  0  0  0  0  0  0  0  0  0  0  0
   65.2758   83.8276   97.8308 O   0  0  0  0  0  0  0  0  0  0  0  0
   64.9952   85.1844   97.4923 C   0  0  0  0  0  0  0  0  0  0  0  0
   64.7886   85.9301   98.6395 F   0  0  0  0  0  0  0  0  0  0  0  0
   63.8784   85.2509   96.6783 F   0  0  0  0  0  0  0  0  0  0  0  0
   66.0752   85.7087   96.8095 F   0  0  0  0  0  0  0  0  0  0  0  0
   66.3414   76.4984   87.0495 C   0  0  0  0  0  0  0  0  0  0  0  0
   65.0567   76.5409   87.6721 O   0  0  0  0  0  0  0  0  0  0  0  0
   65.3359   74.5970   90.8185 C   0  0  0  0  0  0  0  0  0  0  0  0
   65.6561   75.3642   89.6827 C   0  0  0  0  0  0  0  0  0  0  0  0
   64.6672   75.7732   88.7822 C   0  0  0  0  0  0  0  0  0  0  0  0
   63.3330   75.3985   89.0137 C   0  0  0  0  0  0  0  0  0  0  0  0
   62.9985   74.6539   90.1452 C   0  0  0  0  0  0  0  0  0  0  0  0
   63.9799   74.2700   91.0647 C   0  0  0  0  0  0  0  0  0  0  0  0
   63.5640   73.6020   92.2183 O   0  0  0  0  0  0  0  0  0  0  0  0
   62.6568   73.4040   92.3437 H   0  0  0  0  0  0  0  0  0  0  0  0
   67.0475   73.0637   91.4225 O   0  0  0  0  0  0  0  0  0  0  0  0
   66.4353   74.1319   91.6931 C   0  0  0  0  0  0  0  0  0  0  0  0
   66.7644   74.8297   92.8506 O   0  0  0  0  0  0  0  0  0  0  0  0
   66.3160   75.6248   93.0618 H   0  0  0  0  0  0  0  0  0  0  0  0
 36 37  2  0  0  0
 37 38  1  0  0  0
 37 28  1  0  0  0
 28 29  2  0  0  0
 29 30  1  0  0  0
 30 27  1  0  0  0
 27 26  1  0  0  0
 26  1  1  0  0  0
  1  2  2  0  0  0
  2  3  1  0  0  0
  3  4  2  0  0  0
  4  5  1  0  0  0
  5  7  1  0  0  0
  7  8  2  0  0  0
  8  9  1  0  0  0
  9 10  2  0  0  0
 10 11  1  0  0  0
 11 13  1  0  0  0
 13 14  1  0  0  0
 14 15  1  0  0  0
 15 16  2  0  0  0
 16 17  1  0  0  0
 17 18  2  0  0  0
 18 21  1  0  0  0
 21 22  1  0  0  0
 22 23  1  0  0  0
 22 24  1  0  0  0
 22 25  1  0  0  0
 18 19  1  0  0  0
 19 20  2  0  0  0
 11 12  2  0  0  0
  5  6  2  0  0  0
 30 31  2  0  0  0
 31 32  1  0  0  0
 32 33  2  0  0  0
 33 34  1  0  0  0
 33 28  1  0  0  0
  6  1  1  0  0  0
 12  7  1  0  0  0
 20 15  1  0  0  0
 38 39  1  0  0  0
 34 35  1  0  0  0
M  END
> <Activity>
3.2

> <minimizedAffinity>
-10.55847

$$$$
HIPS7002


 39 42  0  0  0  0  0  0  0  0999 V2000
   64.0446   74.3131   91.3071 C   0  0  0  0  0  0  0  0  0  0  0  0
   63.8091   72.9369   91.1701 C   0  0  0  0  0  0  0  0  0  0  0  0
   64.8776   72.0384   91.1661 C   0  0  0  0  0  0  0  0  0  0  0  0
   66.1877   72.5025   91.3072 C   0  0  0  0  0  0  0  0  0  0  0  0
   66.4431   73.8764   91.4616 C   0  0  0  0  0  0  0  0  0  0  0  0
   65.3611   74.7754   91.4640 C   0  0  0  0  0  0  0  0  0  0  0  0
   67.8335   74.3714   91.6177 C   0  0  0  0  0  0  0  0  0  0  0  0
   68.7100   73.7613   92.5314 C   0  0  0  0  0  0  0  0  0  0  0  0
   70.0195   74.2252   92.6707 C   0  0  0  0  0  0  0  0  0  0  0  0
   70.4687   75.3045   91.9074 C   0  0  0  0  0  0  0  0  0  0  0  0
   69.6023   75.9361   90.9958 C   0  0  0  0  0  0  0  0  0  0  0  0
   68.2939   75.4586   90.8529 C   0  0  0  0  0  0  0  0  0  0  0  0
   69.9939   77.0380   90.2178 O   0  0  0  0  0  0  0  0  0  0  0  0
   71.1812   77.1097   89.4269 C   0  0  0  0  0  0  0  0  0  0  0  0
   71.5826   78.5412   89.1825 C   0  0  0  0  0  0  0  0  0  0  0  0
   70.6045   79.5385   89.0521 C   0  0  0  0  0  0  0  0  0  0  0  0
   70.9745   80.8675   88.8252 C   0  0  0  0  0  0  0  0  0  0  0  0
   72.3338   81.2168   88.7111 C   0  0  0  0  0  0  0  0  0  0  0  0
   73.3050   80.2146   88.8179 C   0  0  0  0  0  0  0  0  0  0  0  0
   72.9353   78.8864   89.0468 C   0  0  0  0  0  0  0  0  0  0  0  0
   72.7639   82.5356   88.4930 O   0  0  0  0  0  0  0  0  0  0  0  0
   74.0995   83.0057   88.6647 C   0  0  0  0  0  0  0  0  0  0  0  0
   74.2118   84.3048   88.2016 F   0  0  0  0  0  0  0  0  0  0  0  0
   74.9839   82.1849   87.9878 F   0  0  0  0  0  0  0  0  0  0  0  0
   74.4129   82.9843   90.0096 F   0  0  0  0  0  0  0  0  0  0  0  0
   62.9008   75.2926   91.2948 C   0  0  0  0  0  0  0  0  0  0  0  0
   63.0951   76.2816   90.2828 O   0  0  0  0  0  0  0  0  0  0  0  0
   66.2121   77.2908   88.5443 C   0  0  0  0  0  0  0  0  0  0  0  0
   65.0010   76.6475   88.8614 C   0  0  0  0  0  0  0  0  0  0  0  0
   64.2998   76.9589   90.0308 C   0  0  0  0  0  0  0  0  0  0  0  0
   64.8244   77.9234   90.9075 C   0  0  0  0  0  0  0  0  0  0  0  0
   66.0143   78.5822   90.5968 C   0  0  0  0  0  0  0  0  0  0  0  0
   66.7020   78.2965   89.4130 C   0  0  0  0  0  0  0  0  0  0  0  0
   67.8386   79.0540   89.1226 O   0  0  0  0  0  0  0  0  0  0  0  0
   68.1304   79.7105   89.7241 H   0  0  0  0  0  0  0  0  0  0  0  0
   68.1536   76.5173   87.4139 O   0  0  0  0  0  0  0  0  0  0  0  0
   66.9447   76.8649   87.3311 C   0  0  0  0  0  0  0  0  0  0  0  0
   66.3316   76.9009   86.0829 O   0  0  0  0  0  0  0  0  0  0  0  0
   65.4335   77.1577   86.0094 H   0  0  0  0  0  0  0  0  0  0  0  0
 36 37  2  0  0  0
 37 38  1  0  0  0
 37 28  1  0  0  0
 28 29  2  0  0  0
 29 30  1  0  0  0
 30 27  1  0  0  0
 27 26  1  0  0  0
 26  1  1  0  0  0
  1  2  2  0  0  0
  2  3  1  0  0  0
  3  4  2  0  0  0
  4  5  1  0  0  0
  5  7  1  0  0  0
  7  8  2  0  0  0
  8  9  1  0  0  0
  9 10  2  0  0  0
 10 11  1  0  0  0
 11 13  1  0  0  0
 13 14  1  0  0  0
 14 15  1  0  0  0
 15 16  2  0  0  0
 16 17  1  0  0  0
 17 18  2  0  0  0
 18 21  1  0  0  0
 21 22  1  0  0  0
 22 23  1  0  0  0
 22 24  1  0  0  0
 22 25  1  0  0  0
 18 19  1  0  0  0
 19 20  2  0  0  0
 11 12  2  0  0  0
  5  6  2  0  0  0
 30 31  2  0  0  0
 31 32  1  0  0  0
 32 33  2  0  0  0
 33 34  1  0  0  0
 33 28  1  0  0  0
  6  1  1  0  0  0
 12  7  1  0  0  0
 20 15  1  0  0  0
 38 39  1  0  0  0
 34 35  1  0  0  0
M  END
> <Activity>
3.2

> <minimizedAffinity>
-10.54091

$$$$
HIPS7002


 39 42  0  0  0  0  0  0  0  0999 V2000
   67.7031   77.4844   87.9575 C   0  0  0  0  0  0  0  0  0  0  0  0
   68.3385   78.5344   87.2778 C   0  0  0  0  0  0  0  0  0  0  0  0
   69.1723   79.4155   87.9688 C   0  0  0  0  0  0  0  0  0  0  0  0
   69.3866   79.2526   89.3396 C   0  0  0  0  0  0  0  0  0  0  0  0
   68.7716   78.1971   90.0353 C   0  0  0  0  0  0  0  0  0  0  0  0
   67.9322   77.3139   89.3322 C   0  0  0  0  0  0  0  0  0  0  0  0
   69.0023   78.0183   91.4905 C   0  0  0  0  0  0  0  0  0  0  0  0
   69.7811   76.9482   91.9634 C   0  0  0  0  0  0  0  0  0  0  0  0
   70.0019   76.7869   93.3326 C   0  0  0  0  0  0  0  0  0  0  0  0
   69.4452   77.6845   94.2457 C   0  0  0  0  0  0  0  0  0  0  0  0
   68.6526   78.7554   93.7923 C   0  0  0  0  0  0  0  0  0  0  0  0
   68.4447   78.9177   92.4172 C   0  0  0  0  0  0  0  0  0  0  0  0
   68.0512   79.6757   94.6663 O   0  0  0  0  0  0  0  0  0  0  0  0
   68.7189   80.7649   95.3052 C   0  0  0  0  0  0  0  0  0  0  0  0
   67.7291   81.7252   95.9119 C   0  0  0  0  0  0  0  0  0  0  0  0
   67.5480   81.7710   97.3023 C   0  0  0  0  0  0  0  0  0  0  0  0
   66.6300   82.6612   97.8676 C   0  0  0  0  0  0  0  0  0  0  0  0
   65.8667   83.5120   97.0452 C   0  0  0  0  0  0  0  0  0  0  0  0
   66.0335   83.4456   95.6571 C   0  0  0  0  0  0  0  0  0  0  0  0
   66.9527   82.5573   95.0920 C   0  0  0  0  0  0  0  0  0  0  0  0
   64.9378   84.4317   97.5577 O   0  0  0  0  0  0  0  0  0  0  0  0
   63.5432   84.4475   97.2589 C   0  0  0  0  0  0  0  0  0  0  0  0
   62.8381   85.0246   98.3004 F   0  0  0  0  0  0  0  0  0  0  0  0
   63.0891   83.1596   97.0376 F   0  0  0  0  0  0  0  0  0  0  0  0
   63.3381   85.1943   96.1154 F   0  0  0  0  0  0  0  0  0  0  0  0
   66.7876   76.5389   87.2254 C   0  0  0  0  0  0  0  0  0  0  0  0
   65.4901   76.5303   87.8225 O   0  0  0  0  0  0  0  0  0  0  0  0
   63.3100   74.8007   90.2744 C   0  0  0  0  0  0  0  0  0  0  0  0
   63.7540   75.5582   89.1744 C   0  0  0  0  0  0  0  0  0  0  0  0
   65.1172   75.7681   88.9420 C   0  0  0  0  0  0  0  0  0  0  0  0
   66.0558   75.2208   89.8328 C   0  0  0  0  0  0  0  0  0  0  0  0
   65.6308   74.4524   90.9169 C   0  0  0  0  0  0  0  0  0  0  0  0
   64.2700   74.2136   91.1347 C   0  0  0  0  0  0  0  0  0  0  0  0
   63.9191   73.3649   92.1866 O   0  0  0  0  0  0  0  0  0  0  0  0
   64.5850   72.9965   92.7334 H   0  0  0  0  0  0  0  0  0  0  0  0
   61.4274   74.2576   91.6183 O   0  0  0  0  0  0  0  0  0  0  0  0
   61.8541   74.6768   90.5088 C   0  0  0  0  0  0  0  0  0  0  0  0
   60.9456   74.9607   89.4942 O   0  0  0  0  0  0  0  0  0  0  0  0
   61.2514   75.2729   88.6654 H   0  0  0  0  0  0  0  0  0  0  0  0
 36 37  2  0  0  0
 37 38  1  0  0  0
 37 28  1  0  0  0
 28 29  2  0  0  0
 29 30  1  0  0  0
 30 27  1  0  0  0
 27 26  1  0  0  0
 26  1  1  0  0  0
  1  2  2  0  0  0
  2  3  1  0  0  0
  3  4  2  0  0  0
  4  5  1  0  0  0
  5  7  1  0  0  0
  7  8  2  0  0  0
  8  9  1  0  0  0
  9 10  2  0  0  0
 10 11  1  0  0  0
 11 13  1  0  0  0
 13 14  1  0  0  0
 14 15  1  0  0  0
 15 16  2  0  0  0
 16 17  1  0  0  0
 17 18  2  0  0  0
 18 21  1  0  0  0
 21 22  1  0  0  0
 22 23  1  0  0  0
 22 24  1  0  0  0
 22 25  1  0  0  0
 18 19  1  0  0  0
 19 20  2  0  0  0
 11 12  2  0  0  0
  5  6  2  0  0  0
 30 31  2  0  0  0
 31 32  1  0  0  0
 32 33  2  0  0  0
 33 34  1  0  0  0
 33 28  1  0  0  0
  6  1  1  0  0  0
 12  7  1  0  0  0
 20 15  1  0  0  0
 38 39  1  0  0  0
 34 35  1  0  0  0
M  END
> <Activity>
3.2

> <minimizedAffinity>
-10.50835

$$$$
HIPS7002


 39 42  0  0  0  0  0  0  0  0999 V2000
   68.7560   75.0369   91.2614 C   0  0  0  0  0  0  0  0  0  0  0  0
   70.0605   74.9320   91.7668 C   0  0  0  0  0  0  0  0  0  0  0  0
   71.0558   75.8077   91.3292 C   0  0  0  0  0  0  0  0  0  0  0  0
   70.7578   76.7999   90.3920 C   0  0  0  0  0  0  0  0  0  0  0  0
   69.4529   76.9313   89.8856 C   0  0  0  0  0  0  0  0  0  0  0  0
   68.4557   76.0446   90.3309 C   0  0  0  0  0  0  0  0  0  0  0  0
   69.1323   77.9883   88.8942 C   0  0  0  0  0  0  0  0  0  0  0  0
   68.0412   77.8403   88.0208 C   0  0  0  0  0  0  0  0  0  0  0  0
   67.7382   78.8398   87.0941 C   0  0  0  0  0  0  0  0  0  0  0  0
   68.5211   79.9935   87.0223 C   0  0  0  0  0  0  0  0  0  0  0  0
   69.6249   80.1546   87.8804 C   0  0  0  0  0  0  0  0  0  0  0  0
   69.9162   79.1536   88.8150 C   0  0  0  0  0  0  0  0  0  0  0  0
   70.4586   81.2842   87.8381 O   0  0  0  0  0  0  0  0  0  0  0  0
   71.2283   81.7834   88.9330 C   0  0  0  0  0  0  0  0  0  0  0  0
   72.6529   81.2988   88.8579 C   0  0  0  0  0  0  0  0  0  0  0  0
   72.9455   79.9346   89.0047 C   0  0  0  0  0  0  0  0  0  0  0  0
   74.2668   79.4827   88.9355 C   0  0  0  0  0  0  0  0  0  0  0  0
   75.3199   80.3949   88.7317 C   0  0  0  0  0  0  0  0  0  0  0  0
   75.0252   81.7578   88.6099 C   0  0  0  0  0  0  0  0  0  0  0  0
   73.7044   82.2095   88.6769 C   0  0  0  0  0  0  0  0  0  0  0  0
   76.6637   79.9972   88.6443 O   0  0  0  0  0  0  0  0  0  0  0  0
   77.1152   78.6923   88.2870 C   0  0  0  0  0  0  0  0  0  0  0  0
   77.8886   78.7516   87.1410 F   0  0  0  0  0  0  0  0  0  0  0  0
   76.0340   77.8533   88.0842 F   0  0  0  0  0  0  0  0  0  0  0  0
   77.8840   78.1864   89.3168 F   0  0  0  0  0  0  0  0  0  0  0  0
   67.6790   74.0862   91.7131 C   0  0  0  0  0  0  0  0  0  0  0  0
   66.5194   74.8036   92.1381 O   0  0  0  0  0  0  0  0  0  0  0  0
   63.2074   75.3535   90.5618 C   0  0  0  0  0  0  0  0  0  0  0  0
   64.2364   74.8534   91.3817 C   0  0  0  0  0  0  0  0  0  0  0  0
   65.5424   75.3448   91.2860 C   0  0  0  0  0  0  0  0  0  0  0  0
   65.8296   76.3472   90.3443 C   0  0  0  0  0  0  0  0  0  0  0  0
   64.8157   76.8652   89.5381 C   0  0  0  0  0  0  0  0  0  0  0  0
   63.5021   76.3989   89.6528 C   0  0  0  0  0  0  0  0  0  0  0  0
   62.5214   77.0213   88.8776 O   0  0  0  0  0  0  0  0  0  0  0  0
   62.7577   77.7097   88.2875 H   0  0  0  0  0  0  0  0  0  0  0  0
   61.5494   74.0661   91.6750 O   0  0  0  0  0  0  0  0  0  0  0  0
   61.8634   74.7414   90.6580 C   0  0  0  0  0  0  0  0  0  0  0  0
   60.9574   74.8507   89.6081 O   0  0  0  0  0  0  0  0  0  0  0  0
   61.1801   75.3501   88.8472 H   0  0  0  0  0  0  0  0  0  0  0  0
 36 37  2  0  0  0
 37 38  1  0  0  0
 37 28  1  0  0  0
 28 29  2  0  0  0
 29 30  1  0  0  0
 30 27  1  0  0  0
 27 26  1  0  0  0
 26  1  1  0  0  0
  1  2  2  0  0  0
  2  3  1  0  0  0
  3  4  2  0  0  0
  4  5  1  0  0  0
  5  7  1  0  0  0
  7  8  2  0  0  0
  8  9  1  0  0  0
  9 10  2  0  0  0
 10 11  1  0  0  0
 11 13  1  0  0  0
 13 14  1  0  0  0
 14 15  1  0  0  0
 15 16  2  0  0  0
 16 17  1  0  0  0
 17 18  2  0  0  0
 18 21  1  0  0  0
 21 22  1  0  0  0
 22 23  1  0  0  0
 22 24  1  0  0  0
 22 25  1  0  0  0
 18 19  1  0  0  0
 19 20  2  0  0  0
 11 12  2  0  0  0
  5  6  2  0  0  0
 30 31  2  0  0  0
 31 32  1  0  0  0
 32 33  2  0  0  0
 33 34  1  0  0  0
 33 28  1  0  0  0
  6  1  1  0  0  0
 12  7  1  0  0  0
 20 15  1  0  0  0
 38 39  1  0  0  0
 34 35  1  0  0  0
M  END
> <Activity>
3.2

> <minimizedAffinity>
-10.42718

$$$$
HIPS7002


 39 42  0  0  0  0  0  0  0  0999 V2000
   66.9807   73.9771   91.5230 C   0  0  0  0  0  0  0  0  0  0  0  0
   68.0635   73.6944   92.3690 C   0  0  0  0  0  0  0  0  0  0  0  0
   69.2311   74.4561   92.2939 C   0  0  0  0  0  0  0  0  0  0  0  0
   69.3261   75.5102   91.3821 C   0  0  0  0  0  0  0  0  0  0  0  0
   68.2461   75.8192   90.5368 C   0  0  0  0  0  0  0  0  0  0  0  0
   67.0732   75.0467   90.6181 C   0  0  0  0  0  0  0  0  0  0  0  0
   68.3422   76.9424   89.5714 C   0  0  0  0  0  0  0  0  0  0  0  0
   67.3583   77.1208   88.5838 C   0  0  0  0  0  0  0  0  0  0  0  0
   67.4482   78.1826   87.6816 C   0  0  0  0  0  0  0  0  0  0  0  0
   68.5208   79.0739   87.7484 C   0  0  0  0  0  0  0  0  0  0  0  0
   69.5222   78.9048   88.7226 C   0  0  0  0  0  0  0  0  0  0  0  0
   69.4198   77.8446   89.6314 C   0  0  0  0  0  0  0  0  0  0  0  0
   70.6333   79.7581   88.8228 O   0  0  0  0  0  0  0  0  0  0  0  0
   71.9801   79.3369   89.0448 C   0  0  0  0  0  0  0  0  0  0  0  0
   72.9401   80.4867   88.8821 C   0  0  0  0  0  0  0  0  0  0  0  0
   74.3222   80.2525   88.8252 C   0  0  0  0  0  0  0  0  0  0  0  0
   75.2150   81.3178   88.6742 C   0  0  0  0  0  0  0  0  0  0  0  0
   74.7364   82.6395   88.5919 C   0  0  0  0  0  0  0  0  0  0  0  0
   73.3582   82.8702   88.6734 C   0  0  0  0  0  0  0  0  0  0  0  0
   72.4655   81.8053   88.8221 C   0  0  0  0  0  0  0  0  0  0  0  0
   75.5850   83.7464   88.4306 O   0  0  0  0  0  0  0  0  0  0  0  0
   75.8130   84.4381   87.2043 C   0  0  0  0  0  0  0  0  0  0  0  0
   74.6397   85.0219   86.7599 F   0  0  0  0  0  0  0  0  0  0  0  0
   76.2975   83.5640   86.2476 F   0  0  0  0  0  0  0  0  0  0  0  0
   76.7506   85.4298   87.4165 F   0  0  0  0  0  0  0  0  0  0  0  0
   65.7232   73.1506   91.5833 C   0  0  0  0  0  0  0  0  0  0  0  0
   64.5866   73.9798   91.8298 O   0  0  0  0  0  0  0  0  0  0  0  0
   62.3501   74.7706   88.9786 C   0  0  0  0  0  0  0  0  0  0  0  0
   63.0617   74.0715   89.9716 C   0  0  0  0  0  0  0  0  0  0  0  0
   63.9107   74.7391   90.8604 C   0  0  0  0  0  0  0  0  0  0  0  0
   64.0617   76.1315   90.7477 C   0  0  0  0  0  0  0  0  0  0  0  0
   63.3485   76.8396   89.7801 C   0  0  0  0  0  0  0  0  0  0  0  0
   62.4743   76.1799   88.9102 C   0  0  0  0  0  0  0  0  0  0  0  0
   61.7272   76.9594   88.0248 O   0  0  0  0  0  0  0  0  0  0  0  0
   61.8389   77.8896   88.0106 H   0  0  0  0  0  0  0  0  0  0  0  0
   60.2742   74.1466   88.0057 O   0  0  0  0  0  0  0  0  0  0  0  0
   61.5261   73.9997   88.0213 C   0  0  0  0  0  0  0  0  0  0  0  0
   62.1114   73.0642   87.1742 O   0  0  0  0  0  0  0  0  0  0  0  0
   63.0410   72.9465   87.1772 H   0  0  0  0  0  0  0  0  0  0  0  0
 36 37  2  0  0  0
 37 38  1  0  0  0
 37 28  1  0  0  0
 28 29  2  0  0  0
 29 30  1  0  0  0
 30 27  1  0  0  0
 27 26  1  0  0  0
 26  1  1  0  0  0
  1  2  2  0  0  0
  2  3  1  0  0  0
  3  4  2  0  0  0
  4  5  1  0  0  0
  5  7  1  0  0  0
  7  8  2  0  0  0
  8  9  1  0  0  0
  9 10  2  0  0  0
 10 11  1  0  0  0
 11 13  1  0  0  0
 13 14  1  0  0  0
 14 15  1  0  0  0
 15 16  2  0  0  0
 16 17  1  0  0  0
 17 18  2  0  0  0
 18 21  1  0  0  0
 21 22  1  0  0  0
 22 23  1  0  0  0
 22 24  1  0  0  0
 22 25  1  0  0  0
 18 19  1  0  0  0
 19 20  2  0  0  0
 11 12  2  0  0  0
  5  6  2  0  0  0
 30 31  2  0  0  0
 31 32  1  0  0  0
 32 33  2  0  0  0
 33 34  1  0  0  0
 33 28  1  0  0  0
  6  1  1  0  0  0
 12  7  1  0  0  0
 20 15  1  0  0  0
 38 39  1  0  0  0
 34 35  1  0  0  0
M  END
> <Activity>
3.2

> <minimizedAffinity>
-10.36428

$$$$
HIPS7002


 39 42  0  0  0  0  0  0  0  0999 V2000
   65.6500   76.1881   88.6704 C   0  0  0  0  0  0  0  0  0  0  0  0
   64.5362   75.4478   89.0941 C   0  0  0  0  0  0  0  0  0  0  0  0
   64.3688   75.1424   90.4461 C   0  0  0  0  0  0  0  0  0  0  0  0
   65.3041   75.5793   91.3872 C   0  0  0  0  0  0  0  0  0  0  0  0
   66.4185   76.3359   90.9845 C   0  0  0  0  0  0  0  0  0  0  0  0
   66.5806   76.6389   89.6203 C   0  0  0  0  0  0  0  0  0  0  0  0
   67.4106   76.8064   91.9831 C   0  0  0  0  0  0  0  0  0  0  0  0
   68.3646   75.9209   92.5132 C   0  0  0  0  0  0  0  0  0  0  0  0
   69.3009   76.3685   93.4473 C   0  0  0  0  0  0  0  0  0  0  0  0
   69.2938   77.6995   93.8684 C   0  0  0  0  0  0  0  0  0  0  0  0
   68.3387   78.5985   93.3581 C   0  0  0  0  0  0  0  0  0  0  0  0
   67.4100   78.1457   92.4131 C   0  0  0  0  0  0  0  0  0  0  0  0
   68.2720   79.9422   93.7612 O   0  0  0  0  0  0  0  0  0  0  0  0
   68.9397   80.4979   94.8952 C   0  0  0  0  0  0  0  0  0  0  0  0
   68.0063   81.3621   95.7026 C   0  0  0  0  0  0  0  0  0  0  0  0
   67.9512   81.2328   97.0985 C   0  0  0  0  0  0  0  0  0  0  0  0
   67.0857   82.0336   97.8499 C   0  0  0  0  0  0  0  0  0  0  0  0
   66.2495   82.9692   97.2112 C   0  0  0  0  0  0  0  0  0  0  0  0
   66.2907   83.0777   95.8164 C   0  0  0  0  0  0  0  0  0  0  0  0
   67.1572   82.2788   95.0653 C   0  0  0  0  0  0  0  0  0  0  0  0
   65.3683   83.8058   97.9151 O   0  0  0  0  0  0  0  0  0  0  0  0
   64.9804   85.1182   97.5134 C   0  0  0  0  0  0  0  0  0  0  0  0
   63.8089   85.0662   96.7787 F   0  0  0  0  0  0  0  0  0  0  0  0
   65.9841   85.7020   96.7611 F   0  0  0  0  0  0  0  0  0  0  0  0
   64.7648   85.8867   98.6405 F   0  0  0  0  0  0  0  0  0  0  0  0
   65.8498   76.5078   87.2124 C   0  0  0  0  0  0  0  0  0  0  0  0
   67.2378   76.6724   86.9182 O   0  0  0  0  0  0  0  0  0  0  0  0
   70.0329   78.4605   88.5755 C   0  0  0  0  0  0  0  0  0  0  0  0
   69.1825   77.4414   88.1070 C   0  0  0  0  0  0  0  0  0  0  0  0
   68.0395   77.7389   87.3579 C   0  0  0  0  0  0  0  0  0  0  0  0
   67.7325   79.0817   87.0810 C   0  0  0  0  0  0  0  0  0  0  0  0
   68.5763   80.1010   87.5233 C   0  0  0  0  0  0  0  0  0  0  0  0
   69.7371   79.8057   88.2455 C   0  0  0  0  0  0  0  0  0  0  0  0
   70.5810   80.8664   88.5815 O   0  0  0  0  0  0  0  0  0  0  0  0
   70.3490   81.7428   88.3447 H   0  0  0  0  0  0  0  0  0  0  0  0
   72.3471   78.4639   89.1139 O   0  0  0  0  0  0  0  0  0  0  0  0
   71.1852   78.0874   89.4258 C   0  0  0  0  0  0  0  0  0  0  0  0
   71.0109   77.2707   90.5383 O   0  0  0  0  0  0  0  0  0  0  0  0
   70.1518   76.9847   90.7796 H   0  0  0  0  0  0  0  0  0  0  0  0
 36 37  2  0  0  0
 37 38  1  0  0  0
 37 28  1  0  0  0
 28 29  2  0  0  0
 29 30  1  0  0  0
 30 27  1  0  0  0
 27 26  1  0  0  0
 26  1  1  0  0  0
  1  2  2  0  0  0
  2  3  1  0  0  0
  3  4  2  0  0  0
  4  5  1  0  0  0
  5  7  1  0  0  0
  7  8  2  0  0  0
  8  9  1  0  0  0
  9 10  2  0  0  0
 10 11  1  0  0  0
 11 13  1  0  0  0
 13 14  1  0  0  0
 14 15  1  0  0  0
 15 16  2  0  0  0
 16 17  1  0  0  0
 17 18  2  0  0  0
 18 21  1  0  0  0
 21 22  1  0  0  0
 22 23  1  0  0  0
 22 24  1  0  0  0
 22 25  1  0  0  0
 18 19  1  0  0  0
 19 20  2  0  0  0
 11 12  2  0  0  0
  5  6  2  0  0  0
 30 31  2  0  0  0
 31 32  1  0  0  0
 32 33  2  0  0  0
 33 34  1  0  0  0
 33 28  1  0  0  0
  6  1  1  0  0  0
 12  7  1  0  0  0
 20 15  1  0  0  0
 38 39  1  0  0  0
 34 35  1  0  0  0
M  END
> <Activity>
3.2

> <minimizedAffinity>
-10.24513

$$$$
HIPS7002


 39 42  0  0  0  0  0  0  0  0999 V2000
   64.5760   74.1766   91.2569 C   0  0  0  0  0  0  0  0  0  0  0  0
   64.9060   72.8273   91.0597 C   0  0  0  0  0  0  0  0  0  0  0  0
   66.2093   72.3823   91.2887 C   0  0  0  0  0  0  0  0  0  0  0  0
   67.1915   73.2753   91.7240 C   0  0  0  0  0  0  0  0  0  0  0  0
   66.8767   74.6279   91.9425 C   0  0  0  0  0  0  0  0  0  0  0  0
   65.5614   75.0688   91.7089 C   0  0  0  0  0  0  0  0  0  0  0  0
   67.9169   75.5775   92.4106 C   0  0  0  0  0  0  0  0  0  0  0  0
   69.2793   75.2434   92.3238 C   0  0  0  0  0  0  0  0  0  0  0  0
   70.2556   76.1419   92.7587 C   0  0  0  0  0  0  0  0  0  0  0  0
   69.8866   77.3790   93.2902 C   0  0  0  0  0  0  0  0  0  0  0  0
   68.5270   77.7268   93.3965 C   0  0  0  0  0  0  0  0  0  0  0  0
   67.5537   76.8257   92.9479 C   0  0  0  0  0  0  0  0  0  0  0  0
   68.0980   78.9480   93.9416 O   0  0  0  0  0  0  0  0  0  0  0  0
   68.9293   79.8794   94.6358 C   0  0  0  0  0  0  0  0  0  0  0  0
   68.1006   80.8783   95.4010 C   0  0  0  0  0  0  0  0  0  0  0  0
   67.3660   81.8596   94.7186 C   0  0  0  0  0  0  0  0  0  0  0  0
   66.5963   82.7876   95.4266 C   0  0  0  0  0  0  0  0  0  0  0  0
   66.5616   82.7555   96.8338 C   0  0  0  0  0  0  0  0  0  0  0  0
   67.3152   81.7897   97.5110 C   0  0  0  0  0  0  0  0  0  0  0  0
   68.0829   80.8607   96.8034 C   0  0  0  0  0  0  0  0  0  0  0  0
   65.7996   83.6555   97.5960 O   0  0  0  0  0  0  0  0  0  0  0  0
   65.5203   85.0076   97.2381 C   0  0  0  0  0  0  0  0  0  0  0  0
   64.5137   85.0525   96.2896 F   0  0  0  0  0  0  0  0  0  0  0  0
   66.6613   85.6150   96.7450 F   0  0  0  0  0  0  0  0  0  0  0  0
   65.1024   85.6919   98.3627 F   0  0  0  0  0  0  0  0  0  0  0  0
   63.1777   74.6709   90.9957 C   0  0  0  0  0  0  0  0  0  0  0  0
   63.1943   75.7733   90.0876 O   0  0  0  0  0  0  0  0  0  0  0  0
   66.2004   77.1604   88.4155 C   0  0  0  0  0  0  0  0  0  0  0  0
   65.0839   76.3588   88.7190 C   0  0  0  0  0  0  0  0  0  0  0  0
   64.2967   76.6101   89.8474 C   0  0  0  0  0  0  0  0  0  0  0  0
   64.6381   77.6760   90.6969 C   0  0  0  0  0  0  0  0  0  0  0  0
   65.7311   78.4901   90.3984 C   0  0  0  0  0  0  0  0  0  0  0  0
   66.5018   78.2615   89.2538 C   0  0  0  0  0  0  0  0  0  0  0  0
   67.5268   79.1660   88.9692 O   0  0  0  0  0  0  0  0  0  0  0  0
   67.6945   79.8820   89.5499 H   0  0  0  0  0  0  0  0  0  0  0  0
   68.2455   76.4805   87.4153 O   0  0  0  0  0  0  0  0  0  0  0  0
   67.0371   76.7987   87.2497 C   0  0  0  0  0  0  0  0  0  0  0  0
   66.5219   76.8641   85.9592 O   0  0  0  0  0  0  0  0  0  0  0  0
   65.6250   77.0996   85.8242 H   0  0  0  0  0  0  0  0  0  0  0  0
 36 37  2  0  0  0
 37 38  1  0  0  0
 37 28  1  0  0  0
 28 29  2  0  0  0
 29 30  1  0  0  0
 30 27  1  0  0  0
 27 26  1  0  0  0
 26  1  1  0  0  0
  1  2  2  0  0  0
  2  3  1  0  0  0
  3  4  2  0  0  0
  4  5  1  0  0  0
  5  7  1  0  0  0
  7  8  2  0  0  0
  8  9  1  0  0  0
  9 10  2  0  0  0
 10 11  1  0  0  0
 11 13  1  0  0  0
 13 14  1  0  0  0
 14 15  1  0  0  0
 15 16  2  0  0  0
 16 17  1  0  0  0
 17 18  2  0  0  0
 18 21  1  0  0  0
 21 22  1  0  0  0
 22 23  1  0  0  0
 22 24  1  0  0  0
 22 25  1  0  0  0
 18 19  1  0  0  0
 19 20  2  0  0  0
 11 12  2  0  0  0
  5  6  2  0  0  0
 30 31  2  0  0  0
 31 32  1  0  0  0
 32 33  2  0  0  0
 33 34  1  0  0  0
 33 28  1  0  0  0
  6  1  1  0  0  0
 12  7  1  0  0  0
 20 15  1  0  0  0
 38 39  1  0  0  0
 34 35  1  0  0  0
M  END
> <Activity>
3.2

> <minimizedAffinity>
-10.14754

$$$$
HIPS7002


 39 42  0  0  0  0  0  0  0  0999 V2000
   69.8266   80.5693   88.2693 C   0  0  0  0  0  0  0  0  0  0  0  0
   68.8604   80.5053   87.2541 C   0  0  0  0  0  0  0  0  0  0  0  0
   68.1532   79.3224   87.0311 C   0  0  0  0  0  0  0  0  0  0  0  0
   68.3963   78.1974   87.8228 C   0  0  0  0  0  0  0  0  0  0  0  0
   69.3491   78.2464   88.8553 C   0  0  0  0  0  0  0  0  0  0  0  0
   70.0581   79.4417   89.0733 C   0  0  0  0  0  0  0  0  0  0  0  0
   69.6050   77.0543   89.7016 C   0  0  0  0  0  0  0  0  0  0  0  0
   70.8667   76.8522   90.2870 C   0  0  0  0  0  0  0  0  0  0  0  0
   71.1019   75.7332   91.0883 C   0  0  0  0  0  0  0  0  0  0  0  0
   70.0869   74.8007   91.3103 C   0  0  0  0  0  0  0  0  0  0  0  0
   68.8205   74.9794   90.7230 C   0  0  0  0  0  0  0  0  0  0  0  0
   68.5881   76.1096   89.9299 C   0  0  0  0  0  0  0  0  0  0  0  0
   67.7697   74.0635   90.8951 O   0  0  0  0  0  0  0  0  0  0  0  0
   66.7920   74.1149   91.9352 C   0  0  0  0  0  0  0  0  0  0  0  0
   65.4050   74.2660   91.3667 C   0  0  0  0  0  0  0  0  0  0  0  0
   64.4940   73.2009   91.4297 C   0  0  0  0  0  0  0  0  0  0  0  0
   63.2063   73.3388   90.9028 C   0  0  0  0  0  0  0  0  0  0  0  0
   62.8148   74.5447   90.2901 C   0  0  0  0  0  0  0  0  0  0  0  0
   63.7351   75.5961   90.2082 C   0  0  0  0  0  0  0  0  0  0  0  0
   65.0216   75.4592   90.7368 C   0  0  0  0  0  0  0  0  0  0  0  0
   61.5328   74.7429   89.7528 O   0  0  0  0  0  0  0  0  0  0  0  0
   61.2201   74.7865   88.3619 C   0  0  0  0  0  0  0  0  0  0  0  0
   61.1087   76.0992   87.9383 F   0  0  0  0  0  0  0  0  0  0  0  0
   60.0383   74.1097   88.1181 F   0  0  0  0  0  0  0  0  0  0  0  0
   62.2368   74.1756   87.6544 F   0  0  0  0  0  0  0  0  0  0  0  0
   70.6078   81.8346   88.5068 C   0  0  0  0  0  0  0  0  0  0  0  0
   71.7559   81.5737   89.3155 O   0  0  0  0  0  0  0  0  0  0  0  0
   74.8164   83.3324   88.1766 C   0  0  0  0  0  0  0  0  0  0  0  0
   73.4943   83.0640   88.5784 C   0  0  0  0  0  0  0  0  0  0  0  0
   73.0892   81.7693   88.9189 C   0  0  0  0  0  0  0  0  0  0  0  0
   74.0197   80.7191   88.8452 C   0  0  0  0  0  0  0  0  0  0  0  0
   75.3381   80.9736   88.4664 C   0  0  0  0  0  0  0  0  0  0  0  0
   75.7551   82.2720   88.1558 C   0  0  0  0  0  0  0  0  0  0  0  0
   77.1075   82.4693   87.8695 O   0  0  0  0  0  0  0  0  0  0  0  0
   77.6968   81.7408   87.8658 H   0  0  0  0  0  0  0  0  0  0  0  0
   76.1067   85.3218   88.3277 O   0  0  0  0  0  0  0  0  0  0  0  0
   75.1646   84.7083   87.7575 C   0  0  0  0  0  0  0  0  0  0  0  0
   74.4227   85.3606   86.7781 O   0  0  0  0  0  0  0  0  0  0  0  0
   73.7202   84.9144   86.3476 H   0  0  0  0  0  0  0  0  0  0  0  0
 36 37  2  0  0  0
 37 38  1  0  0  0
 37 28  1  0  0  0
 28 29  2  0  0  0
 29 30  1  0  0  0
 30 27  1  0  0  0
 27 26  1  0  0  0
 26  1  1  0  0  0
  1  2  2  0  0  0
  2  3  1  0  0  0
  3  4  2  0  0  0
  4  5  1  0  0  0
  5  7  1  0  0  0
  7  8  2  0  0  0
  8  9  1  0  0  0
  9 10  2  0  0  0
 10 11  1  0  0  0
 11 13  1  0  0  0
 13 14  1  0  0  0
 14 15  1  0  0  0
 15 16  2  0  0  0
 16 17  1  0  0  0
 17 18  2  0  0  0
 18 21  1  0  0  0
 21 22  1  0  0  0
 22 23  1  0  0  0
 22 24  1  0  0  0
 22 25  1  0  0  0
 18 19  1  0  0  0
 19 20  2  0  0  0
 11 12  2  0  0  0
  5  6  2  0  0  0
 30 31  2  0  0  0
 31 32  1  0  0  0
 32 33  2  0  0  0
 33 34  1  0  0  0
 33 28  1  0  0  0
  6  1  1  0  0  0
 12  7  1  0  0  0
 20 15  1  0  0  0
 38 39  1  0  0  0
 34 35  1  0  0  0
M  END
> <Activity>
3.2

> <minimizedAffinity>
-10.06303

$$$$
HIPS7000


 38 41  0  0  0  0  0  0  0  0999 V2000
   64.2591   74.4741   91.3434 C   0  0  0  0  0  0  0  0  0  0  0  0
   64.0557   73.0913   91.2271 C   0  0  0  0  0  0  0  0  0  0  0  0
   65.1450   72.2184   91.2159 C   0  0  0  0  0  0  0  0  0  0  0  0
   66.4453   72.7164   91.3229 C   0  0  0  0  0  0  0  0  0  0  0  0
   66.6702   74.0991   91.4512 C   0  0  0  0  0  0  0  0  0  0  0  0
   65.5667   74.9713   91.4696 C   0  0  0  0  0  0  0  0  0  0  0  0
   68.0527   74.6296   91.5571 C   0  0  0  0  0  0  0  0  0  0  0  0
   69.0019   73.9963   92.3780 C   0  0  0  0  0  0  0  0  0  0  0  0
   70.3034   74.4946   92.4663 C   0  0  0  0  0  0  0  0  0  0  0  0
   70.6742   75.6234   91.7329 C   0  0  0  0  0  0  0  0  0  0  0  0
   69.7487   76.2683   90.9059 C   0  0  0  0  0  0  0  0  0  0  0  0
   68.4320   75.7740   90.8326 C   0  0  0  0  0  0  0  0  0  0  0  0
   70.1775   77.3891   90.1757 O   0  0  0  0  0  0  0  0  0  0  0  0
   71.1392   77.3666   89.1193 C   0  0  0  0  0  0  0  0  0  0  0  0
   71.8842   78.6738   89.0443 C   0  0  0  0  0  0  0  0  0  0  0  0
   71.1806   79.8759   88.8784 C   0  0  0  0  0  0  0  0  0  0  0  0
   71.8653   81.0929   88.8176 C   0  0  0  0  0  0  0  0  0  0  0  0
   73.2657   81.1292   88.9338 C   0  0  0  0  0  0  0  0  0  0  0  0
   73.9704   79.9198   89.0592 C   0  0  0  0  0  0  0  0  0  0  0  0
   73.2852   78.7030   89.1173 C   0  0  0  0  0  0  0  0  0  0  0  0
   74.0089   82.4367   88.8240 C   0  0  0  0  0  0  0  0  0  0  0  0
   74.3762   82.8981   90.0761 F   0  0  0  0  0  0  0  0  0  0  0  0
   75.1570   82.2828   88.0662 F   0  0  0  0  0  0  0  0  0  0  0  0
   73.1927   83.3745   88.2199 F   0  0  0  0  0  0  0  0  0  0  0  0
   63.0796   75.4107   91.3369 C   0  0  0  0  0  0  0  0  0  0  0  0
   63.2116   76.3833   90.2992 O   0  0  0  0  0  0  0  0  0  0  0  0
   66.3044   77.3194   88.3972 C   0  0  0  0  0  0  0  0  0  0  0  0
   65.1206   76.6489   88.7574 C   0  0  0  0  0  0  0  0  0  0  0  0
   64.4106   77.0087   89.9180 C   0  0  0  0  0  0  0  0  0  0  0  0
   64.9059   78.0321   90.7287 C   0  0  0  0  0  0  0  0  0  0  0  0
   66.0915   78.6884   90.3972 C   0  0  0  0  0  0  0  0  0  0  0  0
   66.8076   78.3318   89.2500 C   0  0  0  0  0  0  0  0  0  0  0  0
   68.0238   78.9769   89.0151 O   0  0  0  0  0  0  0  0  0  0  0  0
   68.3224   79.6422   89.6034 H   0  0  0  0  0  0  0  0  0  0  0  0
   68.1516   76.5608   87.1102 O   0  0  0  0  0  0  0  0  0  0  0  0
   66.9576   76.9658   87.1177 C   0  0  0  0  0  0  0  0  0  0  0  0
   66.2467   77.0151   85.9222 O   0  0  0  0  0  0  0  0  0  0  0  0
   65.3588   77.3145   85.9170 H   0  0  0  0  0  0  0  0  0  0  0  0
 35 36  2  0  0  0
 36 37  1  0  0  0
 36 27  1  0  0  0
 27 28  2  0  0  0
 28 29  1  0  0  0
 29 26  1  0  0  0
 26 25  1  0  0  0
 25  1  1  0  0  0
  1  2  2  0  0  0
  2  3  1  0  0  0
  3  4  2  0  0  0
  4  5  1  0  0  0
  5  7  1  0  0  0
  7  8  2  0  0  0
  8  9  1  0  0  0
  9 10  2  0  0  0
 10 11  1  0  0  0
 11 13  1  0  0  0
 13 14  1  0  0  0
 14 15  1  0  0  0
 15 16  2  0  0  0
 16 17  1  0  0  0
 17 18  2  0  0  0
 18 21  1  0  0  0
 21 22  1  0  0  0
 21 23  1  0  0  0
 21 24  1  0  0  0
 18 19  1  0  0  0
 19 20  2  0  0  0
 11 12  2  0  0  0
  5  6  2  0  0  0
 29 30  2  0  0  0
 30 31  1  0  0  0
 31 32  2  0  0  0
 32 33  1  0  0  0
 32 27  1  0  0  0
  6  1  1  0  0  0
 12  7  1  0  0  0
 20 15  1  0  0  0
 37 38  1  0  0  0
 33 34  1  0  0  0
M  END
> <Activity>
3.5

> <minimizedAffinity>
-10.43059

$$$$
HIPS7000


 38 41  0  0  0  0  0  0  0  0999 V2000
   69.9287   75.1376   90.6552 C   0  0  0  0  0  0  0  0  0  0  0  0
   70.6405   74.7340   91.7944 C   0  0  0  0  0  0  0  0  0  0  0  0
   69.9907   74.0531   92.8253 C   0  0  0  0  0  0  0  0  0  0  0  0
   68.6273   73.7669   92.7281 C   0  0  0  0  0  0  0  0  0  0  0  0
   67.8978   74.1535   91.5892 C   0  0  0  0  0  0  0  0  0  0  0  0
   68.5616   74.8323   90.5512 C   0  0  0  0  0  0  0  0  0  0  0  0
   66.4466   73.8564   91.4889 C   0  0  0  0  0  0  0  0  0  0  0  0
   65.9976   72.5398   91.2864 C   0  0  0  0  0  0  0  0  0  0  0  0
   64.6309   72.2653   91.2022 C   0  0  0  0  0  0  0  0  0  0  0  0
   63.6986   73.2973   91.3258 C   0  0  0  0  0  0  0  0  0  0  0  0
   64.1210   74.6147   91.5320 C   0  0  0  0  0  0  0  0  0  0  0  0
   65.5003   74.8912   91.5988 C   0  0  0  0  0  0  0  0  0  0  0  0
   63.1422   75.6131   91.6677 O   0  0  0  0  0  0  0  0  0  0  0  0
   63.1802   76.8961   91.0403 C   0  0  0  0  0  0  0  0  0  0  0  0
   64.2523   76.9447   89.9831 C   0  0  0  0  0  0  0  0  0  0  0  0
   65.3726   77.7711   90.1548 C   0  0  0  0  0  0  0  0  0  0  0  0
   66.3754   77.8134   89.1820 C   0  0  0  0  0  0  0  0  0  0  0  0
   66.2802   77.0199   88.0256 C   0  0  0  0  0  0  0  0  0  0  0  0
   65.1373   76.2238   87.8378 C   0  0  0  0  0  0  0  0  0  0  0  0
   64.1338   76.1841   88.8098 C   0  0  0  0  0  0  0  0  0  0  0  0
   67.3393   77.0977   86.9550 C   0  0  0  0  0  0  0  0  0  0  0  0
   66.7788   76.9415   85.6992 F   0  0  0  0  0  0  0  0  0  0  0  0
   67.9813   78.3235   86.9923 F   0  0  0  0  0  0  0  0  0  0  0  0
   68.2689   76.0958   87.1612 F   0  0  0  0  0  0  0  0  0  0  0  0
   70.6331   75.8874   89.5551 C   0  0  0  0  0  0  0  0  0  0  0  0
   69.9933   77.1401   89.3067 O   0  0  0  0  0  0  0  0  0  0  0  0
   72.6719   79.7444   88.9868 C   0  0  0  0  0  0  0  0  0  0  0  0
   72.0519   78.4963   89.1828 C   0  0  0  0  0  0  0  0  0  0  0  0
   70.6507   78.3709   89.1425 C   0  0  0  0  0  0  0  0  0  0  0  0
   69.8718   79.5094   88.9253 C   0  0  0  0  0  0  0  0  0  0  0  0
   70.4719   80.7571   88.7545 C   0  0  0  0  0  0  0  0  0  0  0  0
   71.8633   80.8920   88.8010 C   0  0  0  0  0  0  0  0  0  0  0  0
   72.3963   82.1785   88.6964 O   0  0  0  0  0  0  0  0  0  0  0  0
   71.8274   82.9129   88.5738 H   0  0  0  0  0  0  0  0  0  0  0  0
   74.7324   80.9071   88.7714 O   0  0  0  0  0  0  0  0  0  0  0  0
   74.1496   79.8023   88.9434 C   0  0  0  0  0  0  0  0  0  0  0  0
   74.9099   78.6557   89.1540 O   0  0  0  0  0  0  0  0  0  0  0  0
   74.4864   77.8299   89.2828 H   0  0  0  0  0  0  0  0  0  0  0  0
 35 36  2  0  0  0
 36 37  1  0  0  0
 36 27  1  0  0  0
 27 28  2  0  0  0
 28 29  1  0  0  0
 29 26  1  0  0  0
 26 25  1  0  0  0
 25  1  1  0  0  0
  1  2  2  0  0  0
  2  3  1  0  0  0
  3  4  2  0  0  0
  4  5  1  0  0  0
  5  7  1  0  0  0
  7  8  2  0  0  0
  8  9  1  0  0  0
  9 10  2  0  0  0
 10 11  1  0  0  0
 11 13  1  0  0  0
 13 14  1  0  0  0
 14 15  1  0  0  0
 15 16  2  0  0  0
 16 17  1  0  0  0
 17 18  2  0  0  0
 18 21  1  0  0  0
 21 22  1  0  0  0
 21 23  1  0  0  0
 21 24  1  0  0  0
 18 19  1  0  0  0
 19 20  2  0  0  0
 11 12  2  0  0  0
  5  6  2  0  0  0
 29 30  2  0  0  0
 30 31  1  0  0  0
 31 32  2  0  0  0
 32 33  1  0  0  0
 32 27  1  0  0  0
  6  1  1  0  0  0
 12  7  1  0  0  0
 20 15  1  0  0  0
 37 38  1  0  0  0
 33 34  1  0  0  0
M  END
> <Activity>
3.5

> <minimizedAffinity>
-10.29625

$$$$
HIPS7000


 38 41  0  0  0  0  0  0  0  0999 V2000
   69.9189   74.9083   90.8035 C   0  0  0  0  0  0  0  0  0  0  0  0
   70.5750   74.4914   91.9710 C   0  0  0  0  0  0  0  0  0  0  0  0
   69.8615   73.8619   92.9923 C   0  0  0  0  0  0  0  0  0  0  0  0
   68.4892   73.6405   92.8572 C   0  0  0  0  0  0  0  0  0  0  0  0
   67.8146   74.0412   91.6897 C   0  0  0  0  0  0  0  0  0  0  0  0
   68.5423   74.6678   90.6618 C   0  0  0  0  0  0  0  0  0  0  0  0
   66.3544   73.8131   91.5490 C   0  0  0  0  0  0  0  0  0  0  0  0
   65.8489   72.5188   91.3365 C   0  0  0  0  0  0  0  0  0  0  0  0
   64.4737   72.3093   91.2142 C   0  0  0  0  0  0  0  0  0  0  0  0
   63.5885   73.3849   91.3093 C   0  0  0  0  0  0  0  0  0  0  0  0
   64.0672   74.6813   91.5248 C   0  0  0  0  0  0  0  0  0  0  0  0
   65.4557   74.8921   91.6300 C   0  0  0  0  0  0  0  0  0  0  0  0
   63.1336   75.7256   91.6308 O   0  0  0  0  0  0  0  0  0  0  0  0
   63.2833   77.0269   91.0601 C   0  0  0  0  0  0  0  0  0  0  0  0
   64.3716   77.0338   90.0184 C   0  0  0  0  0  0  0  0  0  0  0  0
   64.2754   76.1992   88.8951 C   0  0  0  0  0  0  0  0  0  0  0  0
   65.2772   76.2080   87.9204 C   0  0  0  0  0  0  0  0  0  0  0  0
   66.3871   77.0612   88.0469 C   0  0  0  0  0  0  0  0  0  0  0  0
   66.5003   77.8663   89.1933 C   0  0  0  0  0  0  0  0  0  0  0  0
   65.4994   77.8550   90.1689 C   0  0  0  0  0  0  0  0  0  0  0  0
   67.4899   77.0396   87.0188 C   0  0  0  0  0  0  0  0  0  0  0  0
   68.2215   78.2138   87.0602 F   0  0  0  0  0  0  0  0  0  0  0  0
   68.3539   75.9836   87.2525 F   0  0  0  0  0  0  0  0  0  0  0  0
   66.9358   76.8983   85.7603 F   0  0  0  0  0  0  0  0  0  0  0  0
   70.6925   75.6027   89.7136 C   0  0  0  0  0  0  0  0  0  0  0  0
   70.1076   76.8691   89.4063 O   0  0  0  0  0  0  0  0  0  0  0  0
   70.9387   80.5068   89.0378 C   0  0  0  0  0  0  0  0  0  0  0  0
   70.1885   79.3277   89.2038 C   0  0  0  0  0  0  0  0  0  0  0  0
   70.8155   78.0678   89.2169 C   0  0  0  0  0  0  0  0  0  0  0  0
   72.1989   77.9945   89.0409 C   0  0  0  0  0  0  0  0  0  0  0  0
   72.9517   79.1534   88.8502 C   0  0  0  0  0  0  0  0  0  0  0  0
   72.3357   80.4089   88.8279 C   0  0  0  0  0  0  0  0  0  0  0  0
   73.1355   81.5217   88.5592 O   0  0  0  0  0  0  0  0  0  0  0  0
   74.0569   81.4152   88.4261 H   0  0  0  0  0  0  0  0  0  0  0  0
   69.5636   82.2300   88.1525 O   0  0  0  0  0  0  0  0  0  0  0  0
   70.2416   81.8086   89.1284 C   0  0  0  0  0  0  0  0  0  0  0  0
   70.2735   82.5487   90.3067 O   0  0  0  0  0  0  0  0  0  0  0  0
   70.7744   82.2442   91.0378 H   0  0  0  0  0  0  0  0  0  0  0  0
 35 36  2  0  0  0
 36 37  1  0  0  0
 36 27  1  0  0  0
 27 28  2  0  0  0
 28 29  1  0  0  0
 29 26  1  0  0  0
 26 25  1  0  0  0
 25  1  1  0  0  0
  1  2  2  0  0  0
  2  3  1  0  0  0
  3  4  2  0  0  0
  4  5  1  0  0  0
  5  7  1  0  0  0
  7  8  2  0  0  0
  8  9  1  0  0  0
  9 10  2  0  0  0
 10 11  1  0  0  0
 11 13  1  0  0  0
 13 14  1  0  0  0
 14 15  1  0  0  0
 15 16  2  0  0  0
 16 17  1  0  0  0
 17 18  2  0  0  0
 18 21  1  0  0  0
 21 22  1  0  0  0
 21 23  1  0  0  0
 21 24  1  0  0  0
 18 19  1  0  0  0
 19 20  2  0  0  0
 11 12  2  0  0  0
  5  6  2  0  0  0
 29 30  2  0  0  0
 30 31  1  0  0  0
 31 32  2  0  0  0
 32 33  1  0  0  0
 32 27  1  0  0  0
  6  1  1  0  0  0
 12  7  1  0  0  0
 20 15  1  0  0  0
 37 38  1  0  0  0
 33 34  1  0  0  0
M  END
> <Activity>
3.5

> <minimizedAffinity>
-9.86046

$$$$
HIPS7000


 38 41  0  0  0  0  0  0  0  0999 V2000
   69.7518   75.0700   90.8248 C   0  0  0  0  0  0  0  0  0  0  0  0
   70.2657   74.8135   92.1043 C   0  0  0  0  0  0  0  0  0  0  0  0
   69.4399   74.2951   93.1032 C   0  0  0  0  0  0  0  0  0  0  0  0
   68.0962   74.0260   92.8343 C   0  0  0  0  0  0  0  0  0  0  0  0
   67.5639   74.2661   91.5546 C   0  0  0  0  0  0  0  0  0  0  0  0
   68.4046   74.7811   90.5512 C   0  0  0  0  0  0  0  0  0  0  0  0
   66.1337   73.9874   91.2704 C   0  0  0  0  0  0  0  0  0  0  0  0
   65.5862   72.7187   91.5284 C   0  0  0  0  0  0  0  0  0  0  0  0
   64.2379   72.4655   91.2678 C   0  0  0  0  0  0  0  0  0  0  0  0
   63.4204   73.4745   90.7547 C   0  0  0  0  0  0  0  0  0  0  0  0
   63.9412   74.7461   90.4939 C   0  0  0  0  0  0  0  0  0  0  0  0
   65.3054   74.9935   90.7411 C   0  0  0  0  0  0  0  0  0  0  0  0
   63.0723   75.7308   89.9951 O   0  0  0  0  0  0  0  0  0  0  0  0
   63.4785   76.9679   89.4070 C   0  0  0  0  0  0  0  0  0  0  0  0
   64.6438   77.5607   90.1555 C   0  0  0  0  0  0  0  0  0  0  0  0
   65.9381   77.4782   89.6214 C   0  0  0  0  0  0  0  0  0  0  0  0
   67.0221   78.0346   90.3065 C   0  0  0  0  0  0  0  0  0  0  0  0
   66.8276   78.6940   91.5325 C   0  0  0  0  0  0  0  0  0  0  0  0
   65.5358   78.7394   92.0842 C   0  0  0  0  0  0  0  0  0  0  0  0
   64.4528   78.1805   91.3999 C   0  0  0  0  0  0  0  0  0  0  0  0
   68.0017   79.2557   92.2939 C   0  0  0  0  0  0  0  0  0  0  0  0
   68.6573   78.2558   92.9911 F   0  0  0  0  0  0  0  0  0  0  0  0
   68.9076   79.8444   91.4284 F   0  0  0  0  0  0  0  0  0  0  0  0
   67.5501   80.2073   93.1890 F   0  0  0  0  0  0  0  0  0  0  0  0
   70.6449   75.6460   89.7575 C   0  0  0  0  0  0  0  0  0  0  0  0
   70.0059   76.7413   89.0999 O   0  0  0  0  0  0  0  0  0  0  0  0
   72.4033   79.6220   88.9876 C   0  0  0  0  0  0  0  0  0  0  0  0
   71.9052   78.3166   89.1556 C   0  0  0  0  0  0  0  0  0  0  0  0
   70.5392   78.0344   88.9683 C   0  0  0  0  0  0  0  0  0  0  0  0
   69.6698   79.0740   88.6316 C   0  0  0  0  0  0  0  0  0  0  0  0
   70.1455   80.3773   88.4865 C   0  0  0  0  0  0  0  0  0  0  0  0
   71.5001   80.6680   88.6787 C   0  0  0  0  0  0  0  0  0  0  0  0
   71.8980   82.0037   88.5910 O   0  0  0  0  0  0  0  0  0  0  0  0
   71.2695   82.6672   88.3840 H   0  0  0  0  0  0  0  0  0  0  0  0
   74.3097   81.0088   89.2821 O   0  0  0  0  0  0  0  0  0  0  0  0
   73.8616   79.8441   89.1023 C   0  0  0  0  0  0  0  0  0  0  0  0
   74.7458   78.7696   89.0770 O   0  0  0  0  0  0  0  0  0  0  0  0
   74.4229   77.9001   88.9440 H   0  0  0  0  0  0  0  0  0  0  0  0
 35 36  2  0  0  0
 36 37  1  0  0  0
 36 27  1  0  0  0
 27 28  2  0  0  0
 28 29  1  0  0  0
 29 26  1  0  0  0
 26 25  1  0  0  0
 25  1  1  0  0  0
  1  2  2  0  0  0
  2  3  1  0  0  0
  3  4  2  0  0  0
  4  5  1  0  0  0
  5  7  1  0  0  0
  7  8  2  0  0  0
  8  9  1  0  0  0
  9 10  2  0  0  0
 10 11  1  0  0  0
 11 13  1  0  0  0
 13 14  1  0  0  0
 14 15  1  0  0  0
 15 16  2  0  0  0
 16 17  1  0  0  0
 17 18  2  0  0  0
 18 21  1  0  0  0
 21 22  1  0  0  0
 21 23  1  0  0  0
 21 24  1  0  0  0
 18 19  1  0  0  0
 19 20  2  0  0  0
 11 12  2  0  0  0
  5  6  2  0  0  0
 29 30  2  0  0  0
 30 31  1  0  0  0
 31 32  2  0  0  0
 32 33  1  0  0  0
 32 27  1  0  0  0
  6  1  1  0  0  0
 12  7  1  0  0  0
 20 15  1  0  0  0
 37 38  1  0  0  0
 33 34  1  0  0  0
M  END
> <Activity>
3.5

> <minimizedAffinity>
-9.68095

$$$$
HIPS7000


 38 41  0  0  0  0  0  0  0  0999 V2000
   64.0245   73.4399   91.5785 C   0  0  0  0  0  0  0  0  0  0  0  0
   64.0633   72.0932   91.1887 C   0  0  0  0  0  0  0  0  0  0  0  0
   65.2871   71.4616   90.9611 C   0  0  0  0  0  0  0  0  0  0  0  0
   66.4820   72.1662   91.1225 C   0  0  0  0  0  0  0  0  0  0  0  0
   66.4652   73.5145   91.5232 C   0  0  0  0  0  0  0  0  0  0  0  0
   65.2281   74.1415   91.7582 C   0  0  0  0  0  0  0  0  0  0  0  0
   67.7349   74.2662   91.6873 C   0  0  0  0  0  0  0  0  0  0  0  0
   68.7314   73.8057   92.5652 C   0  0  0  0  0  0  0  0  0  0  0  0
   69.9275   74.5122   92.7082 C   0  0  0  0  0  0  0  0  0  0  0  0
   70.1456   75.6795   91.9737 C   0  0  0  0  0  0  0  0  0  0  0  0
   69.1708   76.1552   91.0907 C   0  0  0  0  0  0  0  0  0  0  0  0
   67.9583   75.4503   90.9617 C   0  0  0  0  0  0  0  0  0  0  0  0
   69.4472   77.3240   90.3623 O   0  0  0  0  0  0  0  0  0  0  0  0
   70.1437   77.3737   89.1158 C   0  0  0  0  0  0  0  0  0  0  0  0
   71.0332   78.5876   89.0463 C   0  0  0  0  0  0  0  0  0  0  0  0
   72.4261   78.4445   89.1282 C   0  0  0  0  0  0  0  0  0  0  0  0
   73.2572   79.5660   89.0548 C   0  0  0  0  0  0  0  0  0  0  0  0
   72.7091   80.8493   88.8861 C   0  0  0  0  0  0  0  0  0  0  0  0
   71.3116   80.9932   88.8451 C   0  0  0  0  0  0  0  0  0  0  0  0
   70.4811   79.8716   88.9212 C   0  0  0  0  0  0  0  0  0  0  0  0
   73.6017   82.0641   88.8513 C   0  0  0  0  0  0  0  0  0  0  0  0
   72.9204   83.1585   88.3476 F   0  0  0  0  0  0  0  0  0  0  0  0
   74.0458   82.3796   90.1239 F   0  0  0  0  0  0  0  0  0  0  0  0
   74.6937   81.8031   88.0449 F   0  0  0  0  0  0  0  0  0  0  0  0
   62.6995   74.1192   91.8049 C   0  0  0  0  0  0  0  0  0  0  0  0
   62.5287   75.2100   90.8986 O   0  0  0  0  0  0  0  0  0  0  0  0
   65.2260   77.7725   90.4325 C   0  0  0  0  0  0  0  0  0  0  0  0
   64.1696   77.0500   91.0177 C   0  0  0  0  0  0  0  0  0  0  0  0
   63.5672   75.9737   90.3399 C   0  0  0  0  0  0  0  0  0  0  0  0
   64.0162   75.6384   89.0608 C   0  0  0  0  0  0  0  0  0  0  0  0
   65.0455   76.3620   88.4584 C   0  0  0  0  0  0  0  0  0  0  0  0
   65.6443   77.4380   89.1216 C   0  0  0  0  0  0  0  0  0  0  0  0
   66.6176   78.1663   88.4341 O   0  0  0  0  0  0  0  0  0  0  0  0
   66.8672   77.9127   87.5672 H   0  0  0  0  0  0  0  0  0  0  0  0
   65.2003   79.5739   91.9812 O   0  0  0  0  0  0  0  0  0  0  0  0
   65.8861   78.8312   91.2276 C   0  0  0  0  0  0  0  0  0  0  0  0
   67.2700   78.9775   91.2019 O   0  0  0  0  0  0  0  0  0  0  0  0
   67.7886   78.4305   90.6453 H   0  0  0  0  0  0  0  0  0  0  0  0
 35 36  2  0  0  0
 36 37  1  0  0  0
 36 27  1  0  0  0
 27 28  2  0  0  0
 28 29  1  0  0  0
 29 26  1  0  0  0
 26 25  1  0  0  0
 25  1  1  0  0  0
  1  2  2  0  0  0
  2  3  1  0  0  0
  3  4  2  0  0  0
  4  5  1  0  0  0
  5  7  1  0  0  0
  7  8  2  0  0  0
  8  9  1  0  0  0
  9 10  2  0  0  0
 10 11  1  0  0  0
 11 13  1  0  0  0
 13 14  1  0  0  0
 14 15  1  0  0  0
 15 16  2  0  0  0
 16 17  1  0  0  0
 17 18  2  0  0  0
 18 21  1  0  0  0
 21 22  1  0  0  0
 21 23  1  0  0  0
 21 24  1  0  0  0
 18 19  1  0  0  0
 19 20  2  0  0  0
 11 12  2  0  0  0
  5  6  2  0  0  0
 29 30  2  0  0  0
 30 31  1  0  0  0
 31 32  2  0  0  0
 32 33  1  0  0  0
 32 27  1  0  0  0
  6  1  1  0  0  0
 12  7  1  0  0  0
 20 15  1  0  0  0
 37 38  1  0  0  0
 33 34  1  0  0  0
M  END
> <Activity>
3.5

> <minimizedAffinity>
-9.55123

$$$$
HIPS7000


 38 41  0  0  0  0  0  0  0  0999 V2000
   64.5404   74.9588   90.2710 C   0  0  0  0  0  0  0  0  0  0  0  0
   63.9725   73.7771   90.7695 C   0  0  0  0  0  0  0  0  0  0  0  0
   64.7535   72.8693   91.4867 C   0  0  0  0  0  0  0  0  0  0  0  0
   66.1058   73.1329   91.7149 C   0  0  0  0  0  0  0  0  0  0  0  0
   66.6919   74.3173   91.2327 C   0  0  0  0  0  0  0  0  0  0  0  0
   65.8962   75.2307   90.5178 C   0  0  0  0  0  0  0  0  0  0  0  0
   68.1313   74.5942   91.4684 C   0  0  0  0  0  0  0  0  0  0  0  0
   68.9251   73.6897   92.1947 C   0  0  0  0  0  0  0  0  0  0  0  0
   70.2806   73.9512   92.4051 C   0  0  0  0  0  0  0  0  0  0  0  0
   70.8601   75.1118   91.8885 C   0  0  0  0  0  0  0  0  0  0  0  0
   70.0917   76.0248   91.1589 C   0  0  0  0  0  0  0  0  0  0  0  0
   68.7210   75.7671   90.9634 C   0  0  0  0  0  0  0  0  0  0  0  0
   70.7271   77.1676   90.6456 O   0  0  0  0  0  0  0  0  0  0  0  0
   71.1543   77.3363   89.2927 C   0  0  0  0  0  0  0  0  0  0  0  0
   71.9062   78.6309   89.1251 C   0  0  0  0  0  0  0  0  0  0  0  0
   71.2132   79.8133   88.8266 C   0  0  0  0  0  0  0  0  0  0  0  0
   71.9041   81.0195   88.6793 C   0  0  0  0  0  0  0  0  0  0  0  0
   73.2998   81.0654   88.8401 C   0  0  0  0  0  0  0  0  0  0  0  0
   73.9953   79.8719   89.0991 C   0  0  0  0  0  0  0  0  0  0  0  0
   73.3040   78.6658   89.2436 C   0  0  0  0  0  0  0  0  0  0  0  0
   74.0512   82.3570   88.6379 C   0  0  0  0  0  0  0  0  0  0  0  0
   73.2441   83.3035   88.0309 F   0  0  0  0  0  0  0  0  0  0  0  0
   74.4786   82.8677   89.8514 F   0  0  0  0  0  0  0  0  0  0  0  0
   75.1518   82.1221   87.8352 F   0  0  0  0  0  0  0  0  0  0  0  0
   63.6952   75.9248   89.4830 C   0  0  0  0  0  0  0  0  0  0  0  0
   63.9398   77.2686   89.9011 O   0  0  0  0  0  0  0  0  0  0  0  0
   66.8753   78.8261   91.6379 C   0  0  0  0  0  0  0  0  0  0  0  0
   65.5878   78.3008   91.4213 C   0  0  0  0  0  0  0  0  0  0  0  0
   65.2051   77.8246   90.1534 C   0  0  0  0  0  0  0  0  0  0  0  0
   66.1148   77.8974   89.0965 C   0  0  0  0  0  0  0  0  0  0  0  0
   67.3858   78.4388   89.2908 C   0  0  0  0  0  0  0  0  0  0  0  0
   67.7714   78.9217   90.5455 C   0  0  0  0  0  0  0  0  0  0  0  0
   69.0294   79.5180   90.6549 O   0  0  0  0  0  0  0  0  0  0  0  0
   69.5938   79.5616   89.9082 H   0  0  0  0  0  0  0  0  0  0  0  0
   67.3393   78.3521   93.9192 O   0  0  0  0  0  0  0  0  0  0  0  0
   67.2567   79.2230   93.0111 C   0  0  0  0  0  0  0  0  0  0  0  0
   67.5884   80.5434   93.3005 O   0  0  0  0  0  0  0  0  0  0  0  0
   67.5304   81.1981   92.6327 H   0  0  0  0  0  0  0  0  0  0  0  0
 35 36  2  0  0  0
 36 37  1  0  0  0
 36 27  1  0  0  0
 27 28  2  0  0  0
 28 29  1  0  0  0
 29 26  1  0  0  0
 26 25  1  0  0  0
 25  1  1  0  0  0
  1  2  2  0  0  0
  2  3  1  0  0  0
  3  4  2  0  0  0
  4  5  1  0  0  0
  5  7  1  0  0  0
  7  8  2  0  0  0
  8  9  1  0  0  0
  9 10  2  0  0  0
 10 11  1  0  0  0
 11 13  1  0  0  0
 13 14  1  0  0  0
 14 15  1  0  0  0
 15 16  2  0  0  0
 16 17  1  0  0  0
 17 18  2  0  0  0
 18 21  1  0  0  0
 21 22  1  0  0  0
 21 23  1  0  0  0
 21 24  1  0  0  0
 18 19  1  0  0  0
 19 20  2  0  0  0
 11 12  2  0  0  0
  5  6  2  0  0  0
 29 30  2  0  0  0
 30 31  1  0  0  0
 31 32  2  0  0  0
 32 33  1  0  0  0
 32 27  1  0  0  0
  6  1  1  0  0  0
 12  7  1  0  0  0
 20 15  1  0  0  0
 37 38  1  0  0  0
 33 34  1  0  0  0
M  END
> <Activity>
3.5

> <minimizedAffinity>
-9.52193

$$$$
HIPS7000


 38 41  0  0  0  0  0  0  0  0999 V2000
   69.7249   75.0011   90.8853 C   0  0  0  0  0  0  0  0  0  0  0  0
   70.2431   74.6793   92.1483 C   0  0  0  0  0  0  0  0  0  0  0  0
   69.4170   74.1244   93.1271 C   0  0  0  0  0  0  0  0  0  0  0  0
   68.0687   73.8833   92.8543 C   0  0  0  0  0  0  0  0  0  0  0  0
   67.5320   74.1889   91.5904 C   0  0  0  0  0  0  0  0  0  0  0  0
   68.3730   74.7406   90.6070 C   0  0  0  0  0  0  0  0  0  0  0  0
   66.0970   73.9401   91.3025 C   0  0  0  0  0  0  0  0  0  0  0  0
   65.5345   72.6691   91.5119 C   0  0  0  0  0  0  0  0  0  0  0  0
   64.1818   72.4436   91.2480 C   0  0  0  0  0  0  0  0  0  0  0  0
   63.3751   73.4828   90.7803 C   0  0  0  0  0  0  0  0  0  0  0  0
   63.9110   74.7573   90.5683 C   0  0  0  0  0  0  0  0  0  0  0  0
   65.2794   74.9772   90.8184 C   0  0  0  0  0  0  0  0  0  0  0  0
   63.0526   75.7723   90.1141 O   0  0  0  0  0  0  0  0  0  0  0  0
   63.4715   77.0009   89.5172 C   0  0  0  0  0  0  0  0  0  0  0  0
   64.6395   77.5896   90.2646 C   0  0  0  0  0  0  0  0  0  0  0  0
   64.4317   78.2614   91.4782 C   0  0  0  0  0  0  0  0  0  0  0  0
   65.5124   78.8014   92.1811 C   0  0  0  0  0  0  0  0  0  0  0  0
   66.8217   78.6680   91.6875 C   0  0  0  0  0  0  0  0  0  0  0  0
   67.0221   78.0298   90.4515 C   0  0  0  0  0  0  0  0  0  0  0  0
   65.9406   77.4924   89.7479 C   0  0  0  0  0  0  0  0  0  0  0  0
   67.9833   79.2883   92.4222 C   0  0  0  0  0  0  0  0  0  0  0  0
   68.9343   79.7539   91.5309 F   0  0  0  0  0  0  0  0  0  0  0  0
   67.5577   80.3541   93.1961 F   0  0  0  0  0  0  0  0  0  0  0  0
   68.5620   78.3384   93.2429 F   0  0  0  0  0  0  0  0  0  0  0  0
   70.6186   75.6160   89.8405 C   0  0  0  0  0  0  0  0  0  0  0  0
   69.8438   76.1962   88.7900 O   0  0  0  0  0  0  0  0  0  0  0  0
   68.5814   79.4980   87.5396 C   0  0  0  0  0  0  0  0  0  0  0  0
   68.6845   78.1101   87.7483 C   0  0  0  0  0  0  0  0  0  0  0  0
   69.7201   77.5723   88.5350 C   0  0  0  0  0  0  0  0  0  0  0  0
   70.6662   78.4333   89.0951 C   0  0  0  0  0  0  0  0  0  0  0  0
   70.5907   79.8089   88.8758 C   0  0  0  0  0  0  0  0  0  0  0  0
   69.5695   80.3510   88.0887 C   0  0  0  0  0  0  0  0  0  0  0  0
   69.5938   81.7263   87.8479 O   0  0  0  0  0  0  0  0  0  0  0  0
   70.2648   82.2571   88.2299 H   0  0  0  0  0  0  0  0  0  0  0  0
   66.9576   81.1605   87.0460 O   0  0  0  0  0  0  0  0  0  0  0  0
   67.4193   80.0166   86.7850 C   0  0  0  0  0  0  0  0  0  0  0  0
   66.8656   79.2794   85.7424 O   0  0  0  0  0  0  0  0  0  0  0  0
   67.2015   78.4283   85.5404 H   0  0  0  0  0  0  0  0  0  0  0  0
 35 36  2  0  0  0
 36 37  1  0  0  0
 36 27  1  0  0  0
 27 28  2  0  0  0
 28 29  1  0  0  0
 29 26  1  0  0  0
 26 25  1  0  0  0
 25  1  1  0  0  0
  1  2  2  0  0  0
  2  3  1  0  0  0
  3  4  2  0  0  0
  4  5  1  0  0  0
  5  7  1  0  0  0
  7  8  2  0  0  0
  8  9  1  0  0  0
  9 10  2  0  0  0
 10 11  1  0  0  0
 11 13  1  0  0  0
 13 14  1  0  0  0
 14 15  1  0  0  0
 15 16  2  0  0  0
 16 17  1  0  0  0
 17 18  2  0  0  0
 18 21  1  0  0  0
 21 22  1  0  0  0
 21 23  1  0  0  0
 21 24  1  0  0  0
 18 19  1  0  0  0
 19 20  2  0  0  0
 11 12  2  0  0  0
  5  6  2  0  0  0
 29 30  2  0  0  0
 30 31  1  0  0  0
 31 32  2  0  0  0
 32 33  1  0  0  0
 32 27  1  0  0  0
  6  1  1  0  0  0
 12  7  1  0  0  0
 20 15  1  0  0  0
 37 38  1  0  0  0
 33 34  1  0  0  0
M  END
> <Activity>
3.5

> <minimizedAffinity>
-9.47273

$$$$
HIPS7000


 38 41  0  0  0  0  0  0  0  0999 V2000
   67.3141   77.4148   87.7250 C   0  0  0  0  0  0  0  0  0  0  0  0
   67.8678   78.5102   87.0462 C   0  0  0  0  0  0  0  0  0  0  0  0
   68.7581   79.3650   87.6982 C   0  0  0  0  0  0  0  0  0  0  0  0
   69.1055   79.1338   89.0309 C   0  0  0  0  0  0  0  0  0  0  0  0
   68.5696   78.0347   89.7263 C   0  0  0  0  0  0  0  0  0  0  0  0
   67.6793   77.1734   89.0597 C   0  0  0  0  0  0  0  0  0  0  0  0
   68.9327   77.7929   91.1454 C   0  0  0  0  0  0  0  0  0  0  0  0
   69.8240   76.7624   91.4910 C   0  0  0  0  0  0  0  0  0  0  0  0
   70.1688   76.5459   92.8268 C   0  0  0  0  0  0  0  0  0  0  0  0
   69.6354   77.3574   93.8300 C   0  0  0  0  0  0  0  0  0  0  0  0
   68.7498   78.3918   93.5105 C   0  0  0  0  0  0  0  0  0  0  0  0
   68.3901   78.5966   92.1643 C   0  0  0  0  0  0  0  0  0  0  0  0
   68.2558   79.1905   94.5551 O   0  0  0  0  0  0  0  0  0  0  0  0
   68.9321   80.3118   95.1266 C   0  0  0  0  0  0  0  0  0  0  0  0
   67.9633   81.4250   95.4298 C   0  0  0  0  0  0  0  0  0  0  0  0
   67.1986   81.9919   94.3996 C   0  0  0  0  0  0  0  0  0  0  0  0
   66.2912   83.0186   94.6760 C   0  0  0  0  0  0  0  0  0  0  0  0
   66.1245   83.4875   95.9906 C   0  0  0  0  0  0  0  0  0  0  0  0
   66.9213   82.9452   97.0135 C   0  0  0  0  0  0  0  0  0  0  0  0
   67.8304   81.9205   96.7359 C   0  0  0  0  0  0  0  0  0  0  0  0
   65.1785   84.6247   96.2831 C   0  0  0  0  0  0  0  0  0  0  0  0
   65.8140   85.6158   97.0107 F   0  0  0  0  0  0  0  0  0  0  0  0
   64.7106   85.1847   95.1068 F   0  0  0  0  0  0  0  0  0  0  0  0
   64.1058   84.1477   97.0129 F   0  0  0  0  0  0  0  0  0  0  0  0
   66.3406   76.5073   87.0199 C   0  0  0  0  0  0  0  0  0  0  0  0
   65.0497   76.5810   87.6269 O   0  0  0  0  0  0  0  0  0  0  0  0
   65.1674   74.5968   90.8062 C   0  0  0  0  0  0  0  0  0  0  0  0
   65.5553   75.1443   89.5692 C   0  0  0  0  0  0  0  0  0  0  0  0
   64.6916   75.9926   88.8514 C   0  0  0  0  0  0  0  0  0  0  0  0
   63.4261   76.2726   89.3712 C   0  0  0  0  0  0  0  0  0  0  0  0
   63.0189   75.7166   90.5841 C   0  0  0  0  0  0  0  0  0  0  0  0
   63.8677   74.8662   91.3000 C   0  0  0  0  0  0  0  0  0  0  0  0
   63.3720   74.2849   92.4689 O   0  0  0  0  0  0  0  0  0  0  0  0
   62.5060   74.4889   92.7629 H   0  0  0  0  0  0  0  0  0  0  0  0
   66.3894   72.6015   91.2180 O   0  0  0  0  0  0  0  0  0  0  0  0
   66.1498   73.7903   91.5632 C   0  0  0  0  0  0  0  0  0  0  0  0
   66.8630   74.3506   92.6189 O   0  0  0  0  0  0  0  0  0  0  0  0
   66.6925   75.2332   92.8833 H   0  0  0  0  0  0  0  0  0  0  0  0
 35 36  2  0  0  0
 36 37  1  0  0  0
 36 27  1  0  0  0
 27 28  2  0  0  0
 28 29  1  0  0  0
 29 26  1  0  0  0
 26 25  1  0  0  0
 25  1  1  0  0  0
  1  2  2  0  0  0
  2  3  1  0  0  0
  3  4  2  0  0  0
  4  5  1  0  0  0
  5  7  1  0  0  0
  7  8  2  0  0  0
  8  9  1  0  0  0
  9 10  2  0  0  0
 10 11  1  0  0  0
 11 13  1  0  0  0
 13 14  1  0  0  0
 14 15  1  0  0  0
 15 16  2  0  0  0
 16 17  1  0  0  0
 17 18  2  0  0  0
 18 21  1  0  0  0
 21 22  1  0  0  0
 21 23  1  0  0  0
 21 24  1  0  0  0
 18 19  1  0  0  0
 19 20  2  0  0  0
 11 12  2  0  0  0
  5  6  2  0  0  0
 29 30  2  0  0  0
 30 31  1  0  0  0
 31 32  2  0  0  0
 32 33  1  0  0  0
 32 27  1  0  0  0
  6  1  1  0  0  0
 12  7  1  0  0  0
 20 15  1  0  0  0
 37 38  1  0  0  0
 33 34  1  0  0  0
M  END
> <Activity>
3.5

> <minimizedAffinity>
-9.39100

$$$$
HIPS7000


 38 41  0  0  0  0  0  0  0  0999 V2000
   64.8006   74.4696   90.7177 C   0  0  0  0  0  0  0  0  0  0  0  0
   63.4932   74.9770   90.7422 C   0  0  0  0  0  0  0  0  0  0  0  0
   63.2042   76.2059   90.1466 C   0  0  0  0  0  0  0  0  0  0  0  0
   64.2151   76.9377   89.5198 C   0  0  0  0  0  0  0  0  0  0  0  0
   65.5305   76.4415   89.4749 C   0  0  0  0  0  0  0  0  0  0  0  0
   65.8120   75.1986   90.0705 C   0  0  0  0  0  0  0  0  0  0  0  0
   66.6070   77.2228   88.8155 C   0  0  0  0  0  0  0  0  0  0  0  0
   66.4900   77.6083   87.4688 C   0  0  0  0  0  0  0  0  0  0  0  0
   67.5018   78.3511   86.8568 C   0  0  0  0  0  0  0  0  0  0  0  0
   68.6359   78.7232   87.5813 C   0  0  0  0  0  0  0  0  0  0  0  0
   68.7731   78.3551   88.9237 C   0  0  0  0  0  0  0  0  0  0  0  0
   67.7593   77.5908   89.5333 C   0  0  0  0  0  0  0  0  0  0  0  0
   69.9249   78.7700   89.6124 O   0  0  0  0  0  0  0  0  0  0  0  0
   71.2653   78.4172   89.2656 C   0  0  0  0  0  0  0  0  0  0  0  0
   72.1024   79.6489   89.0378 C   0  0  0  0  0  0  0  0  0  0  0  0
   73.5021   79.5631   89.0660 C   0  0  0  0  0  0  0  0  0  0  0  0
   74.2844   80.7004   88.8460 C   0  0  0  0  0  0  0  0  0  0  0  0
   73.6792   81.9413   88.5819 C   0  0  0  0  0  0  0  0  0  0  0  0
   72.2767   82.0318   88.5945 C   0  0  0  0  0  0  0  0  0  0  0  0
   71.4952   80.8946   88.8173 C   0  0  0  0  0  0  0  0  0  0  0  0
   74.5210   83.1774   88.3883 C   0  0  0  0  0  0  0  0  0  0  0  0
   75.4507   82.9842   87.3814 F   0  0  0  0  0  0  0  0  0  0  0  0
   73.7280   84.2582   88.0430 F   0  0  0  0  0  0  0  0  0  0  0  0
   75.1854   83.4642   89.5660 F   0  0  0  0  0  0  0  0  0  0  0  0
   65.1079   73.1513   91.3780 C   0  0  0  0  0  0  0  0  0  0  0  0
   66.5172   72.9225   91.4192 O   0  0  0  0  0  0  0  0  0  0  0  0
   69.6267   75.0170   91.4773 C   0  0  0  0  0  0  0  0  0  0  0  0
   68.6955   74.0355   91.0899 C   0  0  0  0  0  0  0  0  0  0  0  0
   67.4850   73.8715   91.7888 C   0  0  0  0  0  0  0  0  0  0  0  0
   67.2219   74.6842   92.8935 C   0  0  0  0  0  0  0  0  0  0  0  0
   68.1471   75.6442   93.3040 C   0  0  0  0  0  0  0  0  0  0  0  0
   69.3560   75.8084   92.6200 C   0  0  0  0  0  0  0  0  0  0  0  0
   70.2696   76.7354   93.1262 O   0  0  0  0  0  0  0  0  0  0  0  0
   70.0528   77.2404   93.8851 H   0  0  0  0  0  0  0  0  0  0  0  0
   70.7876   75.0193   89.4044 O   0  0  0  0  0  0  0  0  0  0  0  0
   70.8377   75.2105   90.6497 C   0  0  0  0  0  0  0  0  0  0  0  0
   72.0222   75.6640   91.2229 O   0  0  0  0  0  0  0  0  0  0  0  0
   72.0698   75.8092   92.1473 H   0  0  0  0  0  0  0  0  0  0  0  0
 35 36  2  0  0  0
 36 37  1  0  0  0
 36 27  1  0  0  0
 27 28  2  0  0  0
 28 29  1  0  0  0
 29 26  1  0  0  0
 26 25  1  0  0  0
 25  1  1  0  0  0
  1  2  2  0  0  0
  2  3  1  0  0  0
  3  4  2  0  0  0
  4  5  1  0  0  0
  5  7  1  0  0  0
  7  8  2  0  0  0
  8  9  1  0  0  0
  9 10  2  0  0  0
 10 11  1  0  0  0
 11 13  1  0  0  0
 13 14  1  0  0  0
 14 15  1  0  0  0
 15 16  2  0  0  0
 16 17  1  0  0  0
 17 18  2  0  0  0
 18 21  1  0  0  0
 21 22  1  0  0  0
 21 23  1  0  0  0
 21 24  1  0  0  0
 18 19  1  0  0  0
 19 20  2  0  0  0
 11 12  2  0  0  0
  5  6  2  0  0  0
 29 30  2  0  0  0
 30 31  1  0  0  0
 31 32  2  0  0  0
 32 33  1  0  0  0
 32 27  1  0  0  0
  6  1  1  0  0  0
 12  7  1  0  0  0
 20 15  1  0  0  0
 37 38  1  0  0  0
 33 34  1  0  0  0
M  END
> <Activity>
3.5

> <minimizedAffinity>
-9.35165

$$$$
HIPS7000


 38 41  0  0  0  0  0  0  0  0999 V2000
   65.0165   74.1828   90.6415 C   0  0  0  0  0  0  0  0  0  0  0  0
   63.6377   74.2967   90.4111 C   0  0  0  0  0  0  0  0  0  0  0  0
   63.1516   75.2405   89.5047 C   0  0  0  0  0  0  0  0  0  0  0  0
   64.0356   76.0764   88.8190 C   0  0  0  0  0  0  0  0  0  0  0  0
   65.4227   75.9707   89.0279 C   0  0  0  0  0  0  0  0  0  0  0  0
   65.9050   75.0118   89.9370 C   0  0  0  0  0  0  0  0  0  0  0  0
   66.3623   76.8644   88.3050 C   0  0  0  0  0  0  0  0  0  0  0  0
   66.2407   77.0604   86.9184 C   0  0  0  0  0  0  0  0  0  0  0  0
   67.1218   77.9095   86.2456 C   0  0  0  0  0  0  0  0  0  0  0  0
   68.1275   78.5768   86.9476 C   0  0  0  0  0  0  0  0  0  0  0  0
   68.2658   78.4012   88.3283 C   0  0  0  0  0  0  0  0  0  0  0  0
   67.3869   77.5306   89.0014 C   0  0  0  0  0  0  0  0  0  0  0  0
   69.2825   79.1096   88.9900 O   0  0  0  0  0  0  0  0  0  0  0  0
   70.6188   78.6438   89.1864 C   0  0  0  0  0  0  0  0  0  0  0  0
   71.6086   79.7669   89.0174 C   0  0  0  0  0  0  0  0  0  0  0  0
   71.1560   81.0774   88.8054 C   0  0  0  0  0  0  0  0  0  0  0  0
   72.0692   82.1253   88.6574 C   0  0  0  0  0  0  0  0  0  0  0  0
   73.4515   81.8814   88.7310 C   0  0  0  0  0  0  0  0  0  0  0  0
   73.9022   80.5614   88.9031 C   0  0  0  0  0  0  0  0  0  0  0  0
   72.9885   79.5138   89.0484 C   0  0  0  0  0  0  0  0  0  0  0  0
   74.4383   83.0033   88.5274 C   0  0  0  0  0  0  0  0  0  0  0  0
   73.8014   84.1352   88.0490 F   0  0  0  0  0  0  0  0  0  0  0  0
   75.0597   83.3288   89.7208 F   0  0  0  0  0  0  0  0  0  0  0  0
   75.3968   82.6058   87.6142 F   0  0  0  0  0  0  0  0  0  0  0  0
   65.5320   73.1741   91.6342 C   0  0  0  0  0  0  0  0  0  0  0  0
   66.2253   73.8231   92.7012 O   0  0  0  0  0  0  0  0  0  0  0  0
   68.6279   76.7000   92.5997 C   0  0  0  0  0  0  0  0  0  0  0  0
   67.4240   75.9807   92.7172 C   0  0  0  0  0  0  0  0  0  0  0  0
   67.4001   74.5817   92.5656 C   0  0  0  0  0  0  0  0  0  0  0  0
   68.5883   73.9086   92.2740 C   0  0  0  0  0  0  0  0  0  0  0  0
   69.7845   74.6117   92.1299 C   0  0  0  0  0  0  0  0  0  0  0  0
   69.8159   76.0029   92.2710 C   0  0  0  0  0  0  0  0  0  0  0  0
   71.0303   76.6532   92.0416 O   0  0  0  0  0  0  0  0  0  0  0  0
   71.7947   76.1559   91.8263 H   0  0  0  0  0  0  0  0  0  0  0  0
   68.8471   78.5886   94.0242 O   0  0  0  0  0  0  0  0  0  0  0  0
   68.6120   78.1556   92.8636 C   0  0  0  0  0  0  0  0  0  0  0  0
   68.4017   79.0610   91.8276 O   0  0  0  0  0  0  0  0  0  0  0  0
   68.2263   78.7495   90.9615 H   0  0  0  0  0  0  0  0  0  0  0  0
 35 36  2  0  0  0
 36 37  1  0  0  0
 36 27  1  0  0  0
 27 28  2  0  0  0
 28 29  1  0  0  0
 29 26  1  0  0  0
 26 25  1  0  0  0
 25  1  1  0  0  0
  1  2  2  0  0  0
  2  3  1  0  0  0
  3  4  2  0  0  0
  4  5  1  0  0  0
  5  7  1  0  0  0
  7  8  2  0  0  0
  8  9  1  0  0  0
  9 10  2  0  0  0
 10 11  1  0  0  0
 11 13  1  0  0  0
 13 14  1  0  0  0
 14 15  1  0  0  0
 15 16  2  0  0  0
 16 17  1  0  0  0
 17 18  2  0  0  0
 18 21  1  0  0  0
 21 22  1  0  0  0
 21 23  1  0  0  0
 21 24  1  0  0  0
 18 19  1  0  0  0
 19 20  2  0  0  0
 11 12  2  0  0  0
  5  6  2  0  0  0
 29 30  2  0  0  0
 30 31  1  0  0  0
 31 32  2  0  0  0
 32 33  1  0  0  0
 32 27  1  0  0  0
  6  1  1  0  0  0
 12  7  1  0  0  0
 20 15  1  0  0  0
 37 38  1  0  0  0
 33 34  1  0  0  0
M  END
> <Activity>
3.5

> <minimizedAffinity>
-9.19995

$$$$
HIPS6994


 34 37  0  0  0  0  0  0  0  0999 V2000
   68.2808   75.8131   90.4952 C   0  0  0  0  0  0  0  0  0  0  0  0
   69.3253   75.6629   91.4235 C   0  0  0  0  0  0  0  0  0  0  0  0
   69.2495   74.6891   92.4220 C   0  0  0  0  0  0  0  0  0  0  0  0
   68.1349   73.8516   92.5034 C   0  0  0  0  0  0  0  0  0  0  0  0
   67.0767   73.9954   91.5943 C   0  0  0  0  0  0  0  0  0  0  0  0
   67.1561   74.9744   90.5911 C   0  0  0  0  0  0  0  0  0  0  0  0
   69.0359   79.0360   88.6366 C   0  0  0  0  0  0  0  0  0  0  0  0
   68.4933   78.7586   87.3785 C   0  0  0  0  0  0  0  0  0  0  0  0
   67.9058   77.5170   87.1291 C   0  0  0  0  0  0  0  0  0  0  0  0
   67.8479   76.5516   88.1380 C   0  0  0  0  0  0  0  0  0  0  0  0
   68.3730   76.8241   89.4142 C   0  0  0  0  0  0  0  0  0  0  0  0
   68.9710   78.0751   89.6537 C   0  0  0  0  0  0  0  0  0  0  0  0
   69.6380   80.2733   88.8752 O   0  0  0  0  0  0  0  0  0  0  0  0
   75.2684   81.2562   88.7367 C   0  0  0  0  0  0  0  0  0  0  0  0
   73.7961   80.9772   88.7772 C   0  0  0  0  0  0  0  0  0  0  0  0
   72.8830   82.0395   88.7812 C   0  0  0  0  0  0  0  0  0  0  0  0
   71.5088   81.7906   88.8261 C   0  0  0  0  0  0  0  0  0  0  0  0
   71.0260   80.4774   88.8669 C   0  0  0  0  0  0  0  0  0  0  0  0
   71.9430   79.4099   88.8758 C   0  0  0  0  0  0  0  0  0  0  0  0
   73.3178   79.6585   88.8328 C   0  0  0  0  0  0  0  0  0  0  0  0
   65.8955   73.0701   91.6445 C   0  0  0  0  0  0  0  0  0  0  0  0
   64.7194   73.8285   91.9143 O   0  0  0  0  0  0  0  0  0  0  0  0
   64.0111   74.5704   90.9575 C   0  0  0  0  0  0  0  0  0  0  0  0
   64.1464   75.9602   90.9671 C   0  0  0  0  0  0  0  0  0  0  0  0
   63.4620   76.7451   90.0409 C   0  0  0  0  0  0  0  0  0  0  0  0
   62.6314   76.1514   89.0822 C   0  0  0  0  0  0  0  0  0  0  0  0
   61.9594   76.9611   88.1673 O   0  0  0  0  0  0  0  0  0  0  0  0
   62.4835   74.7452   89.0514 C   0  0  0  0  0  0  0  0  0  0  0  0
   63.1783   73.9664   89.9974 C   0  0  0  0  0  0  0  0  0  0  0  0
   62.0659   77.8915   88.1985 H   0  0  0  0  0  0  0  0  0  0  0  0
   61.6204   74.0691   88.0489 C   0  0  0  0  0  0  0  0  0  0  0  0
   60.3926   74.3398   87.9635 O   0  0  0  0  0  0  0  0  0  0  0  0
   62.1618   73.1209   87.1847 O   0  0  0  0  0  0  0  0  0  0  0  0
   63.0729   72.9077   87.2346 H   0  0  0  0  0  0  0  0  0  0  0  0
 14 15  1  0  0  0
 15 16  2  0  0  0
 16 17  1  0  0  0
 17 18  2  0  0  0
 18 13  1  0  0  0
 13  7  1  0  0  0
  7  8  2  0  0  0
  8  9  1  0  0  0
  9 10  2  0  0  0
 10 11  1  0  0  0
 11  1  1  0  0  0
  1  2  2  0  0  0
  2  3  1  0  0  0
  3  4  2  0  0  0
  4  5  1  0  0  0
  5 21  1  0  0  0
 21 22  1  0  0  0
 22 23  1  0  0  0
 23 24  2  0  0  0
 24 25  1  0  0  0
 25 26  2  0  0  0
 26 27  1  0  0  0
 26 28  1  0  0  0
 28 31  1  0  0  0
 31 32  2  0  0  0
 31 33  1  0  0  0
 28 29  2  0  0  0
  5  6  2  0  0  0
 11 12  2  0  0  0
 18 19  1  0  0  0
 19 20  2  0  0  0
 20 15  1  0  0  0
 12  7  1  0  0  0
  6  1  1  0  0  0
 29 23  1  0  0  0
 27 30  1  0  0  0
 33 34  1  0  0  0
M  END
> <Activity>
4.7

> <minimizedAffinity>
-10.47143

$$$$
HIPS6994


 34 37  0  0  0  0  0  0  0  0999 V2000
   69.9047   77.5371   89.1827 C   0  0  0  0  0  0  0  0  0  0  0  0
   68.9239   77.0087   88.3262 C   0  0  0  0  0  0  0  0  0  0  0  0
   68.3179   75.7838   88.6154 C   0  0  0  0  0  0  0  0  0  0  0  0
   68.6791   75.0748   89.7631 C   0  0  0  0  0  0  0  0  0  0  0  0
   69.6656   75.5797   90.6227 C   0  0  0  0  0  0  0  0  0  0  0  0
   70.2722   76.8116   90.3301 C   0  0  0  0  0  0  0  0  0  0  0  0
   72.4844   80.3018   88.8459 C   0  0  0  0  0  0  0  0  0  0  0  0
   71.6895   81.3641   88.4057 C   0  0  0  0  0  0  0  0  0  0  0  0
   70.3225   81.1738   88.1956 C   0  0  0  0  0  0  0  0  0  0  0  0
   69.7419   79.9252   88.4346 C   0  0  0  0  0  0  0  0  0  0  0  0
   70.5264   78.8526   88.8958 C   0  0  0  0  0  0  0  0  0  0  0  0
   71.9049   79.0514   89.0964 C   0  0  0  0  0  0  0  0  0  0  0  0
   73.8544   80.4932   89.0376 O   0  0  0  0  0  0  0  0  0  0  0  0
   76.4851   85.2978   87.3998 C   0  0  0  0  0  0  0  0  0  0  0  0
   75.8141   84.0269   87.8258 C   0  0  0  0  0  0  0  0  0  0  0  0
   74.5443   84.0703   88.4157 C   0  0  0  0  0  0  0  0  0  0  0  0
   73.9130   82.8922   88.8230 C   0  0  0  0  0  0  0  0  0  0  0  0
   74.5399   81.6532   88.6466 C   0  0  0  0  0  0  0  0  0  0  0  0
   75.8210   81.6097   88.0657 C   0  0  0  0  0  0  0  0  0  0  0  0
   76.4536   82.7882   87.6598 C   0  0  0  0  0  0  0  0  0  0  0  0
   70.0279   74.8483   91.8827 C   0  0  0  0  0  0  0  0  0  0  0  0
   69.2546   75.3661   92.9620 O   0  0  0  0  0  0  0  0  0  0  0  0
   68.7431   76.6708   93.0236 C   0  0  0  0  0  0  0  0  0  0  0  0
   69.3654   77.5842   93.8770 C   0  0  0  0  0  0  0  0  0  0  0  0
   68.8952   78.8922   93.9791 C   0  0  0  0  0  0  0  0  0  0  0  0
   67.7938   79.3126   93.2229 C   0  0  0  0  0  0  0  0  0  0  0  0
   67.3454   80.6273   93.3445 O   0  0  0  0  0  0  0  0  0  0  0  0
   67.1515   78.4053   92.3488 C   0  0  0  0  0  0  0  0  0  0  0  0
   67.6358   77.0855   92.2607 C   0  0  0  0  0  0  0  0  0  0  0  0
   67.7800   81.2185   93.9273 H   0  0  0  0  0  0  0  0  0  0  0  0
   65.9850   78.8064   91.5207 C   0  0  0  0  0  0  0  0  0  0  0  0
   66.0824   78.9024   90.2680 O   0  0  0  0  0  0  0  0  0  0  0  0
   64.7605   79.0829   92.1233 O   0  0  0  0  0  0  0  0  0  0  0  0
   64.6706   79.0164   93.0536 H   0  0  0  0  0  0  0  0  0  0  0  0
 14 15  1  0  0  0
 15 16  2  0  0  0
 16 17  1  0  0  0
 17 18  2  0  0  0
 18 13  1  0  0  0
 13  7  1  0  0  0
  7  8  2  0  0  0
  8  9  1  0  0  0
  9 10  2  0  0  0
 10 11  1  0  0  0
 11  1  1  0  0  0
  1  2  2  0  0  0
  2  3  1  0  0  0
  3  4  2  0  0  0
  4  5  1  0  0  0
  5 21  1  0  0  0
 21 22  1  0  0  0
 22 23  1  0  0  0
 23 24  2  0  0  0
 24 25  1  0  0  0
 25 26  2  0  0  0
 26 27  1  0  0  0
 26 28  1  0  0  0
 28 31  1  0  0  0
 31 32  2  0  0  0
 31 33  1  0  0  0
 28 29  2  0  0  0
  5  6  2  0  0  0
 11 12  2  0  0  0
 18 19  1  0  0  0
 19 20  2  0  0  0
 20 15  1  0  0  0
 12  7  1  0  0  0
  6  1  1  0  0  0
 29 23  1  0  0  0
 27 30  1  0  0  0
 33 34  1  0  0  0
M  END
> <Activity>
4.7

> <minimizedAffinity>
-10.17649

$$$$
HIPS6994


 34 37  0  0  0  0  0  0  0  0999 V2000
   70.3460   77.7616   89.3204 C   0  0  0  0  0  0  0  0  0  0  0  0
   71.0567   76.7958   90.0533 C   0  0  0  0  0  0  0  0  0  0  0  0
   70.5060   75.5318   90.2779 C   0  0  0  0  0  0  0  0  0  0  0  0
   69.2439   75.2152   89.7709 C   0  0  0  0  0  0  0  0  0  0  0  0
   68.5140   76.1704   89.0486 C   0  0  0  0  0  0  0  0  0  0  0  0
   69.0703   77.4396   88.8235 C   0  0  0  0  0  0  0  0  0  0  0  0
   72.8926   80.5419   88.8775 C   0  0  0  0  0  0  0  0  0  0  0  0
   72.0614   81.6312   88.6007 C   0  0  0  0  0  0  0  0  0  0  0  0
   70.6780   81.4557   88.5340 C   0  0  0  0  0  0  0  0  0  0  0  0
   70.1184   80.1941   88.7542 C   0  0  0  0  0  0  0  0  0  0  0  0
   70.9415   79.0931   89.0524 C   0  0  0  0  0  0  0  0  0  0  0  0
   72.3353   79.2778   89.1089 C   0  0  0  0  0  0  0  0  0  0  0  0
   74.2769   80.7199   88.9257 O   0  0  0  0  0  0  0  0  0  0  0  0
   76.7539   85.5709   87.1881 C   0  0  0  0  0  0  0  0  0  0  0  0
   76.1231   84.2880   87.6390 C   0  0  0  0  0  0  0  0  0  0  0  0
   74.8918   84.3111   88.3066 C   0  0  0  0  0  0  0  0  0  0  0  0
   74.2984   83.1217   88.7375 C   0  0  0  0  0  0  0  0  0  0  0  0
   74.9255   81.8916   88.5075 C   0  0  0  0  0  0  0  0  0  0  0  0
   76.1686   81.8684   87.8483 C   0  0  0  0  0  0  0  0  0  0  0  0
   76.7633   83.0582   87.4187 C   0  0  0  0  0  0  0  0  0  0  0  0
   67.1768   75.8249   88.4600 C   0  0  0  0  0  0  0  0  0  0  0  0
   66.1629   76.5594   89.1410 O   0  0  0  0  0  0  0  0  0  0  0  0
   64.9525   76.0157   89.5958 C   0  0  0  0  0  0  0  0  0  0  0  0
   64.7178   75.9862   90.9720 C   0  0  0  0  0  0  0  0  0  0  0  0
   63.5332   75.4535   91.4774 C   0  0  0  0  0  0  0  0  0  0  0  0
   62.5570   74.9440   90.6120 C   0  0  0  0  0  0  0  0  0  0  0  0
   61.3810   74.4177   91.1454 O   0  0  0  0  0  0  0  0  0  0  0  0
   62.7720   74.9682   89.2144 C   0  0  0  0  0  0  0  0  0  0  0  0
   63.9765   75.5055   88.7198 C   0  0  0  0  0  0  0  0  0  0  0  0
   61.2509   74.4076   92.0733 H   0  0  0  0  0  0  0  0  0  0  0  0
   61.7632   74.4469   88.2564 C   0  0  0  0  0  0  0  0  0  0  0  0
   60.5577   74.8072   88.3254 O   0  0  0  0  0  0  0  0  0  0  0  0
   62.1405   73.5471   87.2630 O   0  0  0  0  0  0  0  0  0  0  0  0
   63.0328   73.2687   87.1974 H   0  0  0  0  0  0  0  0  0  0  0  0
 14 15  1  0  0  0
 15 16  2  0  0  0
 16 17  1  0  0  0
 17 18  2  0  0  0
 18 13  1  0  0  0
 13  7  1  0  0  0
  7  8  2  0  0  0
  8  9  1  0  0  0
  9 10  2  0  0  0
 10 11  1  0  0  0
 11  1  1  0  0  0
  1  2  2  0  0  0
  2  3  1  0  0  0
  3  4  2  0  0  0
  4  5  1  0  0  0
  5 21  1  0  0  0
 21 22  1  0  0  0
 22 23  1  0  0  0
 23 24  2  0  0  0
 24 25  1  0  0  0
 25 26  2  0  0  0
 26 27  1  0  0  0
 26 28  1  0  0  0
 28 31  1  0  0  0
 31 32  2  0  0  0
 31 33  1  0  0  0
 28 29  2  0  0  0
  5  6  2  0  0  0
 11 12  2  0  0  0
 18 19  1  0  0  0
 19 20  2  0  0  0
 20 15  1  0  0  0
 12  7  1  0  0  0
  6  1  1  0  0  0
 29 23  1  0  0  0
 27 30  1  0  0  0
 33 34  1  0  0  0
M  END
> <Activity>
4.7

> <minimizedAffinity>
-10.15661

$$$$
HIPS6994


 34 37  0  0  0  0  0  0  0  0999 V2000
   65.2597   76.3618   89.4970 C   0  0  0  0  0  0  0  0  0  0  0  0
   64.0846   77.0033   89.9243 C   0  0  0  0  0  0  0  0  0  0  0  0
   63.2287   76.3787   90.8347 C   0  0  0  0  0  0  0  0  0  0  0  0
   63.5368   75.1108   91.3324 C   0  0  0  0  0  0  0  0  0  0  0  0
   64.6981   74.4493   90.9074 C   0  0  0  0  0  0  0  0  0  0  0  0
   65.5570   75.0799   89.9931 C   0  0  0  0  0  0  0  0  0  0  0  0
   67.8439   78.7595   88.0886 C   0  0  0  0  0  0  0  0  0  0  0  0
   67.8994   78.3474   86.7541 C   0  0  0  0  0  0  0  0  0  0  0  0
   67.1162   77.2761   86.3203 C   0  0  0  0  0  0  0  0  0  0  0  0
   66.2665   76.6194   87.2147 C   0  0  0  0  0  0  0  0  0  0  0  0
   66.1866   77.0357   88.5559 C   0  0  0  0  0  0  0  0  0  0  0  0
   66.9863   78.1107   88.9861 C   0  0  0  0  0  0  0  0  0  0  0  0
   68.6426   79.8204   88.5210 O   0  0  0  0  0  0  0  0  0  0  0  0
   74.3345   79.5991   89.0106 C   0  0  0  0  0  0  0  0  0  0  0  0
   72.8408   79.6367   88.8906 C   0  0  0  0  0  0  0  0  0  0  0  0
   72.1940   80.8412   88.5855 C   0  0  0  0  0  0  0  0  0  0  0  0
   70.8016   80.8888   88.4784 C   0  0  0  0  0  0  0  0  0  0  0  0
   70.0346   79.7343   88.6734 C   0  0  0  0  0  0  0  0  0  0  0  0
   70.6827   78.5265   88.9925 C   0  0  0  0  0  0  0  0  0  0  0  0
   72.0754   78.4789   89.1015 C   0  0  0  0  0  0  0  0  0  0  0  0
   65.0620   73.1064   91.4714 C   0  0  0  0  0  0  0  0  0  0  0  0
   66.4706   72.9196   91.3609 O   0  0  0  0  0  0  0  0  0  0  0  0
   67.4339   73.8591   91.7572 C   0  0  0  0  0  0  0  0  0  0  0  0
   67.2083   74.5811   92.9310 C   0  0  0  0  0  0  0  0  0  0  0  0
   68.1314   75.5293   93.3680 C   0  0  0  0  0  0  0  0  0  0  0  0
   69.3030   75.7693   92.6390 C   0  0  0  0  0  0  0  0  0  0  0  0
   70.2093   76.7233   93.1003 O   0  0  0  0  0  0  0  0  0  0  0  0
   69.5538   75.0460   91.4499 C   0  0  0  0  0  0  0  0  0  0  0  0
   68.6087   74.0946   91.0191 C   0  0  0  0  0  0  0  0  0  0  0  0
   70.0312   77.1956   93.8897 H   0  0  0  0  0  0  0  0  0  0  0  0
   70.7854   75.2596   90.6469 C   0  0  0  0  0  0  0  0  0  0  0  0
   70.8129   74.9845   89.4175 O   0  0  0  0  0  0  0  0  0  0  0  0
   71.9330   75.7706   91.2477 O   0  0  0  0  0  0  0  0  0  0  0  0
   71.9299   75.9806   92.1609 H   0  0  0  0  0  0  0  0  0  0  0  0
 14 15  1  0  0  0
 15 16  2  0  0  0
 16 17  1  0  0  0
 17 18  2  0  0  0
 18 13  1  0  0  0
 13  7  1  0  0  0
  7  8  2  0  0  0
  8  9  1  0  0  0
  9 10  2  0  0  0
 10 11  1  0  0  0
 11  1  1  0  0  0
  1  2  2  0  0  0
  2  3  1  0  0  0
  3  4  2  0  0  0
  4  5  1  0  0  0
  5 21  1  0  0  0
 21 22  1  0  0  0
 22 23  1  0  0  0
 23 24  2  0  0  0
 24 25  1  0  0  0
 25 26  2  0  0  0
 26 27  1  0  0  0
 26 28  1  0  0  0
 28 31  1  0  0  0
 31 32  2  0  0  0
 31 33  1  0  0  0
 28 29  2  0  0  0
  5  6  2  0  0  0
 11 12  2  0  0  0
 18 19  1  0  0  0
 19 20  2  0  0  0
 20 15  1  0  0  0
 12  7  1  0  0  0
  6  1  1  0  0  0
 29 23  1  0  0  0
 27 30  1  0  0  0
 33 34  1  0  0  0
M  END
> <Activity>
4.7

> <minimizedAffinity>
-9.93218

$$$$
HIPS6994


 34 37  0  0  0  0  0  0  0  0999 V2000
   69.7830   76.5361   90.3517 C   0  0  0  0  0  0  0  0  0  0  0  0
   71.0172   75.8650   90.3874 C   0  0  0  0  0  0  0  0  0  0  0  0
   71.1826   74.7304   91.1852 C   0  0  0  0  0  0  0  0  0  0  0  0
   70.1190   74.2496   91.9519 C   0  0  0  0  0  0  0  0  0  0  0  0
   68.8838   74.9138   91.9396 C   0  0  0  0  0  0  0  0  0  0  0  0
   68.7202   76.0533   91.1360 C   0  0  0  0  0  0  0  0  0  0  0  0
   70.0746   80.0488   88.9419 C   0  0  0  0  0  0  0  0  0  0  0  0
   69.1901   79.9831   87.8614 C   0  0  0  0  0  0  0  0  0  0  0  0
   68.5199   78.7915   87.5782 C   0  0  0  0  0  0  0  0  0  0  0  0
   68.7219   77.6642   88.3792 C   0  0  0  0  0  0  0  0  0  0  0  0
   69.5947   77.7216   89.4808 C   0  0  0  0  0  0  0  0  0  0  0  0
   70.2724   78.9243   89.7533 C   0  0  0  0  0  0  0  0  0  0  0  0
   70.7555   81.2383   89.2099 O   0  0  0  0  0  0  0  0  0  0  0  0
   76.2709   82.1821   88.0372 C   0  0  0  0  0  0  0  0  0  0  0  0
   74.8291   81.9130   88.3464 C   0  0  0  0  0  0  0  0  0  0  0  0
   73.9593   82.9795   88.6084 C   0  0  0  0  0  0  0  0  0  0  0  0
   72.6151   82.7393   88.9048 C   0  0  0  0  0  0  0  0  0  0  0  0
   72.1194   81.4309   88.9433 C   0  0  0  0  0  0  0  0  0  0  0  0
   72.9953   80.3583   88.6929 C   0  0  0  0  0  0  0  0  0  0  0  0
   74.3404   80.5980   88.3981 C   0  0  0  0  0  0  0  0  0  0  0  0
   67.7209   74.3786   92.7239 C   0  0  0  0  0  0  0  0  0  0  0  0
   66.8796   73.6241   91.8556 O   0  0  0  0  0  0  0  0  0  0  0  0
   65.5814   73.9981   91.4783 C   0  0  0  0  0  0  0  0  0  0  0  0
   64.6095   73.0004   91.3788 C   0  0  0  0  0  0  0  0  0  0  0  0
   63.3050   73.3169   91.0042 C   0  0  0  0  0  0  0  0  0  0  0  0
   62.9470   74.6422   90.7267 C   0  0  0  0  0  0  0  0  0  0  0  0
   61.6343   74.9300   90.3549 O   0  0  0  0  0  0  0  0  0  0  0  0
   63.9143   75.6691   90.8258 C   0  0  0  0  0  0  0  0  0  0  0  0
   65.2295   75.3321   91.2008 C   0  0  0  0  0  0  0  0  0  0  0  0
   61.0030   74.2404   90.2930 H   0  0  0  0  0  0  0  0  0  0  0  0
   63.5808   77.0902   90.5490 C   0  0  0  0  0  0  0  0  0  0  0  0
   63.7728   77.9817   91.4187 O   0  0  0  0  0  0  0  0  0  0  0  0
   63.0482   77.4570   89.3159 O   0  0  0  0  0  0  0  0  0  0  0  0
   62.8990   76.8068   88.6579 H   0  0  0  0  0  0  0  0  0  0  0  0
 14 15  1  0  0  0
 15 16  2  0  0  0
 16 17  1  0  0  0
 17 18  2  0  0  0
 18 13  1  0  0  0
 13  7  1  0  0  0
  7  8  2  0  0  0
  8  9  1  0  0  0
  9 10  2  0  0  0
 10 11  1  0  0  0
 11  1  1  0  0  0
  1  2  2  0  0  0
  2  3  1  0  0  0
  3  4  2  0  0  0
  4  5  1  0  0  0
  5 21  1  0  0  0
 21 22  1  0  0  0
 22 23  1  0  0  0
 23 24  2  0  0  0
 24 25  1  0  0  0
 25 26  2  0  0  0
 26 27  1  0  0  0
 26 28  1  0  0  0
 28 31  1  0  0  0
 31 32  2  0  0  0
 31 33  1  0  0  0
 28 29  2  0  0  0
  5  6  2  0  0  0
 11 12  2  0  0  0
 18 19  1  0  0  0
 19 20  2  0  0  0
 20 15  1  0  0  0
 12  7  1  0  0  0
  6  1  1  0  0  0
 29 23  1  0  0  0
 27 30  1  0  0  0
 33 34  1  0  0  0
M  END
> <Activity>
4.7

> <minimizedAffinity>
-9.90829

$$$$
HIPS6994


 34 37  0  0  0  0  0  0  0  0999 V2000
   69.0867   76.0848   91.3523 C   0  0  0  0  0  0  0  0  0  0  0  0
   69.5562   76.1673   92.6744 C   0  0  0  0  0  0  0  0  0  0  0  0
   69.1417   75.2381   93.6315 C   0  0  0  0  0  0  0  0  0  0  0  0
   68.2590   74.2144   93.2807 C   0  0  0  0  0  0  0  0  0  0  0  0
   67.7692   74.1238   91.9697 C   0  0  0  0  0  0  0  0  0  0  0  0
   68.1883   75.0584   91.0095 C   0  0  0  0  0  0  0  0  0  0  0  0
   71.3546   78.2478   89.2101 C   0  0  0  0  0  0  0  0  0  0  0  0
   70.4201   78.9232   88.4198 C   0  0  0  0  0  0  0  0  0  0  0  0
   69.0576   78.6568   88.5670 C   0  0  0  0  0  0  0  0  0  0  0  0
   68.6222   77.7231   89.5113 C   0  0  0  0  0  0  0  0  0  0  0  0
   69.5502   77.0499   90.3263 C   0  0  0  0  0  0  0  0  0  0  0  0
   70.9220   77.3186   90.1648 C   0  0  0  0  0  0  0  0  0  0  0  0
   72.7174   78.5055   89.0463 O   0  0  0  0  0  0  0  0  0  0  0  0
   75.0458   83.6957   88.4746 C   0  0  0  0  0  0  0  0  0  0  0  0
   74.4153   82.3438   88.6219 C   0  0  0  0  0  0  0  0  0  0  0  0
   75.2161   81.1944   88.6172 C   0  0  0  0  0  0  0  0  0  0  0  0
   74.6379   79.9290   88.7466 C   0  0  0  0  0  0  0  0  0  0  0  0
   73.2515   79.7925   88.8834 C   0  0  0  0  0  0  0  0  0  0  0  0
   72.4451   80.9458   88.8755 C   0  0  0  0  0  0  0  0  0  0  0  0
   73.0230   82.2117   88.7442 C   0  0  0  0  0  0  0  0  0  0  0  0
   66.8567   73.0003   91.5711 C   0  0  0  0  0  0  0  0  0  0  0  0
   65.5055   73.3940   91.7959 O   0  0  0  0  0  0  0  0  0  0  0  0
   64.8722   74.4725   91.1609 C   0  0  0  0  0  0  0  0  0  0  0  0
   63.7887   74.2013   90.3227 C   0  0  0  0  0  0  0  0  0  0  0  0
   63.1260   75.2357   89.6644 C   0  0  0  0  0  0  0  0  0  0  0  0
   63.5334   76.5644   89.8376 C   0  0  0  0  0  0  0  0  0  0  0  0
   62.8514   77.5792   89.1671 O   0  0  0  0  0  0  0  0  0  0  0  0
   64.6252   76.8621   90.6856 C   0  0  0  0  0  0  0  0  0  0  0  0
   65.2875   75.8051   91.3399 C   0  0  0  0  0  0  0  0  0  0  0  0
   62.1296   77.3686   88.6081 H   0  0  0  0  0  0  0  0  0  0  0  0
   65.0891   78.2561   90.9072 C   0  0  0  0  0  0  0  0  0  0  0  0
   65.6198   78.9178   89.9753 O   0  0  0  0  0  0  0  0  0  0  0  0
   64.9417   78.8528   92.1566 O   0  0  0  0  0  0  0  0  0  0  0  0
   64.5492   78.3750   92.8606 H   0  0  0  0  0  0  0  0  0  0  0  0
 14 15  1  0  0  0
 15 16  2  0  0  0
 16 17  1  0  0  0
 17 18  2  0  0  0
 18 13  1  0  0  0
 13  7  1  0  0  0
  7  8  2  0  0  0
  8  9  1  0  0  0
  9 10  2  0  0  0
 10 11  1  0  0  0
 11  1  1  0  0  0
  1  2  2  0  0  0
  2  3  1  0  0  0
  3  4  2  0  0  0
  4  5  1  0  0  0
  5 21  1  0  0  0
 21 22  1  0  0  0
 22 23  1  0  0  0
 23 24  2  0  0  0
 24 25  1  0  0  0
 25 26  2  0  0  0
 26 27  1  0  0  0
 26 28  1  0  0  0
 28 31  1  0  0  0
 31 32  2  0  0  0
 31 33  1  0  0  0
 28 29  2  0  0  0
  5  6  2  0  0  0
 11 12  2  0  0  0
 18 19  1  0  0  0
 19 20  2  0  0  0
 20 15  1  0  0  0
 12  7  1  0  0  0
  6  1  1  0  0  0
 29 23  1  0  0  0
 27 30  1  0  0  0
 33 34  1  0  0  0
M  END
> <Activity>
4.7

> <minimizedAffinity>
-9.88621

$$$$
HIPS6994


 34 37  0  0  0  0  0  0  0  0999 V2000
   65.8285   76.0301   89.0007 C   0  0  0  0  0  0  0  0  0  0  0  0
   64.4492   75.7824   88.8953 C   0  0  0  0  0  0  0  0  0  0  0  0
   63.8219   74.8904   89.7683 C   0  0  0  0  0  0  0  0  0  0  0  0
   64.5611   74.2395   90.7583 C   0  0  0  0  0  0  0  0  0  0  0  0
   65.9410   74.4637   90.8704 C   0  0  0  0  0  0  0  0  0  0  0  0
   66.5686   75.3615   89.9922 C   0  0  0  0  0  0  0  0  0  0  0  0
   67.8897   78.9682   87.7636 C   0  0  0  0  0  0  0  0  0  0  0  0
   67.6977   78.8734   86.3822 C   0  0  0  0  0  0  0  0  0  0  0  0
   66.9200   77.8413   85.8539 C   0  0  0  0  0  0  0  0  0  0  0  0
   66.3219   76.9066   86.7034 C   0  0  0  0  0  0  0  0  0  0  0  0
   66.4911   77.0010   88.0966 C   0  0  0  0  0  0  0  0  0  0  0  0
   67.2839   78.0395   88.6194 C   0  0  0  0  0  0  0  0  0  0  0  0
   68.6830   79.9924   88.2852 O   0  0  0  0  0  0  0  0  0  0  0  0
   74.3357   79.6256   89.0590 C   0  0  0  0  0  0  0  0  0  0  0  0
   72.8513   79.7014   88.8645 C   0  0  0  0  0  0  0  0  0  0  0  0
   72.2529   80.9197   88.5180 C   0  0  0  0  0  0  0  0  0  0  0  0
   70.8693   81.0030   88.3414 C   0  0  0  0  0  0  0  0  0  0  0  0
   70.0630   79.8710   88.5074 C   0  0  0  0  0  0  0  0  0  0  0  0
   70.6618   78.6496   88.8680 C   0  0  0  0  0  0  0  0  0  0  0  0
   72.0457   78.5663   89.0465 C   0  0  0  0  0  0  0  0  0  0  0  0
   66.7358   73.8047   91.9602 C   0  0  0  0  0  0  0  0  0  0  0  0
   68.0143   74.4284   92.0483 O   0  0  0  0  0  0  0  0  0  0  0  0
   68.2439   75.7068   92.5777 C   0  0  0  0  0  0  0  0  0  0  0  0
   69.3850   75.9029   93.3584 C   0  0  0  0  0  0  0  0  0  0  0  0
   69.6588   77.1524   93.9116 C   0  0  0  0  0  0  0  0  0  0  0  0
   68.7959   78.2328   93.6888 C   0  0  0  0  0  0  0  0  0  0  0  0
   69.0951   79.4719   94.2541 O   0  0  0  0  0  0  0  0  0  0  0  0
   67.6370   78.0577   92.8974 C   0  0  0  0  0  0  0  0  0  0  0  0
   67.3720   76.7875   92.3493 C   0  0  0  0  0  0  0  0  0  0  0  0
   69.8662   79.5746   94.7765 H   0  0  0  0  0  0  0  0  0  0  0  0
   66.6961   79.1751   92.6263 C   0  0  0  0  0  0  0  0  0  0  0  0
   67.0696   80.3746   92.7245 O   0  0  0  0  0  0  0  0  0  0  0  0
   65.3802   78.9083   92.2573 O   0  0  0  0  0  0  0  0  0  0  0  0
   65.0859   78.0222   92.1796 H   0  0  0  0  0  0  0  0  0  0  0  0
 14 15  1  0  0  0
 15 16  2  0  0  0
 16 17  1  0  0  0
 17 18  2  0  0  0
 18 13  1  0  0  0
 13  7  1  0  0  0
  7  8  2  0  0  0
  8  9  1  0  0  0
  9 10  2  0  0  0
 10 11  1  0  0  0
 11  1  1  0  0  0
  1  2  2  0  0  0
  2  3  1  0  0  0
  3  4  2  0  0  0
  4  5  1  0  0  0
  5 21  1  0  0  0
 21 22  1  0  0  0
 22 23  1  0  0  0
 23 24  2  0  0  0
 24 25  1  0  0  0
 25 26  2  0  0  0
 26 27  1  0  0  0
 26 28  1  0  0  0
 28 31  1  0  0  0
 31 32  2  0  0  0
 31 33  1  0  0  0
 28 29  2  0  0  0
  5  6  2  0  0  0
 11 12  2  0  0  0
 18 19  1  0  0  0
 19 20  2  0  0  0
 20 15  1  0  0  0
 12  7  1  0  0  0
  6  1  1  0  0  0
 29 23  1  0  0  0
 27 30  1  0  0  0
 33 34  1  0  0  0
M  END
> <Activity>
4.7

> <minimizedAffinity>
-9.83000

$$$$
HIPS6994


 34 37  0  0  0  0  0  0  0  0999 V2000
   66.7953   74.2328   91.5294 C   0  0  0  0  0  0  0  0  0  0  0  0
   66.8599   72.8424   91.3353 C   0  0  0  0  0  0  0  0  0  0  0  0
   65.6901   72.0941   91.1843 C   0  0  0  0  0  0  0  0  0  0  0  0
   64.4440   72.7236   91.2204 C   0  0  0  0  0  0  0  0  0  0  0  0
   64.3589   74.1082   91.4267 C   0  0  0  0  0  0  0  0  0  0  0  0
   65.5364   74.8579   91.5770 C   0  0  0  0  0  0  0  0  0  0  0  0
   69.9444   76.1570   90.6396 C   0  0  0  0  0  0  0  0  0  0  0  0
   70.4192   76.5041   91.9077 C   0  0  0  0  0  0  0  0  0  0  0  0
   69.7030   76.1340   93.0476 C   0  0  0  0  0  0  0  0  0  0  0  0
   68.5159   75.4066   92.9261 C   0  0  0  0  0  0  0  0  0  0  0  0
   68.0364   75.0344   91.6572 C   0  0  0  0  0  0  0  0  0  0  0  0
   68.7604   75.4193   90.5137 C   0  0  0  0  0  0  0  0  0  0  0  0
   70.6558   76.5450   89.5021 O   0  0  0  0  0  0  0  0  0  0  0  0
   72.5950   81.8546   88.6457 C   0  0  0  0  0  0  0  0  0  0  0  0
   72.0659   80.4697   88.8671 C   0  0  0  0  0  0  0  0  0  0  0  0
   72.9501   79.3849   88.9278 C   0  0  0  0  0  0  0  0  0  0  0  0
   72.4668   78.0890   89.1267 C   0  0  0  0  0  0  0  0  0  0  0  0
   71.0937   77.8573   89.2686 C   0  0  0  0  0  0  0  0  0  0  0  0
   70.2037   78.9449   89.1949 C   0  0  0  0  0  0  0  0  0  0  0  0
   70.6866   80.2412   88.9942 C   0  0  0  0  0  0  0  0  0  0  0  0
   63.0270   74.8009   91.4208 C   0  0  0  0  0  0  0  0  0  0  0  0
   63.0187   75.7885   90.3933 O   0  0  0  0  0  0  0  0  0  0  0  0
   64.1284   76.5607   90.0194 C   0  0  0  0  0  0  0  0  0  0  0  0
   64.4868   77.6382   90.8322 C   0  0  0  0  0  0  0  0  0  0  0  0
   65.5787   78.4401   90.5047 C   0  0  0  0  0  0  0  0  0  0  0  0
   66.3370   78.1744   89.3576 C   0  0  0  0  0  0  0  0  0  0  0  0
   67.4246   78.9929   89.0549 O   0  0  0  0  0  0  0  0  0  0  0  0
   65.9945   77.0854   88.5229 C   0  0  0  0  0  0  0  0  0  0  0  0
   64.8854   76.2874   88.8651 C   0  0  0  0  0  0  0  0  0  0  0  0
   67.6409   79.7112   89.6162 H   0  0  0  0  0  0  0  0  0  0  0  0
   66.7730   76.7591   87.3003 C   0  0  0  0  0  0  0  0  0  0  0  0
   67.9413   76.2940   87.3812 O   0  0  0  0  0  0  0  0  0  0  0  0
   66.2165   76.9645   86.0405 O   0  0  0  0  0  0  0  0  0  0  0  0
   65.3489   77.3096   85.9621 H   0  0  0  0  0  0  0  0  0  0  0  0
 14 15  1  0  0  0
 15 16  2  0  0  0
 16 17  1  0  0  0
 17 18  2  0  0  0
 18 13  1  0  0  0
 13  7  1  0  0  0
  7  8  2  0  0  0
  8  9  1  0  0  0
  9 10  2  0  0  0
 10 11  1  0  0  0
 11  1  1  0  0  0
  1  2  2  0  0  0
  2  3  1  0  0  0
  3  4  2  0  0  0
  4  5  1  0  0  0
  5 21  1  0  0  0
 21 22  1  0  0  0
 22 23  1  0  0  0
 23 24  2  0  0  0
 24 25  1  0  0  0
 25 26  2  0  0  0
 26 27  1  0  0  0
 26 28  1  0  0  0
 28 31  1  0  0  0
 31 32  2  0  0  0
 31 33  1  0  0  0
 28 29  2  0  0  0
  5  6  2  0  0  0
 11 12  2  0  0  0
 18 19  1  0  0  0
 19 20  2  0  0  0
 20 15  1  0  0  0
 12  7  1  0  0  0
  6  1  1  0  0  0
 29 23  1  0  0  0
 27 30  1  0  0  0
 33 34  1  0  0  0
M  END
> <Activity>
4.7

> <minimizedAffinity>
-9.81102

$$$$
HIPS6994


 34 37  0  0  0  0  0  0  0  0999 V2000
   69.3812   77.8301   88.6552 C   0  0  0  0  0  0  0  0  0  0  0  0
   68.4908   77.4250   87.6462 C   0  0  0  0  0  0  0  0  0  0  0  0
   67.8312   76.1970   87.7361 C   0  0  0  0  0  0  0  0  0  0  0  0
   68.0478   75.3619   88.8343 C   0  0  0  0  0  0  0  0  0  0  0  0
   68.9429   75.7430   89.8445 C   0  0  0  0  0  0  0  0  0  0  0  0
   69.6037   76.9783   89.7520 C   0  0  0  0  0  0  0  0  0  0  0  0
   72.0247   80.5398   88.9392 C   0  0  0  0  0  0  0  0  0  0  0  0
   71.3185   81.6580   88.4865 C   0  0  0  0  0  0  0  0  0  0  0  0
   69.9936   81.5251   88.0669 C   0  0  0  0  0  0  0  0  0  0  0  0
   69.3653   80.2774   88.1079 C   0  0  0  0  0  0  0  0  0  0  0  0
   70.0580   79.1473   88.5788 C   0  0  0  0  0  0  0  0  0  0  0  0
   71.3958   79.2893   88.9915 C   0  0  0  0  0  0  0  0  0  0  0  0
   73.3553   80.6754   89.3413 O   0  0  0  0  0  0  0  0  0  0  0  0
   76.7564   84.7475   87.2115 C   0  0  0  0  0  0  0  0  0  0  0  0
   75.8813   83.6653   87.7681 C   0  0  0  0  0  0  0  0  0  0  0  0
   74.6388   83.9896   88.3280 C   0  0  0  0  0  0  0  0  0  0  0  0
   73.8183   82.9894   88.8561 C   0  0  0  0  0  0  0  0  0  0  0  0
   74.2261   81.6506   88.8324 C   0  0  0  0  0  0  0  0  0  0  0  0
   75.4797   81.3254   88.2817 C   0  0  0  0  0  0  0  0  0  0  0  0
   76.3015   82.3259   87.7549 C   0  0  0  0  0  0  0  0  0  0  0  0
   69.1476   74.8740   91.0514 C   0  0  0  0  0  0  0  0  0  0  0  0
   68.0471   75.0434   91.9409 O   0  0  0  0  0  0  0  0  0  0  0  0
   66.7025   74.8456   91.5940 C   0  0  0  0  0  0  0  0  0  0  0  0
   66.2238   73.5355   91.5269 C   0  0  0  0  0  0  0  0  0  0  0  0
   64.8970   73.2828   91.1832 C   0  0  0  0  0  0  0  0  0  0  0  0
   64.0213   74.3397   90.9048 C   0  0  0  0  0  0  0  0  0  0  0  0
   62.6989   74.0574   90.5643 O   0  0  0  0  0  0  0  0  0  0  0  0
   64.4838   75.6744   90.9714 C   0  0  0  0  0  0  0  0  0  0  0  0
   65.8287   75.9129   91.3154 C   0  0  0  0  0  0  0  0  0  0  0  0
   62.4051   73.1686   90.5238 H   0  0  0  0  0  0  0  0  0  0  0  0
   63.5910   76.8288   90.6924 C   0  0  0  0  0  0  0  0  0  0  0  0
   63.4043   77.7268   91.5565 O   0  0  0  0  0  0  0  0  0  0  0  0
   62.9451   76.9333   89.4633 O   0  0  0  0  0  0  0  0  0  0  0  0
   63.0728   76.2744   88.8094 H   0  0  0  0  0  0  0  0  0  0  0  0
 14 15  1  0  0  0
 15 16  2  0  0  0
 16 17  1  0  0  0
 17 18  2  0  0  0
 18 13  1  0  0  0
 13  7  1  0  0  0
  7  8  2  0  0  0
  8  9  1  0  0  0
  9 10  2  0  0  0
 10 11  1  0  0  0
 11  1  1  0  0  0
  1  2  2  0  0  0
  2  3  1  0  0  0
  3  4  2  0  0  0
  4  5  1  0  0  0
  5 21  1  0  0  0
 21 22  1  0  0  0
 22 23  1  0  0  0
 23 24  2  0  0  0
 24 25  1  0  0  0
 25 26  2  0  0  0
 26 27  1  0  0  0
 26 28  1  0  0  0
 28 31  1  0  0  0
 31 32  2  0  0  0
 31 33  1  0  0  0
 28 29  2  0  0  0
  5  6  2  0  0  0
 11 12  2  0  0  0
 18 19  1  0  0  0
 19 20  2  0  0  0
 20 15  1  0  0  0
 12  7  1  0  0  0
  6  1  1  0  0  0
 29 23  1  0  0  0
 27 30  1  0  0  0
 33 34  1  0  0  0
M  END
> <Activity>
4.7

> <minimizedAffinity>
-9.79544

$$$$
HIPS6994


 34 37  0  0  0  0  0  0  0  0999 V2000
   70.3999   76.9284   90.4730 C   0  0  0  0  0  0  0  0  0  0  0  0
   71.3313   75.9331   90.8148 C   0  0  0  0  0  0  0  0  0  0  0  0
   70.9174   74.7738   91.4751 C   0  0  0  0  0  0  0  0  0  0  0  0
   69.5709   74.5918   91.7976 C   0  0  0  0  0  0  0  0  0  0  0  0
   68.6289   75.5800   91.4766 C   0  0  0  0  0  0  0  0  0  0  0  0
   69.0476   76.7437   90.8120 C   0  0  0  0  0  0  0  0  0  0  0  0
   72.6017   79.5955   88.9076 C   0  0  0  0  0  0  0  0  0  0  0  0
   71.6430   80.4824   88.4092 C   0  0  0  0  0  0  0  0  0  0  0  0
   70.2841   80.2001   88.5606 C   0  0  0  0  0  0  0  0  0  0  0  0
   69.8772   79.0369   89.2199 C   0  0  0  0  0  0  0  0  0  0  0  0
   70.8310   78.1452   89.7430 C   0  0  0  0  0  0  0  0  0  0  0  0
   72.1984   78.4336   89.5779 C   0  0  0  0  0  0  0  0  0  0  0  0
   73.9596   79.8743   88.7379 O   0  0  0  0  0  0  0  0  0  0  0  0
   75.8749   85.2095   87.9935 C   0  0  0  0  0  0  0  0  0  0  0  0
   75.3927   83.8029   88.1834 C   0  0  0  0  0  0  0  0  0  0  0  0
   74.1405   83.5655   88.7647 C   0  0  0  0  0  0  0  0  0  0  0  0
   73.6846   82.2581   88.9529 C   0  0  0  0  0  0  0  0  0  0  0  0
   74.4720   81.1686   88.5628 C   0  0  0  0  0  0  0  0  0  0  0  0
   75.7355   81.4059   87.9904 C   0  0  0  0  0  0  0  0  0  0  0  0
   76.1927   82.7136   87.8036 C   0  0  0  0  0  0  0  0  0  0  0  0
   67.1726   75.3736   91.7772 C   0  0  0  0  0  0  0  0  0  0  0  0
   66.4013   75.7724   90.6471 O   0  0  0  0  0  0  0  0  0  0  0  0
   65.0395   75.4871   90.4692 C   0  0  0  0  0  0  0  0  0  0  0  0
   64.4308   75.8895   89.2786 C   0  0  0  0  0  0  0  0  0  0  0  0
   63.0794   75.6344   89.0524 C   0  0  0  0  0  0  0  0  0  0  0  0
   62.3118   74.9653   90.0140 C   0  0  0  0  0  0  0  0  0  0  0  0
   60.9623   74.7228   89.7606 O   0  0  0  0  0  0  0  0  0  0  0  0
   62.9093   74.5448   91.2249 C   0  0  0  0  0  0  0  0  0  0  0  0
   64.2749   74.8145   91.4403 C   0  0  0  0  0  0  0  0  0  0  0  0
   60.5786   75.0067   88.9543 H   0  0  0  0  0  0  0  0  0  0  0  0
   62.1384   73.8251   92.2713 C   0  0  0  0  0  0  0  0  0  0  0  0
   60.8783   73.8375   92.2712 O   0  0  0  0  0  0  0  0  0  0  0  0
   62.8040   73.1225   93.2725 O   0  0  0  0  0  0  0  0  0  0  0  0
   63.7407   73.1029   93.2875 H   0  0  0  0  0  0  0  0  0  0  0  0
 14 15  1  0  0  0
 15 16  2  0  0  0
 16 17  1  0  0  0
 17 18  2  0  0  0
 18 13  1  0  0  0
 13  7  1  0  0  0
  7  8  2  0  0  0
  8  9  1  0  0  0
  9 10  2  0  0  0
 10 11  1  0  0  0
 11  1  1  0  0  0
  1  2  2  0  0  0
  2  3  1  0  0  0
  3  4  2  0  0  0
  4  5  1  0  0  0
  5 21  1  0  0  0
 21 22  1  0  0  0
 22 23  1  0  0  0
 23 24  2  0  0  0
 24 25  1  0  0  0
 25 26  2  0  0  0
 26 27  1  0  0  0
 26 28  1  0  0  0
 28 31  1  0  0  0
 31 32  2  0  0  0
 31 33  1  0  0  0
 28 29  2  0  0  0
  5  6  2  0  0  0
 11 12  2  0  0  0
 18 19  1  0  0  0
 19 20  2  0  0  0
 20 15  1  0  0  0
 12  7  1  0  0  0
  6  1  1  0  0  0
 29 23  1  0  0  0
 27 30  1  0  0  0
 33 34  1  0  0  0
M  END
> <Activity>
4.7

> <minimizedAffinity>
-9.62230

$$$$
HIPS6991


 34 37  0  0  0  0  0  0  0  0999 V2000
   68.7784   74.4024   91.9203 C   0  0  0  0  0  0  0  0  0  0  0  0
   70.1647   74.3398   92.1307 C   0  0  0  0  0  0  0  0  0  0  0  0
   71.0274   75.1545   91.3870 C   0  0  0  0  0  0  0  0  0  0  0  0
   70.5133   76.0292   90.4266 C   0  0  0  0  0  0  0  0  0  0  0  0
   69.1292   76.0889   90.1903 C   0  0  0  0  0  0  0  0  0  0  0  0
   68.2706   75.2524   90.9273 C   0  0  0  0  0  0  0  0  0  0  0  0
   68.5601   77.0842   89.2534 C   0  0  0  0  0  0  0  0  0  0  0  0
   67.5390   76.7065   88.3658 C   0  0  0  0  0  0  0  0  0  0  0  0
   67.1175   77.5805   87.3603 C   0  0  0  0  0  0  0  0  0  0  0  0
   67.7113   78.8382   87.2339 C   0  0  0  0  0  0  0  0  0  0  0  0
   68.7036   79.2432   88.1381 C   0  0  0  0  0  0  0  0  0  0  0  0
   69.1067   78.3769   89.1609 C   0  0  0  0  0  0  0  0  0  0  0  0
   69.2895   80.5060   88.0326 O   0  0  0  0  0  0  0  0  0  0  0  0
   70.6458   80.7088   88.3007 C   0  0  0  0  0  0  0  0  0  0  0  0
   71.1392   81.9996   88.5448 C   0  0  0  0  0  0  0  0  0  0  0  0
   72.5003   82.1901   88.8055 C   0  0  0  0  0  0  0  0  0  0  0  0
   73.3712   81.0925   88.8299 C   0  0  0  0  0  0  0  0  0  0  0  0
   75.0759   81.3308   89.1548 Cl  0  0  0  0  0  0  0  0  0  0  0  0
   72.8779   79.8011   88.5962 C   0  0  0  0  0  0  0  0  0  0  0  0
   71.5196   79.6103   88.3289 C   0  0  0  0  0  0  0  0  0  0  0  0
   67.8323   73.5794   92.7476 C   0  0  0  0  0  0  0  0  0  0  0  0
   66.5135   73.7309   92.2507 O   0  0  0  0  0  0  0  0  0  0  0  0
   63.9076   75.6958   90.5178 C   0  0  0  0  0  0  0  0  0  0  0  0
   65.1485   75.3077   91.0433 C   0  0  0  0  0  0  0  0  0  0  0  0
   65.2932   74.0761   91.6916 C   0  0  0  0  0  0  0  0  0  0  0  0
   64.2004   73.2092   91.7961 C   0  0  0  0  0  0  0  0  0  0  0  0
   62.9660   73.5724   91.2628 C   0  0  0  0  0  0  0  0  0  0  0  0
   62.8122   74.8042   90.6079 C   0  0  0  0  0  0  0  0  0  0  0  0
   61.5760   75.0837   90.0175 O   0  0  0  0  0  0  0  0  0  0  0  0
   60.8705   74.4721   90.0957 H   0  0  0  0  0  0  0  0  0  0  0  0
   64.5983   77.9475   90.2246 O   0  0  0  0  0  0  0  0  0  0  0  0
   63.7774   77.0398   89.9200 C   0  0  0  0  0  0  0  0  0  0  0  0
   62.7468   77.3113   89.0227 O   0  0  0  0  0  0  0  0  0  0  0  0
   62.1352   76.6392   88.7943 H   0  0  0  0  0  0  0  0  0  0  0  0
 31 32  2  0  0  0
 32 33  1  0  0  0
 32 23  1  0  0  0
 23 24  2  0  0  0
 24 25  1  0  0  0
 25 22  1  0  0  0
 22 21  1  0  0  0
 21  1  1  0  0  0
  1  2  2  0  0  0
  2  3  1  0  0  0
  3  4  2  0  0  0
  4  5  1  0  0  0
  5  7  1  0  0  0
  7  8  2  0  0  0
  8  9  1  0  0  0
  9 10  2  0  0  0
 10 11  1  0  0  0
 11 13  1  0  0  0
 13 14  1  0  0  0
 14 15  2  0  0  0
 15 16  1  0  0  0
 16 17  2  0  0  0
 17 18  1  0  0  0
 17 19  1  0  0  0
 19 20  2  0  0  0
 11 12  2  0  0  0
  5  6  2  0  0  0
 25 26  2  0  0  0
 26 27  1  0  0  0
 27 28  2  0  0  0
 28 29  1  0  0  0
 28 23  1  0  0  0
  6  1  1  0  0  0
 12  7  1  0  0  0
 20 14  1  0  0  0
 33 34  1  0  0  0
 29 30  1  0  0  0
M  END
> <Activity>
5.0

> <minimizedAffinity>
-9.42035

$$$$
HIPS6991


 34 37  0  0  0  0  0  0  0  0999 V2000
   64.4319   74.2354   90.6937 C   0  0  0  0  0  0  0  0  0  0  0  0
   63.1620   73.9670   90.1598 C   0  0  0  0  0  0  0  0  0  0  0  0
   62.7311   74.6263   89.0019 C   0  0  0  0  0  0  0  0  0  0  0  0
   63.5604   75.5600   88.3757 C   0  0  0  0  0  0  0  0  0  0  0  0
   64.8268   75.8543   88.9096 C   0  0  0  0  0  0  0  0  0  0  0  0
   65.2443   75.2026   90.0847 C   0  0  0  0  0  0  0  0  0  0  0  0
   65.7588   76.7605   88.2007 C   0  0  0  0  0  0  0  0  0  0  0  0
   65.9680   76.6094   86.8199 C   0  0  0  0  0  0  0  0  0  0  0  0
   66.9712   77.3360   86.1734 C   0  0  0  0  0  0  0  0  0  0  0  0
   67.7725   78.2194   86.9000 C   0  0  0  0  0  0  0  0  0  0  0  0
   67.5482   78.4095   88.2711 C   0  0  0  0  0  0  0  0  0  0  0  0
   66.5259   77.7004   88.9124 C   0  0  0  0  0  0  0  0  0  0  0  0
   68.3306   79.3049   89.0025 O   0  0  0  0  0  0  0  0  0  0  0  0
   69.7263   79.2391   88.9881 C   0  0  0  0  0  0  0  0  0  0  0  0
   70.4915   80.3831   88.7144 C   0  0  0  0  0  0  0  0  0  0  0  0
   71.8878   80.3025   88.6965 C   0  0  0  0  0  0  0  0  0  0  0  0
   72.5244   79.0819   88.9582 C   0  0  0  0  0  0  0  0  0  0  0  0
   74.2730   78.9802   88.9344 Cl  0  0  0  0  0  0  0  0  0  0  0  0
   71.7615   77.9402   89.2417 C   0  0  0  0  0  0  0  0  0  0  0  0
   70.3664   78.0179   89.2532 C   0  0  0  0  0  0  0  0  0  0  0  0
   64.9355   73.4968   91.9012 C   0  0  0  0  0  0  0  0  0  0  0  0
   66.1897   74.0287   92.2930 O   0  0  0  0  0  0  0  0  0  0  0  0
   68.6068   76.7636   92.8687 C   0  0  0  0  0  0  0  0  0  0  0  0
   67.3975   76.0730   92.7039 C   0  0  0  0  0  0  0  0  0  0  0  0
   67.3900   74.6878   92.5061 C   0  0  0  0  0  0  0  0  0  0  0  0
   68.5947   73.9770   92.4982 C   0  0  0  0  0  0  0  0  0  0  0  0
   69.8028   74.6461   92.6792 C   0  0  0  0  0  0  0  0  0  0  0  0
   69.8199   76.0348   92.8816 C   0  0  0  0  0  0  0  0  0  0  0  0
   71.0507   76.6450   93.1418 O   0  0  0  0  0  0  0  0  0  0  0  0
   71.8361   76.1340   93.1429 H   0  0  0  0  0  0  0  0  0  0  0  0
   69.0079   78.7936   94.0313 O   0  0  0  0  0  0  0  0  0  0  0  0
   68.5751   78.2352   92.9865 C   0  0  0  0  0  0  0  0  0  0  0  0
   68.0639   79.0110   91.9483 O   0  0  0  0  0  0  0  0  0  0  0  0
   67.7415   78.5994   91.1708 H   0  0  0  0  0  0  0  0  0  0  0  0
 31 32  2  0  0  0
 32 33  1  0  0  0
 32 23  1  0  0  0
 23 24  2  0  0  0
 24 25  1  0  0  0
 25 22  1  0  0  0
 22 21  1  0  0  0
 21  1  1  0  0  0
  1  2  2  0  0  0
  2  3  1  0  0  0
  3  4  2  0  0  0
  4  5  1  0  0  0
  5  7  1  0  0  0
  7  8  2  0  0  0
  8  9  1  0  0  0
  9 10  2  0  0  0
 10 11  1  0  0  0
 11 13  1  0  0  0
 13 14  1  0  0  0
 14 15  2  0  0  0
 15 16  1  0  0  0
 16 17  2  0  0  0
 17 18  1  0  0  0
 17 19  1  0  0  0
 19 20  2  0  0  0
 11 12  2  0  0  0
  5  6  2  0  0  0
 25 26  2  0  0  0
 26 27  1  0  0  0
 27 28  2  0  0  0
 28 29  1  0  0  0
 28 23  1  0  0  0
  6  1  1  0  0  0
 12  7  1  0  0  0
 20 14  1  0  0  0
 33 34  1  0  0  0
 29 30  1  0  0  0
M  END
> <Activity>
5.0

> <minimizedAffinity>
-9.27645

$$$$
HIPS6991


 34 37  0  0  0  0  0  0  0  0999 V2000
   68.1371   73.4161   91.8114 C   0  0  0  0  0  0  0  0  0  0  0  0
   69.0807   72.9433   92.7365 C   0  0  0  0  0  0  0  0  0  0  0  0
   70.2856   73.6308   92.9274 C   0  0  0  0  0  0  0  0  0  0  0  0
   70.5581   74.7875   92.1928 C   0  0  0  0  0  0  0  0  0  0  0  0
   69.6320   75.2623   91.2483 C   0  0  0  0  0  0  0  0  0  0  0  0
   68.4325   74.5544   91.0477 C   0  0  0  0  0  0  0  0  0  0  0  0
   69.8574   76.5425   90.5395 C   0  0  0  0  0  0  0  0  0  0  0  0
   68.7616   77.3346   90.1588 C   0  0  0  0  0  0  0  0  0  0  0  0
   68.9472   78.4502   89.3382 C   0  0  0  0  0  0  0  0  0  0  0  0
   70.2278   78.7841   88.8922 C   0  0  0  0  0  0  0  0  0  0  0  0
   71.3353   78.0254   89.2973 C   0  0  0  0  0  0  0  0  0  0  0  0
   71.1513   76.9234   90.1405 C   0  0  0  0  0  0  0  0  0  0  0  0
   72.6219   78.3624   88.8732 O   0  0  0  0  0  0  0  0  0  0  0  0
   73.0515   79.6911   88.8211 C   0  0  0  0  0  0  0  0  0  0  0  0
   72.1209   80.7397   88.7611 C   0  0  0  0  0  0  0  0  0  0  0  0
   72.5640   82.0652   88.7026 C   0  0  0  0  0  0  0  0  0  0  0  0
   73.9364   82.3480   88.7106 C   0  0  0  0  0  0  0  0  0  0  0  0
   74.4917   84.0077   88.6359 Cl  0  0  0  0  0  0  0  0  0  0  0  0
   74.8673   81.3019   88.7807 C   0  0  0  0  0  0  0  0  0  0  0  0
   74.4260   79.9771   88.8323 C   0  0  0  0  0  0  0  0  0  0  0  0
   66.8145   72.7261   91.6338 C   0  0  0  0  0  0  0  0  0  0  0  0
   65.8640   73.6468   91.1259 O   0  0  0  0  0  0  0  0  0  0  0  0
   64.6648   77.0855   90.5004 C   0  0  0  0  0  0  0  0  0  0  0  0
   65.4567   76.0146   90.9391 C   0  0  0  0  0  0  0  0  0  0  0  0
   65.0986   74.6953   90.6404 C   0  0  0  0  0  0  0  0  0  0  0  0
   63.9562   74.4379   89.8755 C   0  0  0  0  0  0  0  0  0  0  0  0
   63.1696   75.4918   89.4167 C   0  0  0  0  0  0  0  0  0  0  0  0
   63.5227   76.8184   89.7085 C   0  0  0  0  0  0  0  0  0  0  0  0
   62.7472   77.8411   89.1540 O   0  0  0  0  0  0  0  0  0  0  0  0
   61.9966   77.6306   88.6340 H   0  0  0  0  0  0  0  0  0  0  0  0
   65.6377   79.2146   90.1084 O   0  0  0  0  0  0  0  0  0  0  0  0
   65.0303   78.4557   90.9121 C   0  0  0  0  0  0  0  0  0  0  0  0
   64.7106   78.9133   92.1886 O   0  0  0  0  0  0  0  0  0  0  0  0
   64.2594   78.3521   92.7881 H   0  0  0  0  0  0  0  0  0  0  0  0
 31 32  2  0  0  0
 32 33  1  0  0  0
 32 23  1  0  0  0
 23 24  2  0  0  0
 24 25  1  0  0  0
 25 22  1  0  0  0
 22 21  1  0  0  0
 21  1  1  0  0  0
  1  2  2  0  0  0
  2  3  1  0  0  0
  3  4  2  0  0  0
  4  5  1  0  0  0
  5  7  1  0  0  0
  7  8  2  0  0  0
  8  9  1  0  0  0
  9 10  2  0  0  0
 10 11  1  0  0  0
 11 13  1  0  0  0
 13 14  1  0  0  0
 14 15  2  0  0  0
 15 16  1  0  0  0
 16 17  2  0  0  0
 17 18  1  0  0  0
 17 19  1  0  0  0
 19 20  2  0  0  0
 11 12  2  0  0  0
  5  6  2  0  0  0
 25 26  2  0  0  0
 26 27  1  0  0  0
 27 28  2  0  0  0
 28 29  1  0  0  0
 28 23  1  0  0  0
  6  1  1  0  0  0
 12  7  1  0  0  0
 20 14  1  0  0  0
 33 34  1  0  0  0
 29 30  1  0  0  0
M  END
> <Activity>
5.0

> <minimizedAffinity>
-9.06088

$$$$
HIPS6991


 34 37  0  0  0  0  0  0  0  0999 V2000
   64.1714   74.4359   90.6147 C   0  0  0  0  0  0  0  0  0  0  0  0
   62.9216   74.2185   90.0142 C   0  0  0  0  0  0  0  0  0  0  0  0
   62.5994   74.8541   88.8088 C   0  0  0  0  0  0  0  0  0  0  0  0
   63.5176   75.7136   88.2007 C   0  0  0  0  0  0  0  0  0  0  0  0
   64.7654   75.9570   88.8000 C   0  0  0  0  0  0  0  0  0  0  0  0
   65.0737   75.3305   90.0216 C   0  0  0  0  0  0  0  0  0  0  0  0
   65.7893   76.7800   88.1169 C   0  0  0  0  0  0  0  0  0  0  0  0
   66.1437   76.4955   86.7878 C   0  0  0  0  0  0  0  0  0  0  0  0
   67.2276   77.1448   86.1909 C   0  0  0  0  0  0  0  0  0  0  0  0
   67.9651   78.0833   86.9158 C   0  0  0  0  0  0  0  0  0  0  0  0
   67.5975   78.4059   88.2300 C   0  0  0  0  0  0  0  0  0  0  0  0
   66.4957   77.7739   88.8180 C   0  0  0  0  0  0  0  0  0  0  0  0
   68.3160   79.3571   88.9565 O   0  0  0  0  0  0  0  0  0  0  0  0
   69.7130   79.3854   88.9454 C   0  0  0  0  0  0  0  0  0  0  0  0
   70.4523   78.2445   89.2933 C   0  0  0  0  0  0  0  0  0  0  0  0
   71.8504   78.2878   89.2845 C   0  0  0  0  0  0  0  0  0  0  0  0
   72.5144   79.4675   88.9222 C   0  0  0  0  0  0  0  0  0  0  0  0
   74.2652   79.5225   88.9125 Cl  0  0  0  0  0  0  0  0  0  0  0  0
   71.7771   80.6052   88.5647 C   0  0  0  0  0  0  0  0  0  0  0  0
   70.3805   80.5652   88.5797 C   0  0  0  0  0  0  0  0  0  0  0  0
   64.5586   73.7191   91.8770 C   0  0  0  0  0  0  0  0  0  0  0  0
   65.9273   73.9583   92.1571 O   0  0  0  0  0  0  0  0  0  0  0  0
   69.3621   74.8520   91.1287 C   0  0  0  0  0  0  0  0  0  0  0  0
   67.9928   74.5553   91.0688 C   0  0  0  0  0  0  0  0  0  0  0  0
   67.2677   74.3010   92.2382 C   0  0  0  0  0  0  0  0  0  0  0  0
   67.9033   74.3680   93.4825 C   0  0  0  0  0  0  0  0  0  0  0  0
   69.2586   74.6799   93.5597 C   0  0  0  0  0  0  0  0  0  0  0  0
   69.9932   74.9397   92.3924 C   0  0  0  0  0  0  0  0  0  0  0  0
   71.3287   75.3299   92.5306 O   0  0  0  0  0  0  0  0  0  0  0  0
   71.7170   75.3779   93.3820 H   0  0  0  0  0  0  0  0  0  0  0  0
   71.3594   74.8723   89.8466 O   0  0  0  0  0  0  0  0  0  0  0  0
   70.1078   75.0268   89.8662 C   0  0  0  0  0  0  0  0  0  0  0  0
   69.4341   75.3668   88.6950 O   0  0  0  0  0  0  0  0  0  0  0  0
   68.5043   75.4824   88.7061 H   0  0  0  0  0  0  0  0  0  0  0  0
 31 32  2  0  0  0
 32 33  1  0  0  0
 32 23  1  0  0  0
 23 24  2  0  0  0
 24 25  1  0  0  0
 25 22  1  0  0  0
 22 21  1  0  0  0
 21  1  1  0  0  0
  1  2  2  0  0  0
  2  3  1  0  0  0
  3  4  2  0  0  0
  4  5  1  0  0  0
  5  7  1  0  0  0
  7  8  2  0  0  0
  8  9  1  0  0  0
  9 10  2  0  0  0
 10 11  1  0  0  0
 11 13  1  0  0  0
 13 14  1  0  0  0
 14 15  2  0  0  0
 15 16  1  0  0  0
 16 17  2  0  0  0
 17 18  1  0  0  0
 17 19  1  0  0  0
 19 20  2  0  0  0
 11 12  2  0  0  0
  5  6  2  0  0  0
 25 26  2  0  0  0
 26 27  1  0  0  0
 27 28  2  0  0  0
 28 29  1  0  0  0
 28 23  1  0  0  0
  6  1  1  0  0  0
 12  7  1  0  0  0
 20 14  1  0  0  0
 33 34  1  0  0  0
 29 30  1  0  0  0
M  END
> <Activity>
5.0

> <minimizedAffinity>
-8.57456

$$$$
HIPS6991


 34 37  0  0  0  0  0  0  0  0999 V2000
   67.4824   79.5057   86.9811 C   0  0  0  0  0  0  0  0  0  0  0  0
   67.2116   79.1092   85.6623 C   0  0  0  0  0  0  0  0  0  0  0  0
   66.6926   77.8347   85.4026 C   0  0  0  0  0  0  0  0  0  0  0  0
   66.4481   76.9483   86.4544 C   0  0  0  0  0  0  0  0  0  0  0  0
   66.7329   77.3234   87.7786 C   0  0  0  0  0  0  0  0  0  0  0  0
   67.2733   78.5982   88.0294 C   0  0  0  0  0  0  0  0  0  0  0  0
   66.3813   76.4380   88.9120 C   0  0  0  0  0  0  0  0  0  0  0  0
   65.1708   75.7256   88.8946 C   0  0  0  0  0  0  0  0  0  0  0  0
   64.7444   75.0288   90.0283 C   0  0  0  0  0  0  0  0  0  0  0  0
   65.5234   75.0373   91.1874 C   0  0  0  0  0  0  0  0  0  0  0  0
   66.7530   75.7111   91.2054 C   0  0  0  0  0  0  0  0  0  0  0  0
   67.1914   76.3870   90.0607 C   0  0  0  0  0  0  0  0  0  0  0  0
   67.5486   75.7091   92.3525 O   0  0  0  0  0  0  0  0  0  0  0  0
   67.9654   76.8980   92.9569 C   0  0  0  0  0  0  0  0  0  0  0  0
   69.1088   76.9219   93.7701 C   0  0  0  0  0  0  0  0  0  0  0  0
   69.5118   78.1173   94.3747 C   0  0  0  0  0  0  0  0  0  0  0  0
   68.7789   79.2929   94.1642 C   0  0  0  0  0  0  0  0  0  0  0  0
   69.2824   80.7896   94.9223 Cl  0  0  0  0  0  0  0  0  0  0  0  0
   67.6421   79.2727   93.3438 C   0  0  0  0  0  0  0  0  0  0  0  0
   67.2346   78.0779   92.7448 C   0  0  0  0  0  0  0  0  0  0  0  0
   67.9846   80.8885   87.2857 C   0  0  0  0  0  0  0  0  0  0  0  0
   69.2959   80.8099   87.8180 O   0  0  0  0  0  0  0  0  0  0  0  0
   72.8666   81.2533   88.6592 C   0  0  0  0  0  0  0  0  0  0  0  0
   71.5501   81.5344   88.2664 C   0  0  0  0  0  0  0  0  0  0  0  0
   70.5791   80.5268   88.2585 C   0  0  0  0  0  0  0  0  0  0  0  0
   70.9127   79.2323   88.6701 C   0  0  0  0  0  0  0  0  0  0  0  0
   72.2115   78.9418   89.0808 C   0  0  0  0  0  0  0  0  0  0  0  0
   73.1912   79.9466   89.0952 C   0  0  0  0  0  0  0  0  0  0  0  0
   74.4561   79.6229   89.5953 O   0  0  0  0  0  0  0  0  0  0  0  0
   74.6391   78.7478   89.8759 H   0  0  0  0  0  0  0  0  0  0  0  0
   75.0759   82.0380   88.2897 O   0  0  0  0  0  0  0  0  0  0  0  0
   73.8797   82.3239   88.5688 C   0  0  0  0  0  0  0  0  0  0  0  0
   73.5200   83.6507   88.7954 O   0  0  0  0  0  0  0  0  0  0  0  0
   72.6321   83.8665   89.0030 H   0  0  0  0  0  0  0  0  0  0  0  0
 31 32  2  0  0  0
 32 33  1  0  0  0
 32 23  1  0  0  0
 23 24  2  0  0  0
 24 25  1  0  0  0
 25 22  1  0  0  0
 22 21  1  0  0  0
 21  1  1  0  0  0
  1  2  2  0  0  0
  2  3  1  0  0  0
  3  4  2  0  0  0
  4  5  1  0  0  0
  5  7  1  0  0  0
  7  8  2  0  0  0
  8  9  1  0  0  0
  9 10  2  0  0  0
 10 11  1  0  0  0
 11 13  1  0  0  0
 13 14  1  0  0  0
 14 15  2  0  0  0
 15 16  1  0  0  0
 16 17  2  0  0  0
 17 18  1  0  0  0
 17 19  1  0  0  0
 19 20  2  0  0  0
 11 12  2  0  0  0
  5  6  2  0  0  0
 25 26  2  0  0  0
 26 27  1  0  0  0
 27 28  2  0  0  0
 28 29  1  0  0  0
 28 23  1  0  0  0
  6  1  1  0  0  0
 12  7  1  0  0  0
 20 14  1  0  0  0
 33 34  1  0  0  0
 29 30  1  0  0  0
M  END
> <Activity>
5.0

> <minimizedAffinity>
-8.08434

$$$$
HIPS6991


 34 37  0  0  0  0  0  0  0  0999 V2000
   68.1379   73.6141   92.1393 C   0  0  0  0  0  0  0  0  0  0  0  0
   69.2001   73.1112   92.9064 C   0  0  0  0  0  0  0  0  0  0  0  0
   70.4424   73.7575   92.8984 C   0  0  0  0  0  0  0  0  0  0  0  0
   70.6332   74.9027   92.1213 C   0  0  0  0  0  0  0  0  0  0  0  0
   69.5851   75.4069   91.3323 C   0  0  0  0  0  0  0  0  0  0  0  0
   68.3460   74.7401   91.3299 C   0  0  0  0  0  0  0  0  0  0  0  0
   69.7377   76.6772   90.5871 C   0  0  0  0  0  0  0  0  0  0  0  0
   68.6187   77.4959   90.3621 C   0  0  0  0  0  0  0  0  0  0  0  0
   68.7115   78.6022   89.5136 C   0  0  0  0  0  0  0  0  0  0  0  0
   69.9219   78.9000   88.8839 C   0  0  0  0  0  0  0  0  0  0  0  0
   71.0569   78.1146   89.1311 C   0  0  0  0  0  0  0  0  0  0  0  0
   70.9694   77.0220   90.0017 C   0  0  0  0  0  0  0  0  0  0  0  0
   72.2766   78.4155   88.5223 O   0  0  0  0  0  0  0  0  0  0  0  0
   72.8646   79.6772   88.6442 C   0  0  0  0  0  0  0  0  0  0  0  0
   72.0915   80.8405   88.5086 C   0  0  0  0  0  0  0  0  0  0  0  0
   72.6934   82.0976   88.6263 C   0  0  0  0  0  0  0  0  0  0  0  0
   74.0667   82.1974   88.8863 C   0  0  0  0  0  0  0  0  0  0  0  0
   74.8211   83.7715   89.0324 Cl  0  0  0  0  0  0  0  0  0  0  0  0
   74.8386   81.0360   89.0320 C   0  0  0  0  0  0  0  0  0  0  0  0
   74.2398   79.7796   88.9079 C   0  0  0  0  0  0  0  0  0  0  0  0
   66.7815   72.9693   92.1791 C   0  0  0  0  0  0  0  0  0  0  0  0
   65.8327   73.8230   91.5625 O   0  0  0  0  0  0  0  0  0  0  0  0
   63.3021   75.4260   89.3991 C   0  0  0  0  0  0  0  0  0  0  0  0
   64.0498   74.4441   90.0650 C   0  0  0  0  0  0  0  0  0  0  0  0
   65.0692   74.8058   90.9527 C   0  0  0  0  0  0  0  0  0  0  0  0
   65.3314   76.1570   91.2019 C   0  0  0  0  0  0  0  0  0  0  0  0
   64.5849   77.1439   90.5624 C   0  0  0  0  0  0  0  0  0  0  0  0
   63.5584   76.7906   89.6730 C   0  0  0  0  0  0  0  0  0  0  0  0
   62.7847   77.8171   89.1226 O   0  0  0  0  0  0  0  0  0  0  0  0
   62.9807   78.7109   89.3240 H   0  0  0  0  0  0  0  0  0  0  0  0
   61.5760   75.8623   87.8294 O   0  0  0  0  0  0  0  0  0  0  0  0
   62.2958   75.0014   88.4052 C   0  0  0  0  0  0  0  0  0  0  0  0
   62.1347   73.6509   88.1034 O   0  0  0  0  0  0  0  0  0  0  0  0
   62.6678   73.0088   88.5293 H   0  0  0  0  0  0  0  0  0  0  0  0
 31 32  2  0  0  0
 32 33  1  0  0  0
 32 23  1  0  0  0
 23 24  2  0  0  0
 24 25  1  0  0  0
 25 22  1  0  0  0
 22 21  1  0  0  0
 21  1  1  0  0  0
  1  2  2  0  0  0
  2  3  1  0  0  0
  3  4  2  0  0  0
  4  5  1  0  0  0
  5  7  1  0  0  0
  7  8  2  0  0  0
  8  9  1  0  0  0
  9 10  2  0  0  0
 10 11  1  0  0  0
 11 13  1  0  0  0
 13 14  1  0  0  0
 14 15  2  0  0  0
 15 16  1  0  0  0
 16 17  2  0  0  0
 17 18  1  0  0  0
 17 19  1  0  0  0
 19 20  2  0  0  0
 11 12  2  0  0  0
  5  6  2  0  0  0
 25 26  2  0  0  0
 26 27  1  0  0  0
 27 28  2  0  0  0
 28 29  1  0  0  0
 28 23  1  0  0  0
  6  1  1  0  0  0
 12  7  1  0  0  0
 20 14  1  0  0  0
 33 34  1  0  0  0
 29 30  1  0  0  0
M  END
> <Activity>
5.0

> <minimizedAffinity>
-8.07536

$$$$
HIPS6991


 34 37  0  0  0  0  0  0  0  0999 V2000
   70.2995   75.1290   91.4378 C   0  0  0  0  0  0  0  0  0  0  0  0
   70.1484   74.0674   92.3433 C   0  0  0  0  0  0  0  0  0  0  0  0
   68.9593   73.9247   93.0690 C   0  0  0  0  0  0  0  0  0  0  0  0
   67.9194   74.8423   92.9008 C   0  0  0  0  0  0  0  0  0  0  0  0
   68.0633   75.9220   92.0126 C   0  0  0  0  0  0  0  0  0  0  0  0
   69.2689   76.0701   91.3022 C   0  0  0  0  0  0  0  0  0  0  0  0
   66.9340   76.8410   91.7437 C   0  0  0  0  0  0  0  0  0  0  0  0
   67.1413   78.2301   91.7646 C   0  0  0  0  0  0  0  0  0  0  0  0
   66.0566   79.1078   91.6893 C   0  0  0  0  0  0  0  0  0  0  0  0
   64.7572   78.6056   91.5919 C   0  0  0  0  0  0  0  0  0  0  0  0
   64.5391   77.2218   91.5298 C   0  0  0  0  0  0  0  0  0  0  0  0
   65.6284   76.3442   91.5790 C   0  0  0  0  0  0  0  0  0  0  0  0
   63.2456   76.7101   91.4124 O   0  0  0  0  0  0  0  0  0  0  0  0
   62.8843   75.8669   90.3583 C   0  0  0  0  0  0  0  0  0  0  0  0
   62.0189   74.7838   90.5759 C   0  0  0  0  0  0  0  0  0  0  0  0
   61.6702   73.9433   89.5135 C   0  0  0  0  0  0  0  0  0  0  0  0
   62.1786   74.1851   88.2303 C   0  0  0  0  0  0  0  0  0  0  0  0
   61.7433   73.1318   86.9001 Cl  0  0  0  0  0  0  0  0  0  0  0  0
   63.0353   75.2727   88.0094 C   0  0  0  0  0  0  0  0  0  0  0  0
   63.3899   76.1091   89.0711 C   0  0  0  0  0  0  0  0  0  0  0  0
   71.5439   75.2665   90.6074 C   0  0  0  0  0  0  0  0  0  0  0  0
   71.5527   76.5341   89.9731 O   0  0  0  0  0  0  0  0  0  0  0  0
   72.3674   79.9754   88.9018 C   0  0  0  0  0  0  0  0  0  0  0  0
   72.5138   78.6510   89.3389 C   0  0  0  0  0  0  0  0  0  0  0  0
   71.3955   77.8237   89.4905 C   0  0  0  0  0  0  0  0  0  0  0  0
   70.1208   78.3085   89.1794 C   0  0  0  0  0  0  0  0  0  0  0  0
   69.9611   79.6159   88.7263 C   0  0  0  0  0  0  0  0  0  0  0  0
   71.0772   80.4519   88.5680 C   0  0  0  0  0  0  0  0  0  0  0  0
   70.8718   81.7263   88.0308 O   0  0  0  0  0  0  0  0  0  0  0  0
   70.0045   82.0118   87.8204 H   0  0  0  0  0  0  0  0  0  0  0  0
   74.7142   80.3255   88.8453 O   0  0  0  0  0  0  0  0  0  0  0  0
   73.5628   80.8402   88.8400 C   0  0  0  0  0  0  0  0  0  0  0  0
   73.4241   82.2252   88.7804 O   0  0  0  0  0  0  0  0  0  0  0  0
   72.5701   82.6108   88.7763 H   0  0  0  0  0  0  0  0  0  0  0  0
 31 32  2  0  0  0
 32 33  1  0  0  0
 32 23  1  0  0  0
 23 24  2  0  0  0
 24 25  1  0  0  0
 25 22  1  0  0  0
 22 21  1  0  0  0
 21  1  1  0  0  0
  1  2  2  0  0  0
  2  3  1  0  0  0
  3  4  2  0  0  0
  4  5  1  0  0  0
  5  7  1  0  0  0
  7  8  2  0  0  0
  8  9  1  0  0  0
  9 10  2  0  0  0
 10 11  1  0  0  0
 11 13  1  0  0  0
 13 14  1  0  0  0
 14 15  2  0  0  0
 15 16  1  0  0  0
 16 17  2  0  0  0
 17 18  1  0  0  0
 17 19  1  0  0  0
 19 20  2  0  0  0
 11 12  2  0  0  0
  5  6  2  0  0  0
 25 26  2  0  0  0
 26 27  1  0  0  0
 27 28  2  0  0  0
 28 29  1  0  0  0
 28 23  1  0  0  0
  6  1  1  0  0  0
 12  7  1  0  0  0
 20 14  1  0  0  0
 33 34  1  0  0  0
 29 30  1  0  0  0
M  END
> <Activity>
5.0

> <minimizedAffinity>
-7.93785

$$$$
HIPS6991


 34 37  0  0  0  0  0  0  0  0999 V2000
   67.1787   78.7429   86.2376 C   0  0  0  0  0  0  0  0  0  0  0  0
   66.8590   79.9955   85.6912 C   0  0  0  0  0  0  0  0  0  0  0  0
   67.6478   81.1144   85.9858 C   0  0  0  0  0  0  0  0  0  0  0  0
   68.7534   80.9913   86.8310 C   0  0  0  0  0  0  0  0  0  0  0  0
   69.0746   79.7478   87.4018 C   0  0  0  0  0  0  0  0  0  0  0  0
   68.2652   78.6325   87.1171 C   0  0  0  0  0  0  0  0  0  0  0  0
   70.3017   79.5777   88.2128 C   0  0  0  0  0  0  0  0  0  0  0  0
   71.2705   80.5945   88.2384 C   0  0  0  0  0  0  0  0  0  0  0  0
   72.5069   80.3773   88.8522 C   0  0  0  0  0  0  0  0  0  0  0  0
   72.7851   79.1440   89.4455 C   0  0  0  0  0  0  0  0  0  0  0  0
   71.8123   78.1343   89.4621 C   0  0  0  0  0  0  0  0  0  0  0  0
   70.5647   78.3622   88.8698 C   0  0  0  0  0  0  0  0  0  0  0  0
   72.0732   76.9050   90.0700 O   0  0  0  0  0  0  0  0  0  0  0  0
   71.1817   76.3354   90.9829 C   0  0  0  0  0  0  0  0  0  0  0  0
   70.3521   77.1475   91.7711 C   0  0  0  0  0  0  0  0  0  0  0  0
   69.4686   76.5651   92.6860 C   0  0  0  0  0  0  0  0  0  0  0  0
   69.4059   75.1709   92.8119 C   0  0  0  0  0  0  0  0  0  0  0  0
   68.3008   74.4412   93.9585 Cl  0  0  0  0  0  0  0  0  0  0  0  0
   70.2270   74.3578   92.0179 C   0  0  0  0  0  0  0  0  0  0  0  0
   71.1148   74.9386   91.1085 C   0  0  0  0  0  0  0  0  0  0  0  0
   66.3798   77.5195   85.8880 C   0  0  0  0  0  0  0  0  0  0  0  0
   66.1517   76.7521   87.0577 O   0  0  0  0  0  0  0  0  0  0  0  0
   64.5150   75.4787   90.1161 C   0  0  0  0  0  0  0  0  0  0  0  0
   64.6991   76.0025   88.8283 C   0  0  0  0  0  0  0  0  0  0  0  0
   65.9866   76.1849   88.3114 C   0  0  0  0  0  0  0  0  0  0  0  0
   67.1025   75.8185   89.0710 C   0  0  0  0  0  0  0  0  0  0  0  0
   66.9354   75.2796   90.3444 C   0  0  0  0  0  0  0  0  0  0  0  0
   65.6479   75.0899   90.8699 C   0  0  0  0  0  0  0  0  0  0  0  0
   65.5331   74.4682   92.1170 O   0  0  0  0  0  0  0  0  0  0  0  0
   66.3033   74.2231   92.5910 H   0  0  0  0  0  0  0  0  0  0  0  0
   62.9631   75.2532   91.8977 O   0  0  0  0  0  0  0  0  0  0  0  0
   63.1440   75.3850   90.6564 C   0  0  0  0  0  0  0  0  0  0  0  0
   62.0471   75.4371   89.7990 O   0  0  0  0  0  0  0  0  0  0  0  0
   62.1780   75.5350   88.8763 H   0  0  0  0  0  0  0  0  0  0  0  0
 31 32  2  0  0  0
 32 33  1  0  0  0
 32 23  1  0  0  0
 23 24  2  0  0  0
 24 25  1  0  0  0
 25 22  1  0  0  0
 22 21  1  0  0  0
 21  1  1  0  0  0
  1  2  2  0  0  0
  2  3  1  0  0  0
  3  4  2  0  0  0
  4  5  1  0  0  0
  5  7  1  0  0  0
  7  8  2  0  0  0
  8  9  1  0  0  0
  9 10  2  0  0  0
 10 11  1  0  0  0
 11 13  1  0  0  0
 13 14  1  0  0  0
 14 15  2  0  0  0
 15 16  1  0  0  0
 16 17  2  0  0  0
 17 18  1  0  0  0
 17 19  1  0  0  0
 19 20  2  0  0  0
 11 12  2  0  0  0
  5  6  2  0  0  0
 25 26  2  0  0  0
 26 27  1  0  0  0
 27 28  2  0  0  0
 28 29  1  0  0  0
 28 23  1  0  0  0
  6  1  1  0  0  0
 12  7  1  0  0  0
 20 14  1  0  0  0
 33 34  1  0  0  0
 29 30  1  0  0  0
M  END
> <Activity>
5.0

> <minimizedAffinity>
-7.89427

$$$$
HIPS6991


 34 37  0  0  0  0  0  0  0  0999 V2000
   68.3251   73.5090   92.0338 C   0  0  0  0  0  0  0  0  0  0  0  0
   69.3779   73.1470   92.8885 C   0  0  0  0  0  0  0  0  0  0  0  0
   70.6138   73.7992   92.7987 C   0  0  0  0  0  0  0  0  0  0  0  0
   70.8079   74.8092   91.8531 C   0  0  0  0  0  0  0  0  0  0  0  0
   69.7697   75.1691   90.9769 C   0  0  0  0  0  0  0  0  0  0  0  0
   68.5373   74.4951   91.0597 C   0  0  0  0  0  0  0  0  0  0  0  0
   69.9238   76.3072   90.0424 C   0  0  0  0  0  0  0  0  0  0  0  0
   71.1563   76.9746   89.9490 C   0  0  0  0  0  0  0  0  0  0  0  0
   71.2668   78.1543   89.2083 C   0  0  0  0  0  0  0  0  0  0  0  0
   70.1484   78.6761   88.5547 C   0  0  0  0  0  0  0  0  0  0  0  0
   68.9218   77.9987   88.6067 C   0  0  0  0  0  0  0  0  0  0  0  0
   68.8186   76.8033   89.3275 C   0  0  0  0  0  0  0  0  0  0  0  0
   67.8027   78.5014   87.9406 O   0  0  0  0  0  0  0  0  0  0  0  0
   67.8953   79.5939   87.0744 C   0  0  0  0  0  0  0  0  0  0  0  0
   68.7110   80.6902   87.3939 C   0  0  0  0  0  0  0  0  0  0  0  0
   68.7899   81.7807   86.5214 C   0  0  0  0  0  0  0  0  0  0  0  0
   68.0605   81.7773   85.3249 C   0  0  0  0  0  0  0  0  0  0  0  0
   68.1579   83.1433   84.2328 Cl  0  0  0  0  0  0  0  0  0  0  0  0
   67.2529   80.6783   84.9996 C   0  0  0  0  0  0  0  0  0  0  0  0
   67.1679   79.5914   85.8736 C   0  0  0  0  0  0  0  0  0  0  0  0
   66.9745   72.8620   92.1528 C   0  0  0  0  0  0  0  0  0  0  0  0
   65.9890   73.7168   91.5984 O   0  0  0  0  0  0  0  0  0  0  0  0
   64.6658   77.0337   90.6489 C   0  0  0  0  0  0  0  0  0  0  0  0
   65.4888   76.0398   91.1981 C   0  0  0  0  0  0  0  0  0  0  0  0
   65.1948   74.6854   91.0053 C   0  0  0  0  0  0  0  0  0  0  0  0
   64.0867   74.3138   90.2368 C   0  0  0  0  0  0  0  0  0  0  0  0
   63.2704   75.2892   89.6692 C   0  0  0  0  0  0  0  0  0  0  0  0
   63.5592   76.6501   89.8544 C   0  0  0  0  0  0  0  0  0  0  0  0
   62.7581   77.5868   89.1944 O   0  0  0  0  0  0  0  0  0  0  0  0
   62.0323   77.3000   88.6758 H   0  0  0  0  0  0  0  0  0  0  0  0
   65.5365   79.1696   90.0892 O   0  0  0  0  0  0  0  0  0  0  0  0
   64.9619   78.4487   90.9500 C   0  0  0  0  0  0  0  0  0  0  0  0
   64.6126   78.9908   92.1849 O   0  0  0  0  0  0  0  0  0  0  0  0
   64.1856   78.4580   92.8266 H   0  0  0  0  0  0  0  0  0  0  0  0
 31 32  2  0  0  0
 32 33  1  0  0  0
 32 23  1  0  0  0
 23 24  2  0  0  0
 24 25  1  0  0  0
 25 22  1  0  0  0
 22 21  1  0  0  0
 21  1  1  0  0  0
  1  2  2  0  0  0
  2  3  1  0  0  0
  3  4  2  0  0  0
  4  5  1  0  0  0
  5  7  1  0  0  0
  7  8  2  0  0  0
  8  9  1  0  0  0
  9 10  2  0  0  0
 10 11  1  0  0  0
 11 13  1  0  0  0
 13 14  1  0  0  0
 14 15  2  0  0  0
 15 16  1  0  0  0
 16 17  2  0  0  0
 17 18  1  0  0  0
 17 19  1  0  0  0
 19 20  2  0  0  0
 11 12  2  0  0  0
  5  6  2  0  0  0
 25 26  2  0  0  0
 26 27  1  0  0  0
 27 28  2  0  0  0
 28 29  1  0  0  0
 28 23  1  0  0  0
  6  1  1  0  0  0
 12  7  1  0  0  0
 20 14  1  0  0  0
 33 34  1  0  0  0
 29 30  1  0  0  0
M  END
> <Activity>
5.0

> <minimizedAffinity>
-7.84410

$$$$
HIPS6991


 34 37  0  0  0  0  0  0  0  0999 V2000
   70.2629   75.0464   91.3996 C   0  0  0  0  0  0  0  0  0  0  0  0
   70.1166   74.0110   92.3358 C   0  0  0  0  0  0  0  0  0  0  0  0
   68.9427   73.9060   93.0920 C   0  0  0  0  0  0  0  0  0  0  0  0
   67.9134   74.8355   92.9238 C   0  0  0  0  0  0  0  0  0  0  0  0
   68.0531   75.8896   92.0047 C   0  0  0  0  0  0  0  0  0  0  0  0
   69.2439   76.0001   91.2632 C   0  0  0  0  0  0  0  0  0  0  0  0
   66.9320   76.8192   91.7378 C   0  0  0  0  0  0  0  0  0  0  0  0
   67.1491   78.2066   91.7740 C   0  0  0  0  0  0  0  0  0  0  0  0
   66.0711   79.0927   91.7007 C   0  0  0  0  0  0  0  0  0  0  0  0
   64.7688   78.6008   91.5899 C   0  0  0  0  0  0  0  0  0  0  0  0
   64.5414   77.2193   91.5123 C   0  0  0  0  0  0  0  0  0  0  0  0
   65.6241   76.3334   91.5597 C   0  0  0  0  0  0  0  0  0  0  0  0
   63.2451   76.7179   91.3815 O   0  0  0  0  0  0  0  0  0  0  0  0
   62.8895   75.8729   90.3270 C   0  0  0  0  0  0  0  0  0  0  0  0
   63.3807   76.1021   89.0326 C   0  0  0  0  0  0  0  0  0  0  0  0
   63.0119   75.2526   87.9843 C   0  0  0  0  0  0  0  0  0  0  0  0
   62.1575   74.1685   88.2260 C   0  0  0  0  0  0  0  0  0  0  0  0
   61.6943   73.1053   86.9132 Cl  0  0  0  0  0  0  0  0  0  0  0  0
   61.6740   73.9323   89.5207 C   0  0  0  0  0  0  0  0  0  0  0  0
   62.0363   74.7841   90.5674 C   0  0  0  0  0  0  0  0  0  0  0  0
   71.4895   75.1426   90.5377 C   0  0  0  0  0  0  0  0  0  0  0  0
   71.5359   76.4176   89.9200 O   0  0  0  0  0  0  0  0  0  0  0  0
   70.0084   79.4759   88.5172 C   0  0  0  0  0  0  0  0  0  0  0  0
   70.1496   78.1869   89.0513 C   0  0  0  0  0  0  0  0  0  0  0  0
   71.4063   77.7122   89.4428 C   0  0  0  0  0  0  0  0  0  0  0  0
   72.5309   78.5360   89.3273 C   0  0  0  0  0  0  0  0  0  0  0  0
   72.4040   79.8254   88.8161 C   0  0  0  0  0  0  0  0  0  0  0  0
   71.1470   80.3112   88.4240 C   0  0  0  0  0  0  0  0  0  0  0  0
   71.0610   81.6398   87.9968 O   0  0  0  0  0  0  0  0  0  0  0  0
   71.8342   82.1666   87.9460 H   0  0  0  0  0  0  0  0  0  0  0  0
   68.5822   80.8755   87.2365 O   0  0  0  0  0  0  0  0  0  0  0  0
   68.6800   79.9045   88.0354 C   0  0  0  0  0  0  0  0  0  0  0  0
   67.5314   79.2426   88.4639 O   0  0  0  0  0  0  0  0  0  0  0  0
   67.6005   78.5208   89.0574 H   0  0  0  0  0  0  0  0  0  0  0  0
 31 32  2  0  0  0
 32 33  1  0  0  0
 32 23  1  0  0  0
 23 24  2  0  0  0
 24 25  1  0  0  0
 25 22  1  0  0  0
 22 21  1  0  0  0
 21  1  1  0  0  0
  1  2  2  0  0  0
  2  3  1  0  0  0
  3  4  2  0  0  0
  4  5  1  0  0  0
  5  7  1  0  0  0
  7  8  2  0  0  0
  8  9  1  0  0  0
  9 10  2  0  0  0
 10 11  1  0  0  0
 11 13  1  0  0  0
 13 14  1  0  0  0
 14 15  2  0  0  0
 15 16  1  0  0  0
 16 17  2  0  0  0
 17 18  1  0  0  0
 17 19  1  0  0  0
 19 20  2  0  0  0
 11 12  2  0  0  0
  5  6  2  0  0  0
 25 26  2  0  0  0
 26 27  1  0  0  0
 27 28  2  0  0  0
 28 29  1  0  0  0
 28 23  1  0  0  0
  6  1  1  0  0  0
 12  7  1  0  0  0
 20 14  1  0  0  0
 33 34  1  0  0  0
 29 30  1  0  0  0
M  END
> <Activity>
5.0

> <minimizedAffinity>
-7.77850

$$$$
HIPS6998


 35 38  0  0  0  0  0  0  0  0999 V2000
   64.1113   74.2309   91.3988 C   0  0  0  0  0  0  0  0  0  0  0  0
   63.9419   72.8548   91.1853 C   0  0  0  0  0  0  0  0  0  0  0  0
   65.0524   72.0113   91.1223 C   0  0  0  0  0  0  0  0  0  0  0  0
   66.3395   72.5305   91.2796 C   0  0  0  0  0  0  0  0  0  0  0  0
   66.5301   73.9047   91.5095 C   0  0  0  0  0  0  0  0  0  0  0  0
   65.4053   74.7476   91.5745 C   0  0  0  0  0  0  0  0  0  0  0  0
   67.8978   74.4588   91.6762 C   0  0  0  0  0  0  0  0  0  0  0  0
   68.8028   73.8684   92.5754 C   0  0  0  0  0  0  0  0  0  0  0  0
   70.0870   74.3935   92.7319 C   0  0  0  0  0  0  0  0  0  0  0  0
   70.4835   75.5136   91.9989 C   0  0  0  0  0  0  0  0  0  0  0  0
   69.5901   76.1229   91.0984 C   0  0  0  0  0  0  0  0  0  0  0  0
   68.3063   75.5865   90.9406 C   0  0  0  0  0  0  0  0  0  0  0  0
   69.9315   77.2570   90.3436 O   0  0  0  0  0  0  0  0  0  0  0  0
   70.8084   77.2651   89.2164 C   0  0  0  0  0  0  0  0  0  0  0  0
   71.5023   78.5953   89.0874 C   0  0  0  0  0  0  0  0  0  0  0  0
   72.9049   78.6712   89.0719 C   0  0  0  0  0  0  0  0  0  0  0  0
   73.5422   79.9092   88.9439 C   0  0  0  0  0  0  0  0  0  0  0  0
   72.7851   81.0789   88.8215 C   0  0  0  0  0  0  0  0  0  0  0  0
   73.5864   82.6309   88.6615 Cl  0  0  0  0  0  0  0  0  0  0  0  0
   71.3882   81.0089   88.8232 C   0  0  0  0  0  0  0  0  0  0  0  0
   70.7482   79.7725   88.9511 C   0  0  0  0  0  0  0  0  0  0  0  0
   62.9166   75.1463   91.4644 C   0  0  0  0  0  0  0  0  0  0  0  0
   63.0017   76.1684   90.4699 O   0  0  0  0  0  0  0  0  0  0  0  0
   66.0803   77.1642   88.5730 C   0  0  0  0  0  0  0  0  0  0  0  0
   64.8950   76.4870   88.9191 C   0  0  0  0  0  0  0  0  0  0  0  0
   64.1788   76.8295   90.0817 C   0  0  0  0  0  0  0  0  0  0  0  0
   64.6480   77.8661   90.8909 C   0  0  0  0  0  0  0  0  0  0  0  0
   65.8178   78.5490   90.5605 C   0  0  0  0  0  0  0  0  0  0  0  0
   66.5408   78.2068   89.4099 C   0  0  0  0  0  0  0  0  0  0  0  0
   67.7106   78.9033   89.1058 O   0  0  0  0  0  0  0  0  0  0  0  0
   68.0053   79.5922   89.6684 H   0  0  0  0  0  0  0  0  0  0  0  0
   67.9492   76.2256   87.4121 O   0  0  0  0  0  0  0  0  0  0  0  0
   66.8117   76.7636   87.3431 C   0  0  0  0  0  0  0  0  0  0  0  0
   66.2427   76.9791   86.0900 O   0  0  0  0  0  0  0  0  0  0  0  0
   65.3977   77.3781   86.0215 H   0  0  0  0  0  0  0  0  0  0  0  0
 32 33  2  0  0  0
 33 34  1  0  0  0
 33 24  1  0  0  0
 24 25  2  0  0  0
 25 26  1  0  0  0
 26 23  1  0  0  0
 23 22  1  0  0  0
 22  1  1  0  0  0
  1  2  2  0  0  0
  2  3  1  0  0  0
  3  4  2  0  0  0
  4  5  1  0  0  0
  5  7  1  0  0  0
  7  8  2  0  0  0
  8  9  1  0  0  0
  9 10  2  0  0  0
 10 11  1  0  0  0
 11 13  1  0  0  0
 13 14  1  0  0  0
 14 15  1  0  0  0
 15 16  2  0  0  0
 16 17  1  0  0  0
 17 18  2  0  0  0
 18 19  1  0  0  0
 18 20  1  0  0  0
 20 21  2  0  0  0
 11 12  2  0  0  0
  5  6  2  0  0  0
 26 27  2  0  0  0
 27 28  1  0  0  0
 28 29  2  0  0  0
 29 30  1  0  0  0
 29 24  1  0  0  0
  6  1  1  0  0  0
 12  7  1  0  0  0
 21 15  1  0  0  0
 34 35  1  0  0  0
 30 31  1  0  0  0
M  END
> <Activity>
5.3

> <minimizedAffinity>
-10.16440

$$$$
HIPS6998


 35 38  0  0  0  0  0  0  0  0999 V2000
   69.8271   75.1391   90.6939 C   0  0  0  0  0  0  0  0  0  0  0  0
   70.5269   74.7692   91.8520 C   0  0  0  0  0  0  0  0  0  0  0  0
   69.8676   74.1107   92.8914 C   0  0  0  0  0  0  0  0  0  0  0  0
   68.5083   73.8084   92.7819 C   0  0  0  0  0  0  0  0  0  0  0  0
   67.7920   74.1573   91.6231 C   0  0  0  0  0  0  0  0  0  0  0  0
   68.4648   74.8182   90.5789 C   0  0  0  0  0  0  0  0  0  0  0  0
   66.3466   73.8376   91.5052 C   0  0  0  0  0  0  0  0  0  0  0  0
   65.9255   72.5233   91.2375 C   0  0  0  0  0  0  0  0  0  0  0  0
   64.5658   72.2266   91.1243 C   0  0  0  0  0  0  0  0  0  0  0  0
   63.6109   73.2342   91.2722 C   0  0  0  0  0  0  0  0  0  0  0  0
   64.0125   74.5572   91.5341 C   0  0  0  0  0  0  0  0  0  0  0  0
   65.3773   74.8465   91.6541 C   0  0  0  0  0  0  0  0  0  0  0  0
   63.0965   75.6116   91.6813 O   0  0  0  0  0  0  0  0  0  0  0  0
   63.0809   76.8066   90.8993 C   0  0  0  0  0  0  0  0  0  0  0  0
   64.2233   76.8194   89.9183 C   0  0  0  0  0  0  0  0  0  0  0  0
   65.3405   77.6435   90.1331 C   0  0  0  0  0  0  0  0  0  0  0  0
   66.4011   77.6442   89.2219 C   0  0  0  0  0  0  0  0  0  0  0  0
   66.3588   76.8166   88.0951 C   0  0  0  0  0  0  0  0  0  0  0  0
   67.6900   76.8193   86.9531 Cl  0  0  0  0  0  0  0  0  0  0  0  0
   65.2552   75.9841   87.8822 C   0  0  0  0  0  0  0  0  0  0  0  0
   64.1933   75.9813   88.7916 C   0  0  0  0  0  0  0  0  0  0  0  0
   70.5330   75.8528   89.5704 C   0  0  0  0  0  0  0  0  0  0  0  0
   69.8484   77.0571   89.2212 O   0  0  0  0  0  0  0  0  0  0  0  0
   72.4090   79.7837   88.9432 C   0  0  0  0  0  0  0  0  0  0  0  0
   71.8448   78.5037   89.1066 C   0  0  0  0  0  0  0  0  0  0  0  0
   70.4510   78.3142   89.0478 C   0  0  0  0  0  0  0  0  0  0  0  0
   69.6230   79.4128   88.8092 C   0  0  0  0  0  0  0  0  0  0  0  0
   70.1659   80.6861   88.6415 C   0  0  0  0  0  0  0  0  0  0  0  0
   71.5516   80.8834   88.7085 C   0  0  0  0  0  0  0  0  0  0  0  0
   72.0675   82.1688   88.5421 O   0  0  0  0  0  0  0  0  0  0  0  0
   71.4889   82.8894   88.3871 H   0  0  0  0  0  0  0  0  0  0  0  0
   74.4175   81.0824   88.9733 O   0  0  0  0  0  0  0  0  0  0  0  0
   73.8843   79.9415   89.0237 C   0  0  0  0  0  0  0  0  0  0  0  0
   74.7009   78.8210   89.1580 O   0  0  0  0  0  0  0  0  0  0  0  0
   74.3201   77.9658   89.1970 H   0  0  0  0  0  0  0  0  0  0  0  0
 32 33  2  0  0  0
 33 34  1  0  0  0
 33 24  1  0  0  0
 24 25  2  0  0  0
 25 26  1  0  0  0
 26 23  1  0  0  0
 23 22  1  0  0  0
 22  1  1  0  0  0
  1  2  2  0  0  0
  2  3  1  0  0  0
  3  4  2  0  0  0
  4  5  1  0  0  0
  5  7  1  0  0  0
  7  8  2  0  0  0
  8  9  1  0  0  0
  9 10  2  0  0  0
 10 11  1  0  0  0
 11 13  1  0  0  0
 13 14  1  0  0  0
 14 15  1  0  0  0
 15 16  2  0  0  0
 16 17  1  0  0  0
 17 18  2  0  0  0
 18 19  1  0  0  0
 18 20  1  0  0  0
 20 21  2  0  0  0
 11 12  2  0  0  0
  5  6  2  0  0  0
 26 27  2  0  0  0
 27 28  1  0  0  0
 28 29  2  0  0  0
 29 30  1  0  0  0
 29 24  1  0  0  0
  6  1  1  0  0  0
 12  7  1  0  0  0
 21 15  1  0  0  0
 34 35  1  0  0  0
 30 31  1  0  0  0
M  END
> <Activity>
5.3

> <minimizedAffinity>
-9.94551

$$$$
HIPS6998


 35 38  0  0  0  0  0  0  0  0999 V2000
   69.8783   74.9252   90.8755 C   0  0  0  0  0  0  0  0  0  0  0  0
   70.4808   74.6357   92.1088 C   0  0  0  0  0  0  0  0  0  0  0  0
   69.7189   74.1231   93.1602 C   0  0  0  0  0  0  0  0  0  0  0  0
   68.3529   73.8873   92.9888 C   0  0  0  0  0  0  0  0  0  0  0  0
   67.7327   74.1567   91.7557 C   0  0  0  0  0  0  0  0  0  0  0  0
   68.5084   74.6704   90.7003 C   0  0  0  0  0  0  0  0  0  0  0  0
   66.2803   73.9074   91.5718 C   0  0  0  0  0  0  0  0  0  0  0  0
   65.8025   72.6051   91.3436 C   0  0  0  0  0  0  0  0  0  0  0  0
   64.4367   72.3746   91.1681 C   0  0  0  0  0  0  0  0  0  0  0  0
   63.5320   73.4370   91.2138 C   0  0  0  0  0  0  0  0  0  0  0  0
   63.9911   74.7487   91.4348 C   0  0  0  0  0  0  0  0  0  0  0  0
   65.3614   74.9719   91.6176 C   0  0  0  0  0  0  0  0  0  0  0  0
   63.1279   75.8557   91.4798 O   0  0  0  0  0  0  0  0  0  0  0  0
   63.4578   77.1775   91.0512 C   0  0  0  0  0  0  0  0  0  0  0  0
   64.5714   77.1495   90.0379 C   0  0  0  0  0  0  0  0  0  0  0  0
   65.7116   77.9524   90.2067 C   0  0  0  0  0  0  0  0  0  0  0  0
   66.7452   77.9152   89.2657 C   0  0  0  0  0  0  0  0  0  0  0  0
   66.6527   77.0705   88.1548 C   0  0  0  0  0  0  0  0  0  0  0  0
   67.9501   77.0257   86.9753 Cl  0  0  0  0  0  0  0  0  0  0  0  0
   65.5260   76.2589   87.9875 C   0  0  0  0  0  0  0  0  0  0  0  0
   64.4910   76.2940   88.9268 C   0  0  0  0  0  0  0  0  0  0  0  0
   70.6952   75.4816   89.7385 C   0  0  0  0  0  0  0  0  0  0  0  0
   70.1427   76.7121   89.2677 O   0  0  0  0  0  0  0  0  0  0  0  0
   70.9558   80.3620   88.9763 C   0  0  0  0  0  0  0  0  0  0  0  0
   70.2143   79.1757   89.1379 C   0  0  0  0  0  0  0  0  0  0  0  0
   70.8480   77.9187   89.1255 C   0  0  0  0  0  0  0  0  0  0  0  0
   72.2336   77.8552   88.9652 C   0  0  0  0  0  0  0  0  0  0  0  0
   72.9828   79.0205   88.8077 C   0  0  0  0  0  0  0  0  0  0  0  0
   72.3572   80.2744   88.8093 C   0  0  0  0  0  0  0  0  0  0  0  0
   73.1304   81.4238   88.6448 O   0  0  0  0  0  0  0  0  0  0  0  0
   74.0582   81.3526   88.5350 H   0  0  0  0  0  0  0  0  0  0  0  0
   70.4128   82.4898   89.9246 O   0  0  0  0  0  0  0  0  0  0  0  0
   70.2462   81.6675   88.9842 C   0  0  0  0  0  0  0  0  0  0  0  0
   69.3826   82.0000   87.9430 O   0  0  0  0  0  0  0  0  0  0  0  0
   69.2478   81.3997   87.2363 H   0  0  0  0  0  0  0  0  0  0  0  0
 32 33  2  0  0  0
 33 34  1  0  0  0
 33 24  1  0  0  0
 24 25  2  0  0  0
 25 26  1  0  0  0
 26 23  1  0  0  0
 23 22  1  0  0  0
 22  1  1  0  0  0
  1  2  2  0  0  0
  2  3  1  0  0  0
  3  4  2  0  0  0
  4  5  1  0  0  0
  5  7  1  0  0  0
  7  8  2  0  0  0
  8  9  1  0  0  0
  9 10  2  0  0  0
 10 11  1  0  0  0
 11 13  1  0  0  0
 13 14  1  0  0  0
 14 15  1  0  0  0
 15 16  2  0  0  0
 16 17  1  0  0  0
 17 18  2  0  0  0
 18 19  1  0  0  0
 18 20  1  0  0  0
 20 21  2  0  0  0
 11 12  2  0  0  0
  5  6  2  0  0  0
 26 27  2  0  0  0
 27 28  1  0  0  0
 28 29  2  0  0  0
 29 30  1  0  0  0
 29 24  1  0  0  0
  6  1  1  0  0  0
 12  7  1  0  0  0
 21 15  1  0  0  0
 34 35  1  0  0  0
 30 31  1  0  0  0
M  END
> <Activity>
5.3

> <minimizedAffinity>
-9.62806

$$$$
HIPS6998


 35 38  0  0  0  0  0  0  0  0999 V2000
   69.7329   74.9769   90.6704 C   0  0  0  0  0  0  0  0  0  0  0  0
   70.2839   74.8410   91.9534 C   0  0  0  0  0  0  0  0  0  0  0  0
   69.4819   74.4419   93.0240 C   0  0  0  0  0  0  0  0  0  0  0  0
   68.1272   74.1673   92.8236 C   0  0  0  0  0  0  0  0  0  0  0  0
   67.5587   74.2829   91.5425 C   0  0  0  0  0  0  0  0  0  0  0  0
   68.3747   74.6829   90.4682 C   0  0  0  0  0  0  0  0  0  0  0  0
   66.1184   73.9922   91.3275 C   0  0  0  0  0  0  0  0  0  0  0  0
   65.6235   72.6850   91.4782 C   0  0  0  0  0  0  0  0  0  0  0  0
   64.2693   72.4145   91.2725 C   0  0  0  0  0  0  0  0  0  0  0  0
   63.3937   73.4400   90.9110 C   0  0  0  0  0  0  0  0  0  0  0  0
   63.8707   74.7540   90.7490 C   0  0  0  0  0  0  0  0  0  0  0  0
   65.2286   75.0198   90.9644 C   0  0  0  0  0  0  0  0  0  0  0  0
   63.0378   75.8216   90.3764 O   0  0  0  0  0  0  0  0  0  0  0  0
   63.4505   76.9708   89.6357 C   0  0  0  0  0  0  0  0  0  0  0  0
   64.6574   77.6110   90.2692 C   0  0  0  0  0  0  0  0  0  0  0  0
   64.5363   78.3354   91.4667 C   0  0  0  0  0  0  0  0  0  0  0  0
   65.6628   78.9204   92.0533 C   0  0  0  0  0  0  0  0  0  0  0  0
   66.9189   78.7793   91.4544 C   0  0  0  0  0  0  0  0  0  0  0  0
   68.3306   79.5143   92.1916 Cl  0  0  0  0  0  0  0  0  0  0  0  0
   67.0484   78.0484   90.2691 C   0  0  0  0  0  0  0  0  0  0  0  0
   65.9239   77.4624   89.6803 C   0  0  0  0  0  0  0  0  0  0  0  0
   70.5931   75.4104   89.5120 C   0  0  0  0  0  0  0  0  0  0  0  0
   71.0703   76.7435   89.7017 O   0  0  0  0  0  0  0  0  0  0  0  0
   70.3692   80.3263   88.8414 C   0  0  0  0  0  0  0  0  0  0  0  0
   70.9661   79.1943   89.4293 C   0  0  0  0  0  0  0  0  0  0  0  0
   70.5124   77.8968   89.1252 C   0  0  0  0  0  0  0  0  0  0  0  0
   69.4651   77.7363   88.2158 C   0  0  0  0  0  0  0  0  0  0  0  0
   68.8659   78.8465   87.6222 C   0  0  0  0  0  0  0  0  0  0  0  0
   69.3061   80.1413   87.9278 C   0  0  0  0  0  0  0  0  0  0  0  0
   68.6852   81.2344   87.3230 O   0  0  0  0  0  0  0  0  0  0  0  0
   67.9817   81.0987   86.7192 H   0  0  0  0  0  0  0  0  0  0  0  0
   71.9439   82.1219   88.7075 O   0  0  0  0  0  0  0  0  0  0  0  0
   70.8712   81.6785   89.1985 C   0  0  0  0  0  0  0  0  0  0  0  0
   70.1551   82.4780   90.0865 O   0  0  0  0  0  0  0  0  0  0  0  0
   69.3557   82.1631   90.4603 H   0  0  0  0  0  0  0  0  0  0  0  0
 32 33  2  0  0  0
 33 34  1  0  0  0
 33 24  1  0  0  0
 24 25  2  0  0  0
 25 26  1  0  0  0
 26 23  1  0  0  0
 23 22  1  0  0  0
 22  1  1  0  0  0
  1  2  2  0  0  0
  2  3  1  0  0  0
  3  4  2  0  0  0
  4  5  1  0  0  0
  5  7  1  0  0  0
  7  8  2  0  0  0
  8  9  1  0  0  0
  9 10  2  0  0  0
 10 11  1  0  0  0
 11 13  1  0  0  0
 13 14  1  0  0  0
 14 15  1  0  0  0
 15 16  2  0  0  0
 16 17  1  0  0  0
 17 18  2  0  0  0
 18 19  1  0  0  0
 18 20  1  0  0  0
 20 21  2  0  0  0
 11 12  2  0  0  0
  5  6  2  0  0  0
 26 27  2  0  0  0
 27 28  1  0  0  0
 28 29  2  0  0  0
 29 30  1  0  0  0
 29 24  1  0  0  0
  6  1  1  0  0  0
 12  7  1  0  0  0
 21 15  1  0  0  0
 34 35  1  0  0  0
 30 31  1  0  0  0
M  END
> <Activity>
5.3

> <minimizedAffinity>
-9.35546

$$$$
HIPS6998


 35 38  0  0  0  0  0  0  0  0999 V2000
   69.7469   75.1350   90.5628 C   0  0  0  0  0  0  0  0  0  0  0  0
   70.3755   74.8879   91.7923 C   0  0  0  0  0  0  0  0  0  0  0  0
   69.6486   74.3573   92.8593 C   0  0  0  0  0  0  0  0  0  0  0  0
   68.2921   74.0611   92.7076 C   0  0  0  0  0  0  0  0  0  0  0  0
   67.6466   74.2872   91.4789 C   0  0  0  0  0  0  0  0  0  0  0  0
   68.3872   74.8195   90.4075 C   0  0  0  0  0  0  0  0  0  0  0  0
   66.2042   73.9737   91.3158 C   0  0  0  0  0  0  0  0  0  0  0  0
   65.7441   72.6500   91.4272 C   0  0  0  0  0  0  0  0  0  0  0  0
   64.3878   72.3582   91.2704 C   0  0  0  0  0  0  0  0  0  0  0  0
   63.4752   73.3789   90.9975 C   0  0  0  0  0  0  0  0  0  0  0  0
   63.9168   74.7095   90.8760 C   0  0  0  0  0  0  0  0  0  0  0  0
   65.2774   74.9962   91.0420 C   0  0  0  0  0  0  0  0  0  0  0  0
   63.0455   75.7737   90.5920 O   0  0  0  0  0  0  0  0  0  0  0  0
   63.3869   76.9439   89.8477 C   0  0  0  0  0  0  0  0  0  0  0  0
   64.6342   77.5834   90.3981 C   0  0  0  0  0  0  0  0  0  0  0  0
   65.8606   77.4530   89.7256 C   0  0  0  0  0  0  0  0  0  0  0  0
   67.0131   78.0562   90.2386 C   0  0  0  0  0  0  0  0  0  0  0  0
   66.9485   78.8010   91.4208 C   0  0  0  0  0  0  0  0  0  0  0  0
   68.3954   79.5565   92.0628 Cl  0  0  0  0  0  0  0  0  0  0  0  0
   65.7280   78.9455   92.0883 C   0  0  0  0  0  0  0  0  0  0  0  0
   64.5741   78.3434   91.5778 C   0  0  0  0  0  0  0  0  0  0  0  0
   70.5259   75.7106   89.4089 C   0  0  0  0  0  0  0  0  0  0  0  0
   70.8623   77.0776   89.6517 O   0  0  0  0  0  0  0  0  0  0  0  0
   68.6483   79.2045   87.4971 C   0  0  0  0  0  0  0  0  0  0  0  0
   69.1777   78.0732   88.1477 C   0  0  0  0  0  0  0  0  0  0  0  0
   70.2950   78.1835   88.9971 C   0  0  0  0  0  0  0  0  0  0  0  0
   70.8726   79.4376   89.2046 C   0  0  0  0  0  0  0  0  0  0  0  0
   70.3583   80.5682   88.5710 C   0  0  0  0  0  0  0  0  0  0  0  0
   69.2524   80.4640   87.7167 C   0  0  0  0  0  0  0  0  0  0  0  0
   68.7615   81.6105   87.0918 O   0  0  0  0  0  0  0  0  0  0  0  0
   69.1706   82.4394   87.2454 H   0  0  0  0  0  0  0  0  0  0  0  0
   67.0339   80.0131   85.9283 O   0  0  0  0  0  0  0  0  0  0  0  0
   67.4749   79.0422   86.6001 C   0  0  0  0  0  0  0  0  0  0  0  0
   66.8451   77.8047   86.4899 O   0  0  0  0  0  0  0  0  0  0  0  0
   67.1607   77.0728   86.9826 H   0  0  0  0  0  0  0  0  0  0  0  0
 32 33  2  0  0  0
 33 34  1  0  0  0
 33 24  1  0  0  0
 24 25  2  0  0  0
 25 26  1  0  0  0
 26 23  1  0  0  0
 23 22  1  0  0  0
 22  1  1  0  0  0
  1  2  2  0  0  0
  2  3  1  0  0  0
  3  4  2  0  0  0
  4  5  1  0  0  0
  5  7  1  0  0  0
  7  8  2  0  0  0
  8  9  1  0  0  0
  9 10  2  0  0  0
 10 11  1  0  0  0
 11 13  1  0  0  0
 13 14  1  0  0  0
 14 15  1  0  0  0
 15 16  2  0  0  0
 16 17  1  0  0  0
 17 18  2  0  0  0
 18 19  1  0  0  0
 18 20  1  0  0  0
 20 21  2  0  0  0
 11 12  2  0  0  0
  5  6  2  0  0  0
 26 27  2  0  0  0
 27 28  1  0  0  0
 28 29  2  0  0  0
 29 30  1  0  0  0
 29 24  1  0  0  0
  6  1  1  0  0  0
 12  7  1  0  0  0
 21 15  1  0  0  0
 34 35  1  0  0  0
 30 31  1  0  0  0
M  END
> <Activity>
5.3

> <minimizedAffinity>
-9.33784

$$$$
HIPS6998


 35 38  0  0  0  0  0  0  0  0999 V2000
   68.9100   74.7714   91.6479 C   0  0  0  0  0  0  0  0  0  0  0  0
   70.3079   74.6616   91.6880 C   0  0  0  0  0  0  0  0  0  0  0  0
   71.0874   75.2397   90.6846 C   0  0  0  0  0  0  0  0  0  0  0  0
   70.4812   75.9384   89.6381 C   0  0  0  0  0  0  0  0  0  0  0  0
   69.0823   76.0729   89.5874 C   0  0  0  0  0  0  0  0  0  0  0  0
   68.3041   75.4897   90.6043 C   0  0  0  0  0  0  0  0  0  0  0  0
   68.4358   76.8147   88.4752 C   0  0  0  0  0  0  0  0  0  0  0  0
   67.6035   76.1468   87.5601 C   0  0  0  0  0  0  0  0  0  0  0  0
   66.9996   76.8466   86.5137 C   0  0  0  0  0  0  0  0  0  0  0  0
   67.2199   78.2171   86.3639 C   0  0  0  0  0  0  0  0  0  0  0  0
   68.0549   78.9025   87.2657 C   0  0  0  0  0  0  0  0  0  0  0  0
   68.6513   78.1961   88.3174 C   0  0  0  0  0  0  0  0  0  0  0  0
   68.3202   80.2773   87.1568 O   0  0  0  0  0  0  0  0  0  0  0  0
   68.8530   81.1000   88.1957 C   0  0  0  0  0  0  0  0  0  0  0  0
   70.3065   80.7868   88.4342 C   0  0  0  0  0  0  0  0  0  0  0  0
   71.2746   81.8033   88.3812 C   0  0  0  0  0  0  0  0  0  0  0  0
   72.6215   81.5063   88.6116 C   0  0  0  0  0  0  0  0  0  0  0  0
   73.0107   80.1953   88.9052 C   0  0  0  0  0  0  0  0  0  0  0  0
   74.7007   79.8248   89.1934 Cl  0  0  0  0  0  0  0  0  0  0  0  0
   72.0501   79.1810   88.9723 C   0  0  0  0  0  0  0  0  0  0  0  0
   70.7028   79.4749   88.7424 C   0  0  0  0  0  0  0  0  0  0  0  0
   68.0637   74.1468   92.7265 C   0  0  0  0  0  0  0  0  0  0  0  0
   66.7816   74.7732   92.7960 O   0  0  0  0  0  0  0  0  0  0  0  0
   64.0717   75.3481   90.2675 C   0  0  0  0  0  0  0  0  0  0  0  0
   65.1430   75.6002   91.1461 C   0  0  0  0  0  0  0  0  0  0  0  0
   65.7227   74.5605   91.8978 C   0  0  0  0  0  0  0  0  0  0  0  0
   65.2334   73.2607   91.7542 C   0  0  0  0  0  0  0  0  0  0  0  0
   64.1758   72.9937   90.8858 C   0  0  0  0  0  0  0  0  0  0  0  0
   63.5878   74.0254   90.1420 C   0  0  0  0  0  0  0  0  0  0  0  0
   62.5277   73.7308   89.2844 O   0  0  0  0  0  0  0  0  0  0  0  0
   62.2161   72.8503   89.2100 H   0  0  0  0  0  0  0  0  0  0  0  0
   62.7065   76.2644   88.5302 O   0  0  0  0  0  0  0  0  0  0  0  0
   63.4814   76.4761   89.5013 C   0  0  0  0  0  0  0  0  0  0  0  0
   63.7795   77.7909   89.8516 O   0  0  0  0  0  0  0  0  0  0  0  0
   64.3539   77.9653   90.5711 H   0  0  0  0  0  0  0  0  0  0  0  0
 32 33  2  0  0  0
 33 34  1  0  0  0
 33 24  1  0  0  0
 24 25  2  0  0  0
 25 26  1  0  0  0
 26 23  1  0  0  0
 23 22  1  0  0  0
 22  1  1  0  0  0
  1  2  2  0  0  0
  2  3  1  0  0  0
  3  4  2  0  0  0
  4  5  1  0  0  0
  5  7  1  0  0  0
  7  8  2  0  0  0
  8  9  1  0  0  0
  9 10  2  0  0  0
 10 11  1  0  0  0
 11 13  1  0  0  0
 13 14  1  0  0  0
 14 15  1  0  0  0
 15 16  2  0  0  0
 16 17  1  0  0  0
 17 18  2  0  0  0
 18 19  1  0  0  0
 18 20  1  0  0  0
 20 21  2  0  0  0
 11 12  2  0  0  0
  5  6  2  0  0  0
 26 27  2  0  0  0
 27 28  1  0  0  0
 28 29  2  0  0  0
 29 30  1  0  0  0
 29 24  1  0  0  0
  6  1  1  0  0  0
 12  7  1  0  0  0
 21 15  1  0  0  0
 34 35  1  0  0  0
 30 31  1  0  0  0
M  END
> <Activity>
5.3

> <minimizedAffinity>
-9.25384

$$$$
HIPS6998


 35 38  0  0  0  0  0  0  0  0999 V2000
   65.4493   76.0946   88.6802 C   0  0  0  0  0  0  0  0  0  0  0  0
   64.2464   75.6189   89.2230 C   0  0  0  0  0  0  0  0  0  0  0  0
   64.1059   75.4782   90.6047 C   0  0  0  0  0  0  0  0  0  0  0  0
   65.1594   75.8178   91.4567 C   0  0  0  0  0  0  0  0  0  0  0  0
   66.3682   76.3106   90.9336 C   0  0  0  0  0  0  0  0  0  0  0  0
   66.5005   76.4522   89.5400 C   0  0  0  0  0  0  0  0  0  0  0  0
   67.4896   76.6714   91.8378 C   0  0  0  0  0  0  0  0  0  0  0  0
   68.7309   76.0202   91.7310 C   0  0  0  0  0  0  0  0  0  0  0  0
   69.7823   76.3597   92.5845 C   0  0  0  0  0  0  0  0  0  0  0  0
   69.6095   77.3476   93.5557 C   0  0  0  0  0  0  0  0  0  0  0  0
   68.3727   78.0067   93.6829 C   0  0  0  0  0  0  0  0  0  0  0  0
   67.3247   77.6667   92.8185 C   0  0  0  0  0  0  0  0  0  0  0  0
   68.1394   78.9998   94.6481 O   0  0  0  0  0  0  0  0  0  0  0  0
   68.9428   80.1640   94.8455 C   0  0  0  0  0  0  0  0  0  0  0  0
   68.0989   81.3266   95.2966 C   0  0  0  0  0  0  0  0  0  0  0  0
   67.1226   81.8732   94.4472 C   0  0  0  0  0  0  0  0  0  0  0  0
   66.3372   82.9477   94.8760 C   0  0  0  0  0  0  0  0  0  0  0  0
   66.5141   83.4786   96.1579 C   0  0  0  0  0  0  0  0  0  0  0  0
   65.5283   84.8269   96.6937 Cl  0  0  0  0  0  0  0  0  0  0  0  0
   67.4755   82.9307   97.0133 C   0  0  0  0  0  0  0  0  0  0  0  0
   68.2622   81.8563   96.5872 C   0  0  0  0  0  0  0  0  0  0  0  0
   65.6074   76.2453   87.1895 C   0  0  0  0  0  0  0  0  0  0  0  0
   66.9690   76.5063   86.8447 O   0  0  0  0  0  0  0  0  0  0  0  0
   68.0421   80.0849   87.1771 C   0  0  0  0  0  0  0  0  0  0  0  0
   67.2824   78.9543   86.8194 C   0  0  0  0  0  0  0  0  0  0  0  0
   67.6899   77.6601   87.1949 C   0  0  0  0  0  0  0  0  0  0  0  0
   68.8570   77.5036   87.9451 C   0  0  0  0  0  0  0  0  0  0  0  0
   69.6185   78.6129   88.3106 C   0  0  0  0  0  0  0  0  0  0  0  0
   69.2239   79.9030   87.9319 C   0  0  0  0  0  0  0  0  0  0  0  0
   70.0072   80.9947   88.3069 O   0  0  0  0  0  0  0  0  0  0  0  0
   70.7882   80.8612   88.8071 H   0  0  0  0  0  0  0  0  0  0  0  0
   68.1531   82.0431   85.8081 O   0  0  0  0  0  0  0  0  0  0  0  0
   67.5822   81.4320   86.7509 C   0  0  0  0  0  0  0  0  0  0  0  0
   66.5053   82.0387   87.3932 O   0  0  0  0  0  0  0  0  0  0  0  0
   66.0699   81.5976   88.0959 H   0  0  0  0  0  0  0  0  0  0  0  0
 32 33  2  0  0  0
 33 34  1  0  0  0
 33 24  1  0  0  0
 24 25  2  0  0  0
 25 26  1  0  0  0
 26 23  1  0  0  0
 23 22  1  0  0  0
 22  1  1  0  0  0
  1  2  2  0  0  0
  2  3  1  0  0  0
  3  4  2  0  0  0
  4  5  1  0  0  0
  5  7  1  0  0  0
  7  8  2  0  0  0
  8  9  1  0  0  0
  9 10  2  0  0  0
 10 11  1  0  0  0
 11 13  1  0  0  0
 13 14  1  0  0  0
 14 15  1  0  0  0
 15 16  2  0  0  0
 16 17  1  0  0  0
 17 18  2  0  0  0
 18 19  1  0  0  0
 18 20  1  0  0  0
 20 21  2  0  0  0
 11 12  2  0  0  0
  5  6  2  0  0  0
 26 27  2  0  0  0
 27 28  1  0  0  0
 28 29  2  0  0  0
 29 30  1  0  0  0
 29 24  1  0  0  0
  6  1  1  0  0  0
 12  7  1  0  0  0
 21 15  1  0  0  0
 34 35  1  0  0  0
 30 31  1  0  0  0
M  END
> <Activity>
5.3

> <minimizedAffinity>
-9.07821

$$$$
HIPS6998


 35 38  0  0  0  0  0  0  0  0999 V2000
   67.9661   78.6693   87.5751 C   0  0  0  0  0  0  0  0  0  0  0  0
   68.8018   79.7033   87.1275 C   0  0  0  0  0  0  0  0  0  0  0  0
   69.7388   80.2734   87.9910 C   0  0  0  0  0  0  0  0  0  0  0  0
   69.8562   79.8126   89.3043 C   0  0  0  0  0  0  0  0  0  0  0  0
   69.0384   78.7669   89.7683 C   0  0  0  0  0  0  0  0  0  0  0  0
   68.0986   78.1958   88.8906 C   0  0  0  0  0  0  0  0  0  0  0  0
   69.1612   78.2762   91.1644 C   0  0  0  0  0  0  0  0  0  0  0  0
   69.8242   77.0678   91.4410 C   0  0  0  0  0  0  0  0  0  0  0  0
   69.9354   76.6077   92.7545 C   0  0  0  0  0  0  0  0  0  0  0  0
   69.3851   77.3423   93.8065 C   0  0  0  0  0  0  0  0  0  0  0  0
   68.7119   78.5510   93.5498 C   0  0  0  0  0  0  0  0  0  0  0  0
   68.6107   79.0106   92.2309 C   0  0  0  0  0  0  0  0  0  0  0  0
   68.1302   79.3249   94.5672 O   0  0  0  0  0  0  0  0  0  0  0  0
   68.8145   80.2980   95.3576 C   0  0  0  0  0  0  0  0  0  0  0  0
   67.9435   81.5032   95.5950 C   0  0  0  0  0  0  0  0  0  0  0  0
   68.0231   82.2157   96.8031 C   0  0  0  0  0  0  0  0  0  0  0  0
   67.2169   83.3386   97.0133 C   0  0  0  0  0  0  0  0  0  0  0  0
   66.3324   83.7639   96.0167 C   0  0  0  0  0  0  0  0  0  0  0  0
   65.3216   85.1725   96.2826 Cl  0  0  0  0  0  0  0  0  0  0  0  0
   66.2576   83.0667   94.8066 C   0  0  0  0  0  0  0  0  0  0  0  0
   67.0624   81.9435   94.5936 C   0  0  0  0  0  0  0  0  0  0  0  0
   66.9509   78.0527   86.6484 C   0  0  0  0  0  0  0  0  0  0  0  0
   66.7022   76.6900   86.9981 O   0  0  0  0  0  0  0  0  0  0  0  0
   64.8057   76.0900   90.1779 C   0  0  0  0  0  0  0  0  0  0  0  0
   65.1195   76.5580   88.8872 C   0  0  0  0  0  0  0  0  0  0  0  0
   66.3451   76.2307   88.2767 C   0  0  0  0  0  0  0  0  0  0  0  0
   67.2516   75.4179   88.9601 C   0  0  0  0  0  0  0  0  0  0  0  0
   66.9546   74.9432   90.2371 C   0  0  0  0  0  0  0  0  0  0  0  0
   65.7407   75.2732   90.8545 C   0  0  0  0  0  0  0  0  0  0  0  0
   65.4716   74.7886   92.1347 O   0  0  0  0  0  0  0  0  0  0  0  0
   66.0993   74.2481   92.5726 H   0  0  0  0  0  0  0  0  0  0  0  0
   63.3966   77.5150   91.4838 O   0  0  0  0  0  0  0  0  0  0  0  0
   63.5058   76.4683   90.7903 C   0  0  0  0  0  0  0  0  0  0  0  0
   62.3840   75.6643   90.6020 O   0  0  0  0  0  0  0  0  0  0  0  0
   62.4484   74.8828   90.0890 H   0  0  0  0  0  0  0  0  0  0  0  0
 32 33  2  0  0  0
 33 34  1  0  0  0
 33 24  1  0  0  0
 24 25  2  0  0  0
 25 26  1  0  0  0
 26 23  1  0  0  0
 23 22  1  0  0  0
 22  1  1  0  0  0
  1  2  2  0  0  0
  2  3  1  0  0  0
  3  4  2  0  0  0
  4  5  1  0  0  0
  5  7  1  0  0  0
  7  8  2  0  0  0
  8  9  1  0  0  0
  9 10  2  0  0  0
 10 11  1  0  0  0
 11 13  1  0  0  0
 13 14  1  0  0  0
 14 15  1  0  0  0
 15 16  2  0  0  0
 16 17  1  0  0  0
 17 18  2  0  0  0
 18 19  1  0  0  0
 18 20  1  0  0  0
 20 21  2  0  0  0
 11 12  2  0  0  0
  5  6  2  0  0  0
 26 27  2  0  0  0
 27 28  1  0  0  0
 28 29  2  0  0  0
 29 30  1  0  0  0
 29 24  1  0  0  0
  6  1  1  0  0  0
 12  7  1  0  0  0
 21 15  1  0  0  0
 34 35  1  0  0  0
 30 31  1  0  0  0
M  END
> <Activity>
5.3

> <minimizedAffinity>
-8.86596

$$$$
HIPS6998


 35 38  0  0  0  0  0  0  0  0999 V2000
   71.3528   80.3033   88.4816 C   0  0  0  0  0  0  0  0  0  0  0  0
   72.7302   80.2300   88.2264 C   0  0  0  0  0  0  0  0  0  0  0  0
   73.4744   79.1443   88.6914 C   0  0  0  0  0  0  0  0  0  0  0  0
   72.8511   78.1195   89.4069 C   0  0  0  0  0  0  0  0  0  0  0  0
   71.4686   78.1664   89.6605 C   0  0  0  0  0  0  0  0  0  0  0  0
   70.7253   79.2627   89.1858 C   0  0  0  0  0  0  0  0  0  0  0  0
   70.8042   77.0782   90.4218 C   0  0  0  0  0  0  0  0  0  0  0  0
   71.4203   75.8218   90.5566 C   0  0  0  0  0  0  0  0  0  0  0  0
   70.7915   74.7999   91.2705 C   0  0  0  0  0  0  0  0  0  0  0  0
   69.5419   75.0152   91.8547 C   0  0  0  0  0  0  0  0  0  0  0  0
   68.9059   76.2638   91.7257 C   0  0  0  0  0  0  0  0  0  0  0  0
   69.5454   77.2868   91.0149 C   0  0  0  0  0  0  0  0  0  0  0  0
   67.6451   76.5326   92.2829 O   0  0  0  0  0  0  0  0  0  0  0  0
   66.6844   77.4449   91.7495 C   0  0  0  0  0  0  0  0  0  0  0  0
   65.5638   76.7046   91.0683 C   0  0  0  0  0  0  0  0  0  0  0  0
   65.4798   75.3046   91.1481 C   0  0  0  0  0  0  0  0  0  0  0  0
   64.4320   74.6247   90.5196 C   0  0  0  0  0  0  0  0  0  0  0  0
   63.4560   75.3369   89.8149 C   0  0  0  0  0  0  0  0  0  0  0  0
   62.1427   74.4821   89.0269 Cl  0  0  0  0  0  0  0  0  0  0  0  0
   63.5267   76.7319   89.7425 C   0  0  0  0  0  0  0  0  0  0  0  0
   64.5732   77.4144   90.3699 C   0  0  0  0  0  0  0  0  0  0  0  0
   70.5454   81.4742   87.9850 C   0  0  0  0  0  0  0  0  0  0  0  0
   69.1458   81.2272   88.1301 O   0  0  0  0  0  0  0  0  0  0  0  0
   67.6059   77.9307   87.2195 C   0  0  0  0  0  0  0  0  0  0  0  0
   68.3287   78.9068   87.9323 C   0  0  0  0  0  0  0  0  0  0  0  0
   68.4220   80.2288   87.4573 C   0  0  0  0  0  0  0  0  0  0  0  0
   67.7741   80.5739   86.2696 C   0  0  0  0  0  0  0  0  0  0  0  0
   67.0514   79.6203   85.5538 C   0  0  0  0  0  0  0  0  0  0  0  0
   66.9625   78.3003   86.0159 C   0  0  0  0  0  0  0  0  0  0  0  0
   66.2369   77.3655   85.2772 O   0  0  0  0  0  0  0  0  0  0  0  0
   65.8150   77.6228   84.4811 H   0  0  0  0  0  0  0  0  0  0  0  0
   66.4351   75.9657   87.9192 O   0  0  0  0  0  0  0  0  0  0  0  0
   67.5419   76.5443   87.7502 C   0  0  0  0  0  0  0  0  0  0  0  0
   68.7144   75.8628   88.0684 O   0  0  0  0  0  0  0  0  0  0  0  0
   69.5453   76.2788   87.9485 H   0  0  0  0  0  0  0  0  0  0  0  0
 32 33  2  0  0  0
 33 34  1  0  0  0
 33 24  1  0  0  0
 24 25  2  0  0  0
 25 26  1  0  0  0
 26 23  1  0  0  0
 23 22  1  0  0  0
 22  1  1  0  0  0
  1  2  2  0  0  0
  2  3  1  0  0  0
  3  4  2  0  0  0
  4  5  1  0  0  0
  5  7  1  0  0  0
  7  8  2  0  0  0
  8  9  1  0  0  0
  9 10  2  0  0  0
 10 11  1  0  0  0
 11 13  1  0  0  0
 13 14  1  0  0  0
 14 15  1  0  0  0
 15 16  2  0  0  0
 16 17  1  0  0  0
 17 18  2  0  0  0
 18 19  1  0  0  0
 18 20  1  0  0  0
 20 21  2  0  0  0
 11 12  2  0  0  0
  5  6  2  0  0  0
 26 27  2  0  0  0
 27 28  1  0  0  0
 28 29  2  0  0  0
 29 30  1  0  0  0
 29 24  1  0  0  0
  6  1  1  0  0  0
 12  7  1  0  0  0
 21 15  1  0  0  0
 34 35  1  0  0  0
 30 31  1  0  0  0
M  END
> <Activity>
5.3

> <minimizedAffinity>
-8.80507

$$$$
HIPS6998


 35 38  0  0  0  0  0  0  0  0999 V2000
   67.7369   78.9848   87.1215 C   0  0  0  0  0  0  0  0  0  0  0  0
   67.2048   78.6153   85.8772 C   0  0  0  0  0  0  0  0  0  0  0  0
   66.5147   77.4099   85.7379 C   0  0  0  0  0  0  0  0  0  0  0  0
   66.3422   76.5672   86.8384 C   0  0  0  0  0  0  0  0  0  0  0  0
   66.8548   76.9262   88.0978 C   0  0  0  0  0  0  0  0  0  0  0  0
   67.5466   78.1442   88.2303 C   0  0  0  0  0  0  0  0  0  0  0  0
   66.6733   76.0312   89.2689 C   0  0  0  0  0  0  0  0  0  0  0  0
   65.4164   75.4668   89.5482 C   0  0  0  0  0  0  0  0  0  0  0  0
   65.2484   74.6282   90.6518 C   0  0  0  0  0  0  0  0  0  0  0  0
   66.3273   74.3450   91.4913 C   0  0  0  0  0  0  0  0  0  0  0  0
   67.5919   74.9053   91.2324 C   0  0  0  0  0  0  0  0  0  0  0  0
   67.7553   75.7394   90.1195 C   0  0  0  0  0  0  0  0  0  0  0  0
   68.7088   74.6636   92.0487 O   0  0  0  0  0  0  0  0  0  0  0  0
   69.8223   75.5442   92.2059 C   0  0  0  0  0  0  0  0  0  0  0  0
   69.3672   76.9079   92.6539 C   0  0  0  0  0  0  0  0  0  0  0  0
   69.4753   77.2905   94.0012 C   0  0  0  0  0  0  0  0  0  0  0  0
   69.0580   78.5614   94.4085 C   0  0  0  0  0  0  0  0  0  0  0  0
   68.5384   79.4625   93.4734 C   0  0  0  0  0  0  0  0  0  0  0  0
   68.0150   81.0560   93.9864 Cl  0  0  0  0  0  0  0  0  0  0  0  0
   68.4401   79.0925   92.1282 C   0  0  0  0  0  0  0  0  0  0  0  0
   68.8565   77.8224   91.7181 C   0  0  0  0  0  0  0  0  0  0  0  0
   68.4853   80.2831   87.2768 C   0  0  0  0  0  0  0  0  0  0  0  0
   69.1719   80.3296   88.5287 O   0  0  0  0  0  0  0  0  0  0  0  0
   72.8659   80.8048   88.9719 C   0  0  0  0  0  0  0  0  0  0  0  0
   71.5001   81.1022   88.8000 C   0  0  0  0  0  0  0  0  0  0  0  0
   70.5407   80.0754   88.7156 C   0  0  0  0  0  0  0  0  0  0  0  0
   70.9542   78.7458   88.8192 C   0  0  0  0  0  0  0  0  0  0  0  0
   72.3022   78.4345   88.9933 C   0  0  0  0  0  0  0  0  0  0  0  0
   73.2634   79.4513   89.0684 C   0  0  0  0  0  0  0  0  0  0  0  0
   74.6057   79.1112   89.2379 O   0  0  0  0  0  0  0  0  0  0  0  0
   74.8565   78.2106   89.3005 H   0  0  0  0  0  0  0  0  0  0  0  0
   74.7007   82.0903   88.1339 O   0  0  0  0  0  0  0  0  0  0  0  0
   73.8469   81.9184   89.0448 C   0  0  0  0  0  0  0  0  0  0  0  0
   73.8329   82.7925   90.1293 O   0  0  0  0  0  0  0  0  0  0  0  0
   73.2045   82.6784   90.8149 H   0  0  0  0  0  0  0  0  0  0  0  0
 32 33  2  0  0  0
 33 34  1  0  0  0
 33 24  1  0  0  0
 24 25  2  0  0  0
 25 26  1  0  0  0
 26 23  1  0  0  0
 23 22  1  0  0  0
 22  1  1  0  0  0
  1  2  2  0  0  0
  2  3  1  0  0  0
  3  4  2  0  0  0
  4  5  1  0  0  0
  5  7  1  0  0  0
  7  8  2  0  0  0
  8  9  1  0  0  0
  9 10  2  0  0  0
 10 11  1  0  0  0
 11 13  1  0  0  0
 13 14  1  0  0  0
 14 15  1  0  0  0
 15 16  2  0  0  0
 16 17  1  0  0  0
 17 18  2  0  0  0
 18 19  1  0  0  0
 18 20  1  0  0  0
 20 21  2  0  0  0
 11 12  2  0  0  0
  5  6  2  0  0  0
 26 27  2  0  0  0
 27 28  1  0  0  0
 28 29  2  0  0  0
 29 30  1  0  0  0
 29 24  1  0  0  0
  6  1  1  0  0  0
 12  7  1  0  0  0
 21 15  1  0  0  0
 34 35  1  0  0  0
 30 31  1  0  0  0
M  END
> <Activity>
5.3

> <minimizedAffinity>
-8.80117

$$$$
HIPS7006


 36 39  0  0  0  0  0  0  0  0999 V2000
   64.0770   74.3194   91.2580 C   0  0  0  0  0  0  0  0  0  0  0  0
   63.8565   72.9384   91.1705 C   0  0  0  0  0  0  0  0  0  0  0  0
   64.9365   72.0546   91.1958 C   0  0  0  0  0  0  0  0  0  0  0  0
   66.2413   72.5397   91.3235 C   0  0  0  0  0  0  0  0  0  0  0  0
   66.4878   73.9256   91.3839 C   0  0  0  0  0  0  0  0  0  0  0  0
   65.3927   74.8067   91.3017 C   0  0  0  0  0  0  0  0  0  0  0  0
   67.8686   74.4514   91.5950 C   0  0  0  0  0  0  0  0  0  0  0  0
   68.7785   73.7759   92.4302 C   0  0  0  0  0  0  0  0  0  0  0  0
   70.0539   74.2973   92.6578 C   0  0  0  0  0  0  0  0  0  0  0  0
   70.4485   75.4847   92.0402 C   0  0  0  0  0  0  0  0  0  0  0  0
   69.5791   76.1574   91.1769 C   0  0  0  0  0  0  0  0  0  0  0  0
   68.2825   75.6500   90.9753 C   0  0  0  0  0  0  0  0  0  0  0  0
   70.0442   77.3152   90.5328 O   0  0  0  0  0  0  0  0  0  0  0  0
   70.8853   77.3288   89.3775 C   0  0  0  0  0  0  0  0  0  0  0  0
   71.4527   78.6992   89.1185 C   0  0  0  0  0  0  0  0  0  0  0  0
   70.5994   79.8076   88.9957 C   0  0  0  0  0  0  0  0  0  0  0  0
   71.1299   81.0908   88.8272 C   0  0  0  0  0  0  0  0  0  0  0  0
   72.5182   81.2800   88.7909 C   0  0  0  0  0  0  0  0  0  0  0  0
   73.0581   82.5522   88.6175 O   0  0  0  0  0  0  0  0  0  0  0  0
   73.3717   80.1801   88.9235 C   0  0  0  0  0  0  0  0  0  0  0  0
   72.8438   78.8963   89.0894 C   0  0  0  0  0  0  0  0  0  0  0  0
   72.4917   83.2933   88.5280 H   0  0  0  0  0  0  0  0  0  0  0  0
   62.9189   75.2768   91.3856 C   0  0  0  0  0  0  0  0  0  0  0  0
   63.0298   76.3693   90.4681 O   0  0  0  0  0  0  0  0  0  0  0  0
   66.1335   77.3303   88.5830 C   0  0  0  0  0  0  0  0  0  0  0  0
   64.8834   76.7513   88.8735 C   0  0  0  0  0  0  0  0  0  0  0  0
   64.2208   77.0160   90.0871 C   0  0  0  0  0  0  0  0  0  0  0  0
   64.7790   77.9374   90.9743 C   0  0  0  0  0  0  0  0  0  0  0  0
   65.9671   78.5955   90.6582 C   0  0  0  0  0  0  0  0  0  0  0  0
   66.6423   78.3206   89.4640 C   0  0  0  0  0  0  0  0  0  0  0  0
   67.7868   79.0711   89.1861 O   0  0  0  0  0  0  0  0  0  0  0  0
   68.0853   79.7145   89.7984 H   0  0  0  0  0  0  0  0  0  0  0  0
   68.0039   76.2093   87.5890 O   0  0  0  0  0  0  0  0  0  0  0  0
   66.9007   76.7938   87.4261 C   0  0  0  0  0  0  0  0  0  0  0  0
   66.3579   76.8529   86.1442 O   0  0  0  0  0  0  0  0  0  0  0  0
   65.5378   77.2833   86.0020 H   0  0  0  0  0  0  0  0  0  0  0  0
 33 34  2  0  0  0
 34 35  1  0  0  0
 34 25  1  0  0  0
 25 26  2  0  0  0
 26 27  1  0  0  0
 27 24  1  0  0  0
 24 23  1  0  0  0
 23  1  1  0  0  0
  1  2  2  0  0  0
  2  3  1  0  0  0
  3  4  2  0  0  0
  4  5  1  0  0  0
  5  7  1  0  0  0
  7  8  2  0  0  0
  8  9  1  0  0  0
  9 10  2  0  0  0
 10 11  1  0  0  0
 11 13  1  0  0  0
 13 14  1  0  0  0
 14 15  1  0  0  0
 15 16  2  0  0  0
 16 17  1  0  0  0
 17 18  2  0  0  0
 18 19  1  0  0  0
 18 20  1  0  0  0
 20 21  2  0  0  0
 11 12  2  0  0  0
  5  6  2  0  0  0
 27 28  2  0  0  0
 28 29  1  0  0  0
 29 30  2  0  0  0
 30 31  1  0  0  0
 30 25  1  0  0  0
  6  1  1  0  0  0
 12  7  1  0  0  0
 21 15  1  0  0  0
 35 36  1  0  0  0
 19 22  1  0  0  0
 31 32  1  0  0  0
M  END
> <Activity>
6.5

> <minimizedAffinity>
-10.14005

$$$$
HIPS7006


 36 39  0  0  0  0  0  0  0  0999 V2000
   69.0543   75.8166   91.8958 C   0  0  0  0  0  0  0  0  0  0  0  0
   69.9179   74.7165   91.9812 C   0  0  0  0  0  0  0  0  0  0  0  0
   71.1337   74.7269   91.2956 C   0  0  0  0  0  0  0  0  0  0  0  0
   71.5034   75.8388   90.5332 C   0  0  0  0  0  0  0  0  0  0  0  0
   70.6375   76.9433   90.4103 C   0  0  0  0  0  0  0  0  0  0  0  0
   69.3907   76.8952   91.0628 C   0  0  0  0  0  0  0  0  0  0  0  0
   71.0531   78.1652   89.6608 C   0  0  0  0  0  0  0  0  0  0  0  0
   72.3846   78.3332   89.2355 C   0  0  0  0  0  0  0  0  0  0  0  0
   72.7759   79.4988   88.5734 C   0  0  0  0  0  0  0  0  0  0  0  0
   71.8437   80.5021   88.3059 C   0  0  0  0  0  0  0  0  0  0  0  0
   70.5070   80.3464   88.6837 C   0  0  0  0  0  0  0  0  0  0  0  0
   70.1209   79.1873   89.3812 C   0  0  0  0  0  0  0  0  0  0  0  0
   69.5955   81.3572   88.3382 O   0  0  0  0  0  0  0  0  0  0  0  0
   68.8132   81.3820   87.1425 C   0  0  0  0  0  0  0  0  0  0  0  0
   68.0055   80.1217   86.9799 C   0  0  0  0  0  0  0  0  0  0  0  0
   67.6038   79.6976   85.7030 C   0  0  0  0  0  0  0  0  0  0  0  0
   66.9161   78.4900   85.5449 C   0  0  0  0  0  0  0  0  0  0  0  0
   66.6330   77.6893   86.6600 C   0  0  0  0  0  0  0  0  0  0  0  0
   65.9435   76.4877   86.5157 O   0  0  0  0  0  0  0  0  0  0  0  0
   67.0408   78.1028   87.9322 C   0  0  0  0  0  0  0  0  0  0  0  0
   67.7260   79.3107   88.0929 C   0  0  0  0  0  0  0  0  0  0  0  0
   65.6675   76.2049   85.6661 H   0  0  0  0  0  0  0  0  0  0  0  0
   67.8118   75.8871   92.7476 C   0  0  0  0  0  0  0  0  0  0  0  0
   66.9833   74.7334   92.5744 O   0  0  0  0  0  0  0  0  0  0  0  0
   64.2045   75.5970   90.1990 C   0  0  0  0  0  0  0  0  0  0  0  0
   65.3850   75.7113   90.9577 C   0  0  0  0  0  0  0  0  0  0  0  0
   65.8758   74.6284   91.7116 C   0  0  0  0  0  0  0  0  0  0  0  0
   65.2221   73.3980   91.6308 C   0  0  0  0  0  0  0  0  0  0  0  0
   64.1086   73.2398   90.8064 C   0  0  0  0  0  0  0  0  0  0  0  0
   63.6024   74.3175   90.0718 C   0  0  0  0  0  0  0  0  0  0  0  0
   62.5291   74.0631   89.2153 O   0  0  0  0  0  0  0  0  0  0  0  0
   62.1641   73.2017   89.1647 H   0  0  0  0  0  0  0  0  0  0  0  0
   64.0526   77.9772   89.9649 O   0  0  0  0  0  0  0  0  0  0  0  0
   63.5950   76.8440   89.6619 C   0  0  0  0  0  0  0  0  0  0  0  0
   62.5565   76.7677   88.7361 O   0  0  0  0  0  0  0  0  0  0  0  0
   62.2021   75.9338   88.4973 H   0  0  0  0  0  0  0  0  0  0  0  0
 33 34  2  0  0  0
 34 35  1  0  0  0
 34 25  1  0  0  0
 25 26  2  0  0  0
 26 27  1  0  0  0
 27 24  1  0  0  0
 24 23  1  0  0  0
 23  1  1  0  0  0
  1  2  2  0  0  0
  2  3  1  0  0  0
  3  4  2  0  0  0
  4  5  1  0  0  0
  5  7  1  0  0  0
  7  8  2  0  0  0
  8  9  1  0  0  0
  9 10  2  0  0  0
 10 11  1  0  0  0
 11 13  1  0  0  0
 13 14  1  0  0  0
 14 15  1  0  0  0
 15 16  2  0  0  0
 16 17  1  0  0  0
 17 18  2  0  0  0
 18 19  1  0  0  0
 18 20  1  0  0  0
 20 21  2  0  0  0
 11 12  2  0  0  0
  5  6  2  0  0  0
 27 28  2  0  0  0
 28 29  1  0  0  0
 29 30  2  0  0  0
 30 31  1  0  0  0
 30 25  1  0  0  0
  6  1  1  0  0  0
 12  7  1  0  0  0
 21 15  1  0  0  0
 35 36  1  0  0  0
 19 22  1  0  0  0
 31 32  1  0  0  0
M  END
> <Activity>
6.5

> <minimizedAffinity>
-9.76553

$$$$
HIPS7006


 36 39  0  0  0  0  0  0  0  0999 V2000
   69.8080   75.1830   90.5477 C   0  0  0  0  0  0  0  0  0  0  0  0
   70.4971   74.8094   91.7091 C   0  0  0  0  0  0  0  0  0  0  0  0
   69.8163   74.1869   92.7566 C   0  0  0  0  0  0  0  0  0  0  0  0
   68.4486   73.9192   92.6478 C   0  0  0  0  0  0  0  0  0  0  0  0
   67.7306   74.3123   91.5012 C   0  0  0  0  0  0  0  0  0  0  0  0
   68.4196   74.9886   90.4763 C   0  0  0  0  0  0  0  0  0  0  0  0
   66.2876   73.9657   91.3425 C   0  0  0  0  0  0  0  0  0  0  0  0
   65.8469   72.6345   91.4677 C   0  0  0  0  0  0  0  0  0  0  0  0
   64.5021   72.3115   91.2743 C   0  0  0  0  0  0  0  0  0  0  0  0
   63.5748   73.3108   90.9765 C   0  0  0  0  0  0  0  0  0  0  0  0
   63.9775   74.6460   90.8826 C   0  0  0  0  0  0  0  0  0  0  0  0
   65.3380   74.9660   91.0433 C   0  0  0  0  0  0  0  0  0  0  0  0
   62.9969   75.6217   90.6410 O   0  0  0  0  0  0  0  0  0  0  0  0
   63.1987   76.8168   89.8840 C   0  0  0  0  0  0  0  0  0  0  0  0
   64.4408   77.5480   90.3192 C   0  0  0  0  0  0  0  0  0  0  0  0
   64.4388   78.3071   91.5006 C   0  0  0  0  0  0  0  0  0  0  0  0
   65.6121   78.9270   91.9425 C   0  0  0  0  0  0  0  0  0  0  0  0
   66.8013   78.7851   91.2142 C   0  0  0  0  0  0  0  0  0  0  0  0
   67.9745   79.4027   91.6412 O   0  0  0  0  0  0  0  0  0  0  0  0
   66.8101   78.0211   90.0429 C   0  0  0  0  0  0  0  0  0  0  0  0
   65.6380   77.4028   89.5977 C   0  0  0  0  0  0  0  0  0  0  0  0
   67.9753   79.9159   92.4251 H   0  0  0  0  0  0  0  0  0  0  0  0
   70.5524   75.7158   89.3493 C   0  0  0  0  0  0  0  0  0  0  0  0
   70.9389   77.0818   89.5287 O   0  0  0  0  0  0  0  0  0  0  0  0
   68.5977   79.2472   87.5438 C   0  0  0  0  0  0  0  0  0  0  0  0
   69.1170   78.1265   88.2198 C   0  0  0  0  0  0  0  0  0  0  0  0
   70.3251   78.2028   88.9384 C   0  0  0  0  0  0  0  0  0  0  0  0
   70.9678   79.4365   89.0497 C   0  0  0  0  0  0  0  0  0  0  0  0
   70.4157   80.5783   88.4699 C   0  0  0  0  0  0  0  0  0  0  0  0
   69.2271   80.5053   87.7355 C   0  0  0  0  0  0  0  0  0  0  0  0
   68.7001   81.7024   87.2462 O   0  0  0  0  0  0  0  0  0  0  0  0
   69.1514   82.5095   87.3976 H   0  0  0  0  0  0  0  0  0  0  0  0
   67.0791   79.9548   85.8303 O   0  0  0  0  0  0  0  0  0  0  0  0
   67.4832   79.0291   86.5820 C   0  0  0  0  0  0  0  0  0  0  0  0
   66.9282   77.7593   86.4369 O   0  0  0  0  0  0  0  0  0  0  0  0
   67.2153   77.0569   86.9866 H   0  0  0  0  0  0  0  0  0  0  0  0
 33 34  2  0  0  0
 34 35  1  0  0  0
 34 25  1  0  0  0
 25 26  2  0  0  0
 26 27  1  0  0  0
 27 24  1  0  0  0
 24 23  1  0  0  0
 23  1  1  0  0  0
  1  2  2  0  0  0
  2  3  1  0  0  0
  3  4  2  0  0  0
  4  5  1  0  0  0
  5  7  1  0  0  0
  7  8  2  0  0  0
  8  9  1  0  0  0
  9 10  2  0  0  0
 10 11  1  0  0  0
 11 13  1  0  0  0
 13 14  1  0  0  0
 14 15  1  0  0  0
 15 16  2  0  0  0
 16 17  1  0  0  0
 17 18  2  0  0  0
 18 19  1  0  0  0
 18 20  1  0  0  0
 20 21  2  0  0  0
 11 12  2  0  0  0
  5  6  2  0  0  0
 27 28  2  0  0  0
 28 29  1  0  0  0
 29 30  2  0  0  0
 30 31  1  0  0  0
 30 25  1  0  0  0
  6  1  1  0  0  0
 12  7  1  0  0  0
 21 15  1  0  0  0
 35 36  1  0  0  0
 19 22  1  0  0  0
 31 32  1  0  0  0
M  END
> <Activity>
6.5

> <minimizedAffinity>
-9.67665

$$$$
HIPS7006


 36 39  0  0  0  0  0  0  0  0999 V2000
   70.0037   75.0396   90.6699 C   0  0  0  0  0  0  0  0  0  0  0  0
   70.7159   74.6125   91.7985 C   0  0  0  0  0  0  0  0  0  0  0  0
   70.0487   73.9793   92.8483 C   0  0  0  0  0  0  0  0  0  0  0  0
   68.6710   73.7542   92.7740 C   0  0  0  0  0  0  0  0  0  0  0  0
   67.9309   74.2011   91.6616 C   0  0  0  0  0  0  0  0  0  0  0  0
   68.6087   74.8872   90.6357 C   0  0  0  0  0  0  0  0  0  0  0  0
   66.4743   73.9008   91.5376 C   0  0  0  0  0  0  0  0  0  0  0  0
   66.0234   72.5820   91.3391 C   0  0  0  0  0  0  0  0  0  0  0  0
   64.6620   72.3143   91.1799 C   0  0  0  0  0  0  0  0  0  0  0  0
   63.7301   73.3512   91.2385 C   0  0  0  0  0  0  0  0  0  0  0  0
   64.1457   74.6653   91.4712 C   0  0  0  0  0  0  0  0  0  0  0  0
   65.5199   74.9389   91.5969 C   0  0  0  0  0  0  0  0  0  0  0  0
   63.1648   75.6640   91.5819 O   0  0  0  0  0  0  0  0  0  0  0  0
   63.1745   76.9047   90.8727 C   0  0  0  0  0  0  0  0  0  0  0  0
   64.3524   77.0033   89.9401 C   0  0  0  0  0  0  0  0  0  0  0  0
   65.4001   77.8972   90.2141 C   0  0  0  0  0  0  0  0  0  0  0  0
   66.5274   77.9371   89.3872 C   0  0  0  0  0  0  0  0  0  0  0  0
   66.6236   77.0766   88.2850 C   0  0  0  0  0  0  0  0  0  0  0  0
   67.7385   77.1115   87.4509 O   0  0  0  0  0  0  0  0  0  0  0  0
   65.5871   76.1774   88.0147 C   0  0  0  0  0  0  0  0  0  0  0  0
   64.4582   76.1374   88.8383 C   0  0  0  0  0  0  0  0  0  0  0  0
   68.4364   77.7117   87.6264 H   0  0  0  0  0  0  0  0  0  0  0  0
   70.7274   75.5857   89.4648 C   0  0  0  0  0  0  0  0  0  0  0  0
   71.5541   76.7035   89.8035 O   0  0  0  0  0  0  0  0  0  0  0  0
   72.0855   80.3090   88.8938 C   0  0  0  0  0  0  0  0  0  0  0  0
   72.3507   78.9452   89.1221 C   0  0  0  0  0  0  0  0  0  0  0  0
   71.3188   78.0465   89.4530 C   0  0  0  0  0  0  0  0  0  0  0  0
   70.0014   78.5067   89.4677 C   0  0  0  0  0  0  0  0  0  0  0  0
   69.7099   79.8321   89.1468 C   0  0  0  0  0  0  0  0  0  0  0  0
   70.7325   80.7359   88.8388 C   0  0  0  0  0  0  0  0  0  0  0  0
   70.3563   82.0261   88.4590 O   0  0  0  0  0  0  0  0  0  0  0  0
   69.4499   82.2626   88.4376 H   0  0  0  0  0  0  0  0  0  0  0  0
   74.4185   80.8199   88.6957 O   0  0  0  0  0  0  0  0  0  0  0  0
   73.2409   81.2449   88.8300 C   0  0  0  0  0  0  0  0  0  0  0  0
   73.0220   82.6209   88.8273 O   0  0  0  0  0  0  0  0  0  0  0  0
   72.1530   82.9573   88.9258 H   0  0  0  0  0  0  0  0  0  0  0  0
 33 34  2  0  0  0
 34 35  1  0  0  0
 34 25  1  0  0  0
 25 26  2  0  0  0
 26 27  1  0  0  0
 27 24  1  0  0  0
 24 23  1  0  0  0
 23  1  1  0  0  0
  1  2  2  0  0  0
  2  3  1  0  0  0
  3  4  2  0  0  0
  4  5  1  0  0  0
  5  7  1  0  0  0
  7  8  2  0  0  0
  8  9  1  0  0  0
  9 10  2  0  0  0
 10 11  1  0  0  0
 11 13  1  0  0  0
 13 14  1  0  0  0
 14 15  1  0  0  0
 15 16  2  0  0  0
 16 17  1  0  0  0
 17 18  2  0  0  0
 18 19  1  0  0  0
 18 20  1  0  0  0
 20 21  2  0  0  0
 11 12  2  0  0  0
  5  6  2  0  0  0
 27 28  2  0  0  0
 28 29  1  0  0  0
 29 30  2  0  0  0
 30 31  1  0  0  0
 30 25  1  0  0  0
  6  1  1  0  0  0
 12  7  1  0  0  0
 21 15  1  0  0  0
 35 36  1  0  0  0
 19 22  1  0  0  0
 31 32  1  0  0  0
M  END
> <Activity>
6.5

> <minimizedAffinity>
-9.61342

$$$$
HIPS7006


 36 39  0  0  0  0  0  0  0  0999 V2000
   66.9486   76.3374   89.6104 C   0  0  0  0  0  0  0  0  0  0  0  0
   65.6325   76.7633   89.3868 C   0  0  0  0  0  0  0  0  0  0  0  0
   65.0295   77.6632   90.2671 C   0  0  0  0  0  0  0  0  0  0  0  0
   65.7383   78.1559   91.3666 C   0  0  0  0  0  0  0  0  0  0  0  0
   67.0523   77.7188   91.6263 C   0  0  0  0  0  0  0  0  0  0  0  0
   67.6276   76.7690   90.7607 C   0  0  0  0  0  0  0  0  0  0  0  0
   67.8440   78.2936   92.7534 C   0  0  0  0  0  0  0  0  0  0  0  0
   68.8669   77.5490   93.3706 C   0  0  0  0  0  0  0  0  0  0  0  0
   69.5738   78.0766   94.4533 C   0  0  0  0  0  0  0  0  0  0  0  0
   69.2880   79.3597   94.9214 C   0  0  0  0  0  0  0  0  0  0  0  0
   68.3029   80.1360   94.3045 C   0  0  0  0  0  0  0  0  0  0  0  0
   67.5677   79.5907   93.2362 C   0  0  0  0  0  0  0  0  0  0  0  0
   68.0945   81.4430   94.7737 O   0  0  0  0  0  0  0  0  0  0  0  0
   67.6636   81.7812   96.0936 C   0  0  0  0  0  0  0  0  0  0  0  0
   66.8703   83.0609   96.1092 C   0  0  0  0  0  0  0  0  0  0  0  0
   67.1952   84.0848   97.0135 C   0  0  0  0  0  0  0  0  0  0  0  0
   66.5054   85.3010   96.9794 C   0  0  0  0  0  0  0  0  0  0  0  0
   65.4917   85.5097   96.0340 C   0  0  0  0  0  0  0  0  0  0  0  0
   64.7937   86.7144   95.9944 O   0  0  0  0  0  0  0  0  0  0  0  0
   65.1723   84.4965   95.1246 C   0  0  0  0  0  0  0  0  0  0  0  0
   65.8587   83.2791   95.1585 C   0  0  0  0  0  0  0  0  0  0  0  0
   65.0028   87.3973   96.6009 H   0  0  0  0  0  0  0  0  0  0  0  0
   67.6659   75.4882   88.5914 C   0  0  0  0  0  0  0  0  0  0  0  0
   68.4984   76.2763   87.7350 O   0  0  0  0  0  0  0  0  0  0  0  0
   68.5132   80.0239   87.4810 C   0  0  0  0  0  0  0  0  0  0  0  0
   68.0799   78.6885   87.3744 C   0  0  0  0  0  0  0  0  0  0  0  0
   68.8327   77.6313   87.9196 C   0  0  0  0  0  0  0  0  0  0  0  0
   69.9828   77.9287   88.6521 C   0  0  0  0  0  0  0  0  0  0  0  0
   70.3731   79.2524   88.8523 C   0  0  0  0  0  0  0  0  0  0  0  0
   69.6419   80.3068   88.2945 C   0  0  0  0  0  0  0  0  0  0  0  0
   70.0546   81.6059   88.5985 O   0  0  0  0  0  0  0  0  0  0  0  0
   70.8066   81.7438   89.1402 H   0  0  0  0  0  0  0  0  0  0  0  0
   67.0055   81.8579   87.1546 O   0  0  0  0  0  0  0  0  0  0  0  0
   67.8280   81.0499   86.6487 C   0  0  0  0  0  0  0  0  0  0  0  0
   68.1599   81.1883   85.3025 O   0  0  0  0  0  0  0  0  0  0  0  0
   68.7700   80.5972   84.9072 H   0  0  0  0  0  0  0  0  0  0  0  0
 33 34  2  0  0  0
 34 35  1  0  0  0
 34 25  1  0  0  0
 25 26  2  0  0  0
 26 27  1  0  0  0
 27 24  1  0  0  0
 24 23  1  0  0  0
 23  1  1  0  0  0
  1  2  2  0  0  0
  2  3  1  0  0  0
  3  4  2  0  0  0
  4  5  1  0  0  0
  5  7  1  0  0  0
  7  8  2  0  0  0
  8  9  1  0  0  0
  9 10  2  0  0  0
 10 11  1  0  0  0
 11 13  1  0  0  0
 13 14  1  0  0  0
 14 15  1  0  0  0
 15 16  2  0  0  0
 16 17  1  0  0  0
 17 18  2  0  0  0
 18 19  1  0  0  0
 18 20  1  0  0  0
 20 21  2  0  0  0
 11 12  2  0  0  0
  5  6  2  0  0  0
 27 28  2  0  0  0
 28 29  1  0  0  0
 29 30  2  0  0  0
 30 31  1  0  0  0
 30 25  1  0  0  0
  6  1  1  0  0  0
 12  7  1  0  0  0
 21 15  1  0  0  0
 35 36  1  0  0  0
 19 22  1  0  0  0
 31 32  1  0  0  0
M  END
> <Activity>
6.5

> <minimizedAffinity>
-9.18134

$$$$
HIPS7006


 36 39  0  0  0  0  0  0  0  0999 V2000
   70.3393   74.9130   91.7182 C   0  0  0  0  0  0  0  0  0  0  0  0
   70.0836   73.9307   92.6842 C   0  0  0  0  0  0  0  0  0  0  0  0
   68.9301   74.0027   93.4667 C   0  0  0  0  0  0  0  0  0  0  0  0
   68.0169   75.0448   93.2818 C   0  0  0  0  0  0  0  0  0  0  0  0
   68.2685   76.0587   92.3365 C   0  0  0  0  0  0  0  0  0  0  0  0
   69.4630   76.0026   91.5932 C   0  0  0  0  0  0  0  0  0  0  0  0
   67.2662   77.1340   92.0787 C   0  0  0  0  0  0  0  0  0  0  0  0
   67.3938   78.3996   92.6818 C   0  0  0  0  0  0  0  0  0  0  0  0
   66.4284   79.3864   92.4708 C   0  0  0  0  0  0  0  0  0  0  0  0
   65.3360   79.1350   91.6397 C   0  0  0  0  0  0  0  0  0  0  0  0
   65.2029   77.9002   90.9984 C   0  0  0  0  0  0  0  0  0  0  0  0
   66.1574   76.8950   91.2388 C   0  0  0  0  0  0  0  0  0  0  0  0
   64.1189   77.7173   90.1248 O   0  0  0  0  0  0  0  0  0  0  0  0
   63.8956   76.5519   89.3283 C   0  0  0  0  0  0  0  0  0  0  0  0
   63.5697   75.3519   90.1772 C   0  0  0  0  0  0  0  0  0  0  0  0
   64.4715   74.2789   90.2631 C   0  0  0  0  0  0  0  0  0  0  0  0
   64.2020   73.1971   91.1077 C   0  0  0  0  0  0  0  0  0  0  0  0
   63.0343   73.1822   91.8828 C   0  0  0  0  0  0  0  0  0  0  0  0
   62.7522   72.1076   92.7229 O   0  0  0  0  0  0  0  0  0  0  0  0
   62.1388   74.2538   91.8083 C   0  0  0  0  0  0  0  0  0  0  0  0
   62.4047   75.3350   90.9629 C   0  0  0  0  0  0  0  0  0  0  0  0
   63.3481   71.3865   92.7773 H   0  0  0  0  0  0  0  0  0  0  0  0
   71.4975   74.7698   90.7631 C   0  0  0  0  0  0  0  0  0  0  0  0
   71.2027   75.3363   89.4826 O   0  0  0  0  0  0  0  0  0  0  0  0
   69.0259   78.2589   88.5715 C   0  0  0  0  0  0  0  0  0  0  0  0
   69.4131   76.9523   88.9256 C   0  0  0  0  0  0  0  0  0  0  0  0
   70.7514   76.6473   89.2387 C   0  0  0  0  0  0  0  0  0  0  0  0
   71.6876   77.6814   89.2808 C   0  0  0  0  0  0  0  0  0  0  0  0
   71.3016   78.9977   89.0300 C   0  0  0  0  0  0  0  0  0  0  0  0
   69.9780   79.3047   88.6964 C   0  0  0  0  0  0  0  0  0  0  0  0
   69.6540   80.6528   88.5294 O   0  0  0  0  0  0  0  0  0  0  0  0
   70.3167   81.3088   88.6215 H   0  0  0  0  0  0  0  0  0  0  0  0
   67.0995   79.5728   88.0186 O   0  0  0  0  0  0  0  0  0  0  0  0
   67.6722   78.4520   87.9842 C   0  0  0  0  0  0  0  0  0  0  0  0
   67.0542   77.4057   87.3024 O   0  0  0  0  0  0  0  0  0  0  0  0
   67.4641   76.5639   87.2652 H   0  0  0  0  0  0  0  0  0  0  0  0
 33 34  2  0  0  0
 34 35  1  0  0  0
 34 25  1  0  0  0
 25 26  2  0  0  0
 26 27  1  0  0  0
 27 24  1  0  0  0
 24 23  1  0  0  0
 23  1  1  0  0  0
  1  2  2  0  0  0
  2  3  1  0  0  0
  3  4  2  0  0  0
  4  5  1  0  0  0
  5  7  1  0  0  0
  7  8  2  0  0  0
  8  9  1  0  0  0
  9 10  2  0  0  0
 10 11  1  0  0  0
 11 13  1  0  0  0
 13 14  1  0  0  0
 14 15  1  0  0  0
 15 16  2  0  0  0
 16 17  1  0  0  0
 17 18  2  0  0  0
 18 19  1  0  0  0
 18 20  1  0  0  0
 20 21  2  0  0  0
 11 12  2  0  0  0
  5  6  2  0  0  0
 27 28  2  0  0  0
 28 29  1  0  0  0
 29 30  2  0  0  0
 30 31  1  0  0  0
 30 25  1  0  0  0
  6  1  1  0  0  0
 12  7  1  0  0  0
 21 15  1  0  0  0
 35 36  1  0  0  0
 19 22  1  0  0  0
 31 32  1  0  0  0
M  END
> <Activity>
6.5

> <minimizedAffinity>
-9.15501

$$$$
HIPS7006


 36 39  0  0  0  0  0  0  0  0999 V2000
   65.0775   74.3581   90.6444 C   0  0  0  0  0  0  0  0  0  0  0  0
   63.7852   74.3904   90.1036 C   0  0  0  0  0  0  0  0  0  0  0  0
   63.4644   75.3203   89.1133 C   0  0  0  0  0  0  0  0  0  0  0  0
   64.4324   76.2134   88.6450 C   0  0  0  0  0  0  0  0  0  0  0  0
   65.7295   76.2176   89.1951 C   0  0  0  0  0  0  0  0  0  0  0  0
   66.0222   75.3109   90.2318 C   0  0  0  0  0  0  0  0  0  0  0  0
   66.7910   77.1151   88.6519 C   0  0  0  0  0  0  0  0  0  0  0  0
   66.6182   77.7745   87.4202 C   0  0  0  0  0  0  0  0  0  0  0  0
   67.6338   78.5778   86.8972 C   0  0  0  0  0  0  0  0  0  0  0  0
   68.8248   78.7537   87.6027 C   0  0  0  0  0  0  0  0  0  0  0  0
   69.0094   78.1409   88.8454 C   0  0  0  0  0  0  0  0  0  0  0  0
   67.9999   77.3042   89.3553 C   0  0  0  0  0  0  0  0  0  0  0  0
   70.2003   78.3975   89.5438 O   0  0  0  0  0  0  0  0  0  0  0  0
   71.5152   78.1593   89.0373 C   0  0  0  0  0  0  0  0  0  0  0  0
   72.3049   79.4356   88.9174 C   0  0  0  0  0  0  0  0  0  0  0  0
   71.6443   80.6683   88.7914 C   0  0  0  0  0  0  0  0  0  0  0  0
   72.3758   81.8597   88.7527 C   0  0  0  0  0  0  0  0  0  0  0  0
   73.7738   81.8317   88.8507 C   0  0  0  0  0  0  0  0  0  0  0  0
   74.5133   83.0112   88.8073 O   0  0  0  0  0  0  0  0  0  0  0  0
   74.4349   80.6069   88.9871 C   0  0  0  0  0  0  0  0  0  0  0  0
   73.7060   79.4145   89.0234 C   0  0  0  0  0  0  0  0  0  0  0  0
   74.0764   83.8350   88.7160 H   0  0  0  0  0  0  0  0  0  0  0  0
   65.4840   73.2657   91.6012 C   0  0  0  0  0  0  0  0  0  0  0  0
   66.2821   73.7712   92.6760 O   0  0  0  0  0  0  0  0  0  0  0  0
   68.8033   76.5521   92.8162 C   0  0  0  0  0  0  0  0  0  0  0  0
   67.6365   75.8052   93.0670 C   0  0  0  0  0  0  0  0  0  0  0  0
   67.4762   74.5060   92.5491 C   0  0  0  0  0  0  0  0  0  0  0  0
   68.5332   73.9230   91.8488 C   0  0  0  0  0  0  0  0  0  0  0  0
   69.7340   74.6108   91.6761 C   0  0  0  0  0  0  0  0  0  0  0  0
   69.8921   75.9106   92.1689 C   0  0  0  0  0  0  0  0  0  0  0  0
   71.1463   76.5061   92.0188 O   0  0  0  0  0  0  0  0  0  0  0  0
   71.8354   76.0437   91.5839 H   0  0  0  0  0  0  0  0  0  0  0  0
   69.2479   78.4270   94.2411 O   0  0  0  0  0  0  0  0  0  0  0  0
   68.7896   78.0029   93.1477 C   0  0  0  0  0  0  0  0  0  0  0  0
   68.3472   78.9278   92.2042 O   0  0  0  0  0  0  0  0  0  0  0  0
   68.0027   78.6324   91.3844 H   0  0  0  0  0  0  0  0  0  0  0  0
 33 34  2  0  0  0
 34 35  1  0  0  0
 34 25  1  0  0  0
 25 26  2  0  0  0
 26 27  1  0  0  0
 27 24  1  0  0  0
 24 23  1  0  0  0
 23  1  1  0  0  0
  1  2  2  0  0  0
  2  3  1  0  0  0
  3  4  2  0  0  0
  4  5  1  0  0  0
  5  7  1  0  0  0
  7  8  2  0  0  0
  8  9  1  0  0  0
  9 10  2  0  0  0
 10 11  1  0  0  0
 11 13  1  0  0  0
 13 14  1  0  0  0
 14 15  1  0  0  0
 15 16  2  0  0  0
 16 17  1  0  0  0
 17 18  2  0  0  0
 18 19  1  0  0  0
 18 20  1  0  0  0
 20 21  2  0  0  0
 11 12  2  0  0  0
  5  6  2  0  0  0
 27 28  2  0  0  0
 28 29  1  0  0  0
 29 30  2  0  0  0
 30 31  1  0  0  0
 30 25  1  0  0  0
  6  1  1  0  0  0
 12  7  1  0  0  0
 21 15  1  0  0  0
 35 36  1  0  0  0
 19 22  1  0  0  0
 31 32  1  0  0  0
M  END
> <Activity>
6.5

> <minimizedAffinity>
-9.05043

$$$$
HIPS7006


 36 39  0  0  0  0  0  0  0  0999 V2000
   64.0796   73.9537   91.3797 C   0  0  0  0  0  0  0  0  0  0  0  0
   63.9224   72.5777   91.1664 C   0  0  0  0  0  0  0  0  0  0  0  0
   65.0437   71.7514   91.0767 C   0  0  0  0  0  0  0  0  0  0  0  0
   66.3273   72.2877   91.2139 C   0  0  0  0  0  0  0  0  0  0  0  0
   66.5092   73.6723   91.3999 C   0  0  0  0  0  0  0  0  0  0  0  0
   65.3712   74.5007   91.4331 C   0  0  0  0  0  0  0  0  0  0  0  0
   67.8694   74.2451   91.6217 C   0  0  0  0  0  0  0  0  0  0  0  0
   68.7919   73.6061   92.4717 C   0  0  0  0  0  0  0  0  0  0  0  0
   70.0469   74.1711   92.7091 C   0  0  0  0  0  0  0  0  0  0  0  0
   70.4088   75.3665   92.0868 C   0  0  0  0  0  0  0  0  0  0  0  0
   69.5271   76.0038   91.2092 C   0  0  0  0  0  0  0  0  0  0  0  0
   68.2503   75.4523   90.9976 C   0  0  0  0  0  0  0  0  0  0  0  0
   69.9608   77.1717   90.5613 O   0  0  0  0  0  0  0  0  0  0  0  0
   70.8812   77.2095   89.4688 C   0  0  0  0  0  0  0  0  0  0  0  0
   71.4417   78.5914   89.2611 C   0  0  0  0  0  0  0  0  0  0  0  0
   72.8233   78.7776   89.0923 C   0  0  0  0  0  0  0  0  0  0  0  0
   73.3361   80.0516   88.8275 C   0  0  0  0  0  0  0  0  0  0  0  0
   72.4722   81.1499   88.7179 C   0  0  0  0  0  0  0  0  0  0  0  0
   72.9718   82.4244   88.4605 O   0  0  0  0  0  0  0  0  0  0  0  0
   71.0946   80.9671   88.8747 C   0  0  0  0  0  0  0  0  0  0  0  0
   70.5800   79.6951   89.1420 C   0  0  0  0  0  0  0  0  0  0  0  0
   73.8938   82.5536   88.3544 H   0  0  0  0  0  0  0  0  0  0  0  0
   62.8818   74.8349   91.6307 C   0  0  0  0  0  0  0  0  0  0  0  0
   62.9897   76.0856   90.9438 O   0  0  0  0  0  0  0  0  0  0  0  0
   66.1522   78.1065   90.7883 C   0  0  0  0  0  0  0  0  0  0  0  0
   65.0349   77.4291   91.3129 C   0  0  0  0  0  0  0  0  0  0  0  0
   64.1798   76.6798   90.4828 C   0  0  0  0  0  0  0  0  0  0  0  0
   64.5018   76.5399   89.1321 C   0  0  0  0  0  0  0  0  0  0  0  0
   65.6589   77.1218   88.6153 C   0  0  0  0  0  0  0  0  0  0  0  0
   66.5013   77.8864   89.4298 C   0  0  0  0  0  0  0  0  0  0  0  0
   67.6767   78.3767   88.8569 O   0  0  0  0  0  0  0  0  0  0  0  0
   67.8650   78.2059   87.9550 H   0  0  0  0  0  0  0  0  0  0  0  0
   66.1931   79.8350   92.4478 O   0  0  0  0  0  0  0  0  0  0  0  0
   66.8408   79.0981   91.6586 C   0  0  0  0  0  0  0  0  0  0  0  0
   68.2327   79.1601   91.6760 O   0  0  0  0  0  0  0  0  0  0  0  0
   68.7330   78.6198   91.0965 H   0  0  0  0  0  0  0  0  0  0  0  0
 33 34  2  0  0  0
 34 35  1  0  0  0
 34 25  1  0  0  0
 25 26  2  0  0  0
 26 27  1  0  0  0
 27 24  1  0  0  0
 24 23  1  0  0  0
 23  1  1  0  0  0
  1  2  2  0  0  0
  2  3  1  0  0  0
  3  4  2  0  0  0
  4  5  1  0  0  0
  5  7  1  0  0  0
  7  8  2  0  0  0
  8  9  1  0  0  0
  9 10  2  0  0  0
 10 11  1  0  0  0
 11 13  1  0  0  0
 13 14  1  0  0  0
 14 15  1  0  0  0
 15 16  2  0  0  0
 16 17  1  0  0  0
 17 18  2  0  0  0
 18 19  1  0  0  0
 18 20  1  0  0  0
 20 21  2  0  0  0
 11 12  2  0  0  0
  5  6  2  0  0  0
 27 28  2  0  0  0
 28 29  1  0  0  0
 29 30  2  0  0  0
 30 31  1  0  0  0
 30 25  1  0  0  0
  6  1  1  0  0  0
 12  7  1  0  0  0
 21 15  1  0  0  0
 35 36  1  0  0  0
 19 22  1  0  0  0
 31 32  1  0  0  0
M  END
> <Activity>
6.5

> <minimizedAffinity>
-8.88623

$$$$
HIPS7006


 36 39  0  0  0  0  0  0  0  0999 V2000
   70.7536   80.1069   89.2028 C   0  0  0  0  0  0  0  0  0  0  0  0
   71.9836   79.9297   88.5556 C   0  0  0  0  0  0  0  0  0  0  0  0
   72.6869   78.7334   88.7057 C   0  0  0  0  0  0  0  0  0  0  0  0
   72.1626   77.7010   89.4889 C   0  0  0  0  0  0  0  0  0  0  0  0
   70.9417   77.8689   90.1717 C   0  0  0  0  0  0  0  0  0  0  0  0
   70.2708   79.1013   90.0549 C   0  0  0  0  0  0  0  0  0  0  0  0
   70.3365   76.7481   90.9496 C   0  0  0  0  0  0  0  0  0  0  0  0
   71.1256   75.6719   91.3979 C   0  0  0  0  0  0  0  0  0  0  0  0
   70.5445   74.6052   92.0870 C   0  0  0  0  0  0  0  0  0  0  0  0
   69.1758   74.6059   92.3587 C   0  0  0  0  0  0  0  0  0  0  0  0
   68.3743   75.6786   91.9580 C   0  0  0  0  0  0  0  0  0  0  0  0
   68.9541   76.7362   91.2337 C   0  0  0  0  0  0  0  0  0  0  0  0
   67.0145   75.6608   92.3080 O   0  0  0  0  0  0  0  0  0  0  0  0
   66.0748   74.6665   91.8954 C   0  0  0  0  0  0  0  0  0  0  0  0
   65.0015   75.2472   91.0134 C   0  0  0  0  0  0  0  0  0  0  0  0
   64.9323   76.6335   90.8010 C   0  0  0  0  0  0  0  0  0  0  0  0
   63.9809   77.1661   89.9250 C   0  0  0  0  0  0  0  0  0  0  0  0
   63.0967   76.3177   89.2446 C   0  0  0  0  0  0  0  0  0  0  0  0
   62.1410   76.8370   88.3744 O   0  0  0  0  0  0  0  0  0  0  0  0
   63.1693   74.9356   89.4451 C   0  0  0  0  0  0  0  0  0  0  0  0
   64.1178   74.4011   90.3221 C   0  0  0  0  0  0  0  0  0  0  0  0
   62.0871   77.7621   88.2357 H   0  0  0  0  0  0  0  0  0  0  0  0
   69.9103   81.3274   88.9314 C   0  0  0  0  0  0  0  0  0  0  0  0
   69.3182   81.2846   87.6294 O   0  0  0  0  0  0  0  0  0  0  0  0
   67.5515   77.9978   87.1985 C   0  0  0  0  0  0  0  0  0  0  0  0
   68.2948   79.0371   87.7899 C   0  0  0  0  0  0  0  0  0  0  0  0
   68.4870   80.2648   87.1284 C   0  0  0  0  0  0  0  0  0  0  0  0
   67.8534   80.4782   85.9034 C   0  0  0  0  0  0  0  0  0  0  0  0
   67.0324   79.4965   85.3495 C   0  0  0  0  0  0  0  0  0  0  0  0
   66.8550   78.2657   85.9907 C   0  0  0  0  0  0  0  0  0  0  0  0
   65.9626   77.3620   85.4102 O   0  0  0  0  0  0  0  0  0  0  0  0
   65.5255   77.5828   84.6113 H   0  0  0  0  0  0  0  0  0  0  0  0
   66.5836   75.9836   88.0642 O   0  0  0  0  0  0  0  0  0  0  0  0
   67.6254   76.6460   87.8167 C   0  0  0  0  0  0  0  0  0  0  0  0
   68.8652   76.0539   88.0481 O   0  0  0  0  0  0  0  0  0  0  0  0
   69.6523   76.5301   87.8704 H   0  0  0  0  0  0  0  0  0  0  0  0
 33 34  2  0  0  0
 34 35  1  0  0  0
 34 25  1  0  0  0
 25 26  2  0  0  0
 26 27  1  0  0  0
 27 24  1  0  0  0
 24 23  1  0  0  0
 23  1  1  0  0  0
  1  2  2  0  0  0
  2  3  1  0  0  0
  3  4  2  0  0  0
  4  5  1  0  0  0
  5  7  1  0  0  0
  7  8  2  0  0  0
  8  9  1  0  0  0
  9 10  2  0  0  0
 10 11  1  0  0  0
 11 13  1  0  0  0
 13 14  1  0  0  0
 14 15  1  0  0  0
 15 16  2  0  0  0
 16 17  1  0  0  0
 17 18  2  0  0  0
 18 19  1  0  0  0
 18 20  1  0  0  0
 20 21  2  0  0  0
 11 12  2  0  0  0
  5  6  2  0  0  0
 27 28  2  0  0  0
 28 29  1  0  0  0
 29 30  2  0  0  0
 30 31  1  0  0  0
 30 25  1  0  0  0
  6  1  1  0  0  0
 12  7  1  0  0  0
 21 15  1  0  0  0
 35 36  1  0  0  0
 19 22  1  0  0  0
 31 32  1  0  0  0
M  END
> <Activity>
6.5

> <minimizedAffinity>
-8.87178

$$$$
HIPS7006


 36 39  0  0  0  0  0  0  0  0999 V2000
   67.3173   79.4154   87.2782 C   0  0  0  0  0  0  0  0  0  0  0  0
   67.3227   78.9174   85.9685 C   0  0  0  0  0  0  0  0  0  0  0  0
   66.9776   77.5871   85.7246 C   0  0  0  0  0  0  0  0  0  0  0  0
   66.6105   76.7491   86.7815 C   0  0  0  0  0  0  0  0  0  0  0  0
   66.6262   77.2211   88.1089 C   0  0  0  0  0  0  0  0  0  0  0  0
   67.0296   78.5492   88.3447 C   0  0  0  0  0  0  0  0  0  0  0  0
   66.1651   76.3583   89.2361 C   0  0  0  0  0  0  0  0  0  0  0  0
   65.0040   75.5716   89.1149 C   0  0  0  0  0  0  0  0  0  0  0  0
   64.5543   74.8008   90.1891 C   0  0  0  0  0  0  0  0  0  0  0  0
   65.2656   74.7848   91.3894 C   0  0  0  0  0  0  0  0  0  0  0  0
   66.4421   75.5271   91.5259 C   0  0  0  0  0  0  0  0  0  0  0  0
   66.8755   76.3303   90.4553 C   0  0  0  0  0  0  0  0  0  0  0  0
   67.1541   75.4304   92.7324 O   0  0  0  0  0  0  0  0  0  0  0  0
   68.4516   75.9823   92.9650 C   0  0  0  0  0  0  0  0  0  0  0  0
   68.3819   77.4520   93.2847 C   0  0  0  0  0  0  0  0  0  0  0  0
   69.1688   77.9909   94.3152 C   0  0  0  0  0  0  0  0  0  0  0  0
   69.1582   79.3671   94.5645 C   0  0  0  0  0  0  0  0  0  0  0  0
   68.3697   80.2193   93.7792 C   0  0  0  0  0  0  0  0  0  0  0  0
   68.3464   81.5907   94.0219 O   0  0  0  0  0  0  0  0  0  0  0  0
   67.5928   79.6880   92.7449 C   0  0  0  0  0  0  0  0  0  0  0  0
   67.5997   78.3124   92.4955 C   0  0  0  0  0  0  0  0  0  0  0  0
   68.8646   81.9530   94.7134 H   0  0  0  0  0  0  0  0  0  0  0  0
   67.5381   80.8833   87.5440 C   0  0  0  0  0  0  0  0  0  0  0  0
   68.9183   81.2423   87.4264 O   0  0  0  0  0  0  0  0  0  0  0  0
   71.0029   78.5203   88.9609 C   0  0  0  0  0  0  0  0  0  0  0  0
   69.9198   79.1726   88.3414 C   0  0  0  0  0  0  0  0  0  0  0  0
   70.0111   80.5189   87.9404 C   0  0  0  0  0  0  0  0  0  0  0  0
   71.2289   81.1852   88.0844 C   0  0  0  0  0  0  0  0  0  0  0  0
   72.3413   80.5245   88.6046 C   0  0  0  0  0  0  0  0  0  0  0  0
   72.2514   79.1933   89.0258 C   0  0  0  0  0  0  0  0  0  0  0  0
   73.4249   78.5795   89.4689 O   0  0  0  0  0  0  0  0  0  0  0  0
   74.2264   79.0642   89.4944 H   0  0  0  0  0  0  0  0  0  0  0  0
   71.0816   76.9903   90.8037 O   0  0  0  0  0  0  0  0  0  0  0  0
   70.7493   77.2045   89.6083 C   0  0  0  0  0  0  0  0  0  0  0  0
   70.0522   76.2137   88.9201 O   0  0  0  0  0  0  0  0  0  0  0  0
   69.7958   76.3536   88.0298 H   0  0  0  0  0  0  0  0  0  0  0  0
 33 34  2  0  0  0
 34 35  1  0  0  0
 34 25  1  0  0  0
 25 26  2  0  0  0
 26 27  1  0  0  0
 27 24  1  0  0  0
 24 23  1  0  0  0
 23  1  1  0  0  0
  1  2  2  0  0  0
  2  3  1  0  0  0
  3  4  2  0  0  0
  4  5  1  0  0  0
  5  7  1  0  0  0
  7  8  2  0  0  0
  8  9  1  0  0  0
  9 10  2  0  0  0
 10 11  1  0  0  0
 11 13  1  0  0  0
 13 14  1  0  0  0
 14 15  1  0  0  0
 15 16  2  0  0  0
 16 17  1  0  0  0
 17 18  2  0  0  0
 18 19  1  0  0  0
 18 20  1  0  0  0
 20 21  2  0  0  0
 11 12  2  0  0  0
  5  6  2  0  0  0
 27 28  2  0  0  0
 28 29  1  0  0  0
 29 30  2  0  0  0
 30 31  1  0  0  0
 30 25  1  0  0  0
  6  1  1  0  0  0
 12  7  1  0  0  0
 21 15  1  0  0  0
 35 36  1  0  0  0
 19 22  1  0  0  0
 31 32  1  0  0  0
M  END
> <Activity>
6.5

> <minimizedAffinity>
-8.67240

$$$$
HIPS6999


 35 38  0  0  0  0  0  0  0  0999 V2000
   69.2755   76.6370   90.0728 C   0  0  0  0  0  0  0  0  0  0  0  0
   70.6193   76.5072   90.4688 C   0  0  0  0  0  0  0  0  0  0  0  0
   70.9888   75.5472   91.4137 C   0  0  0  0  0  0  0  0  0  0  0  0
   70.0247   74.7098   91.9781 C   0  0  0  0  0  0  0  0  0  0  0  0
   68.6774   74.8353   91.6094 C   0  0  0  0  0  0  0  0  0  0  0  0
   68.3100   75.7892   90.6466 C   0  0  0  0  0  0  0  0  0  0  0  0
   69.2427   79.8190   87.9841 C   0  0  0  0  0  0  0  0  0  0  0  0
   68.1241   79.5906   87.1761 C   0  0  0  0  0  0  0  0  0  0  0  0
   67.3876   78.4113   87.3024 C   0  0  0  0  0  0  0  0  0  0  0  0
   67.7607   77.4474   88.2414 C   0  0  0  0  0  0  0  0  0  0  0  0
   68.8834   77.6520   89.0624 C   0  0  0  0  0  0  0  0  0  0  0  0
   69.6266   78.8377   88.9188 C   0  0  0  0  0  0  0  0  0  0  0  0
   69.9392   81.0288   87.8279 O   0  0  0  0  0  0  0  0  0  0  0  0
   70.8053   81.6142   88.8019 C   0  0  0  0  0  0  0  0  0  0  0  0
   75.9910   78.9712   88.8375 C   0  0  0  0  0  0  0  0  0  0  0  0
   74.6535   79.6499   88.8536 C   0  0  0  0  0  0  0  0  0  0  0  0
   74.5720   81.0497   88.8120 C   0  0  0  0  0  0  0  0  0  0  0  0
   73.3259   81.6833   88.7946 C   0  0  0  0  0  0  0  0  0  0  0  0
   72.1451   80.9254   88.8120 C   0  0  0  0  0  0  0  0  0  0  0  0
   72.2278   79.5237   88.8196 C   0  0  0  0  0  0  0  0  0  0  0  0
   73.4739   78.8904   88.8398 C   0  0  0  0  0  0  0  0  0  0  0  0
   67.6480   73.9061   92.1832 C   0  0  0  0  0  0  0  0  0  0  0  0
   66.7767   73.4732   91.1422 O   0  0  0  0  0  0  0  0  0  0  0  0
   65.4171   73.8064   91.0543 C   0  0  0  0  0  0  0  0  0  0  0  0
   64.4059   72.9936   91.5925 C   0  0  0  0  0  0  0  0  0  0  0  0
   63.0668   73.3649   91.4685 C   0  0  0  0  0  0  0  0  0  0  0  0
   62.7094   74.5446   90.8069 C   0  0  0  0  0  0  0  0  0  0  0  0
   61.3479   74.8142   90.6515 O   0  0  0  0  0  0  0  0  0  0  0  0
   63.7220   75.3943   90.2945 C   0  0  0  0  0  0  0  0  0  0  0  0
   65.0663   74.9972   90.4100 C   0  0  0  0  0  0  0  0  0  0  0  0
   60.7104   74.2260   91.0059 H   0  0  0  0  0  0  0  0  0  0  0  0
   63.4291   76.7015   89.6662 C   0  0  0  0  0  0  0  0  0  0  0  0
   64.0320   77.7446   90.0349 O   0  0  0  0  0  0  0  0  0  0  0  0
   62.5207   76.7754   88.6136 O   0  0  0  0  0  0  0  0  0  0  0  0
   62.0669   76.0056   88.3315 H   0  0  0  0  0  0  0  0  0  0  0  0
 15 16  1  0  0  0
 16 17  2  0  0  0
 17 18  1  0  0  0
 18 19  2  0  0  0
 19 14  1  0  0  0
 14 13  1  0  0  0
 13  7  1  0  0  0
  7  8  2  0  0  0
  8  9  1  0  0  0
  9 10  2  0  0  0
 10 11  1  0  0  0
 11  1  1  0  0  0
  1  2  2  0  0  0
  2  3  1  0  0  0
  3  4  2  0  0  0
  4  5  1  0  0  0
  5 22  1  0  0  0
 22 23  1  0  0  0
 23 24  1  0  0  0
 24 25  2  0  0  0
 25 26  1  0  0  0
 26 27  2  0  0  0
 27 28  1  0  0  0
 27 29  1  0  0  0
 29 32  1  0  0  0
 32 33  2  0  0  0
 32 34  1  0  0  0
 29 30  2  0  0  0
  5  6  2  0  0  0
 11 12  2  0  0  0
 19 20  1  0  0  0
 20 21  2  0  0  0
 21 16  1  0  0  0
 12  7  1  0  0  0
  6  1  1  0  0  0
 30 24  1  0  0  0
 28 31  1  0  0  0
 34 35  1  0  0  0
M  END
> <Activity>
7.6

> <minimizedAffinity>
-11.32309

$$$$
HIPS6999


 35 38  0  0  0  0  0  0  0  0999 V2000
   66.5744   76.8379   91.0694 C   0  0  0  0  0  0  0  0  0  0  0  0
   65.3417   76.2462   91.4010 C   0  0  0  0  0  0  0  0  0  0  0  0
   64.5133   75.7302   90.4018 C   0  0  0  0  0  0  0  0  0  0  0  0
   64.9002   75.8018   89.0622 C   0  0  0  0  0  0  0  0  0  0  0  0
   66.1172   76.4034   88.7100 C   0  0  0  0  0  0  0  0  0  0  0  0
   66.9568   76.9062   89.7170 C   0  0  0  0  0  0  0  0  0  0  0  0
   68.1597   79.2340   93.5664 C   0  0  0  0  0  0  0  0  0  0  0  0
   69.1538   78.4186   94.1172 C   0  0  0  0  0  0  0  0  0  0  0  0
   69.3070   77.0993   93.6872 C   0  0  0  0  0  0  0  0  0  0  0  0
   68.4683   76.5811   92.6982 C   0  0  0  0  0  0  0  0  0  0  0  0
   67.4591   77.3795   92.1320 C   0  0  0  0  0  0  0  0  0  0  0  0
   67.3043   78.7035   92.5810 C   0  0  0  0  0  0  0  0  0  0  0  0
   68.0585   80.5586   94.0228 O   0  0  0  0  0  0  0  0  0  0  0  0
   68.5232   81.0335   95.2877 C   0  0  0  0  0  0  0  0  0  0  0  0
   64.5532   84.4861   97.7769 C   0  0  0  0  0  0  0  0  0  0  0  0
   65.5598   83.5770   97.1367 C   0  0  0  0  0  0  0  0  0  0  0  0
   65.7226   83.5743   95.7433 C   0  0  0  0  0  0  0  0  0  0  0  0
   66.6825   82.7511   95.1471 C   0  0  0  0  0  0  0  0  0  0  0  0
   67.4966   81.9247   95.9367 C   0  0  0  0  0  0  0  0  0  0  0  0
   67.3558   81.9532   97.3335 C   0  0  0  0  0  0  0  0  0  0  0  0
   66.3942   82.7743   97.9293 C   0  0  0  0  0  0  0  0  0  0  0  0
   66.5531   76.4410   87.2744 C   0  0  0  0  0  0  0  0  0  0  0  0
   67.9496   76.7184   87.2169 O   0  0  0  0  0  0  0  0  0  0  0  0
   68.5265   77.9586   87.5272 C   0  0  0  0  0  0  0  0  0  0  0  0
   69.6805   78.0757   88.3194 C   0  0  0  0  0  0  0  0  0  0  0  0
   70.2086   79.3343   88.6081 C   0  0  0  0  0  0  0  0  0  0  0  0
   69.5999   80.4953   88.1194 C   0  0  0  0  0  0  0  0  0  0  0  0
   70.1364   81.7235   88.5122 O   0  0  0  0  0  0  0  0  0  0  0  0
   68.4584   80.3894   87.2854 C   0  0  0  0  0  0  0  0  0  0  0  0
   67.9261   79.1151   87.0190 C   0  0  0  0  0  0  0  0  0  0  0  0
   70.8927   81.7491   89.0648 H   0  0  0  0  0  0  0  0  0  0  0  0
   67.8151   81.5632   86.6548 C   0  0  0  0  0  0  0  0  0  0  0  0
   68.1413   81.9328   85.4952 O   0  0  0  0  0  0  0  0  0  0  0  0
   66.7944   82.2349   87.3223 O   0  0  0  0  0  0  0  0  0  0  0  0
   66.5440   81.9682   88.1850 H   0  0  0  0  0  0  0  0  0  0  0  0
 15 16  1  0  0  0
 16 17  2  0  0  0
 17 18  1  0  0  0
 18 19  2  0  0  0
 19 14  1  0  0  0
 14 13  1  0  0  0
 13  7  1  0  0  0
  7  8  2  0  0  0
  8  9  1  0  0  0
  9 10  2  0  0  0
 10 11  1  0  0  0
 11  1  1  0  0  0
  1  2  2  0  0  0
  2  3  1  0  0  0
  3  4  2  0  0  0
  4  5  1  0  0  0
  5 22  1  0  0  0
 22 23  1  0  0  0
 23 24  1  0  0  0
 24 25  2  0  0  0
 25 26  1  0  0  0
 26 27  2  0  0  0
 27 28  1  0  0  0
 27 29  1  0  0  0
 29 32  1  0  0  0
 32 33  2  0  0  0
 32 34  1  0  0  0
 29 30  2  0  0  0
  5  6  2  0  0  0
 11 12  2  0  0  0
 19 20  1  0  0  0
 20 21  2  0  0  0
 21 16  1  0  0  0
 12  7  1  0  0  0
  6  1  1  0  0  0
 30 24  1  0  0  0
 28 31  1  0  0  0
 34 35  1  0  0  0
M  END
> <Activity>
7.6

> <minimizedAffinity>
-10.85455

$$$$
HIPS6999


 35 38  0  0  0  0  0  0  0  0999 V2000
   70.0186   77.2024   90.2113 C   0  0  0  0  0  0  0  0  0  0  0  0
   71.0520   76.2513   90.1278 C   0  0  0  0  0  0  0  0  0  0  0  0
   71.0313   75.1115   90.9349 C   0  0  0  0  0  0  0  0  0  0  0  0
   69.9850   74.9085   91.8367 C   0  0  0  0  0  0  0  0  0  0  0  0
   68.9546   75.8535   91.9471 C   0  0  0  0  0  0  0  0  0  0  0  0
   68.9678   76.9903   91.1229 C   0  0  0  0  0  0  0  0  0  0  0  0
   71.1331   80.4654   88.5989 C   0  0  0  0  0  0  0  0  0  0  0  0
   70.0566   80.7151   87.7414 C   0  0  0  0  0  0  0  0  0  0  0  0
   68.9787   79.8300   87.6810 C   0  0  0  0  0  0  0  0  0  0  0  0
   68.9642   78.6853   88.4807 C   0  0  0  0  0  0  0  0  0  0  0  0
   70.0361   78.4104   89.3478 C   0  0  0  0  0  0  0  0  0  0  0  0
   71.1236   79.3015   89.3921 C   0  0  0  0  0  0  0  0  0  0  0  0
   72.1848   81.3959   88.6332 O   0  0  0  0  0  0  0  0  0  0  0  0
   73.5638   81.0760   88.8270 C   0  0  0  0  0  0  0  0  0  0  0  0
   76.9499   85.5423   87.2571 C   0  0  0  0  0  0  0  0  0  0  0  0
   76.0866   84.3930   87.6853 C   0  0  0  0  0  0  0  0  0  0  0  0
   74.7398   84.6065   88.0149 C   0  0  0  0  0  0  0  0  0  0  0  0
   73.9251   83.5319   88.3834 C   0  0  0  0  0  0  0  0  0  0  0  0
   74.4445   82.2288   88.4208 C   0  0  0  0  0  0  0  0  0  0  0  0
   75.7836   82.0117   88.0581 C   0  0  0  0  0  0  0  0  0  0  0  0
   76.5988   83.0868   87.6923 C   0  0  0  0  0  0  0  0  0  0  0  0
   67.8076   75.6137   92.8848 C   0  0  0  0  0  0  0  0  0  0  0  0
   67.1201   74.4300   92.4894 O   0  0  0  0  0  0  0  0  0  0  0  0
   65.9364   74.4125   91.7373 C   0  0  0  0  0  0  0  0  0  0  0  0
   65.1802   73.2439   91.5493 C   0  0  0  0  0  0  0  0  0  0  0  0
   64.0152   73.2777   90.7825 C   0  0  0  0  0  0  0  0  0  0  0  0
   63.5838   74.4684   90.1880 C   0  0  0  0  0  0  0  0  0  0  0  0
   62.4531   74.4125   89.3701 O   0  0  0  0  0  0  0  0  0  0  0  0
   64.3155   75.6634   90.4030 C   0  0  0  0  0  0  0  0  0  0  0  0
   65.4983   75.6099   91.1622 C   0  0  0  0  0  0  0  0  0  0  0  0
   61.9980   73.6016   89.2547 H   0  0  0  0  0  0  0  0  0  0  0  0
   63.8733   76.9777   89.8866 C   0  0  0  0  0  0  0  0  0  0  0  0
   64.5184   78.0266   90.1539 O   0  0  0  0  0  0  0  0  0  0  0  0
   62.7663   77.0540   89.0458 O   0  0  0  0  0  0  0  0  0  0  0  0
   62.2796   76.2801   88.8406 H   0  0  0  0  0  0  0  0  0  0  0  0
 15 16  1  0  0  0
 16 17  2  0  0  0
 17 18  1  0  0  0
 18 19  2  0  0  0
 19 14  1  0  0  0
 14 13  1  0  0  0
 13  7  1  0  0  0
  7  8  2  0  0  0
  8  9  1  0  0  0
  9 10  2  0  0  0
 10 11  1  0  0  0
 11  1  1  0  0  0
  1  2  2  0  0  0
  2  3  1  0  0  0
  3  4  2  0  0  0
  4  5  1  0  0  0
  5 22  1  0  0  0
 22 23  1  0  0  0
 23 24  1  0  0  0
 24 25  2  0  0  0
 25 26  1  0  0  0
 26 27  2  0  0  0
 27 28  1  0  0  0
 27 29  1  0  0  0
 29 32  1  0  0  0
 32 33  2  0  0  0
 32 34  1  0  0  0
 29 30  2  0  0  0
  5  6  2  0  0  0
 11 12  2  0  0  0
 19 20  1  0  0  0
 20 21  2  0  0  0
 21 16  1  0  0  0
 12  7  1  0  0  0
  6  1  1  0  0  0
 30 24  1  0  0  0
 28 31  1  0  0  0
 34 35  1  0  0  0
M  END
> <Activity>
7.6

> <minimizedAffinity>
-10.38206

$$$$
HIPS6999


 35 38  0  0  0  0  0  0  0  0999 V2000
   68.4016   75.9372   90.7298 C   0  0  0  0  0  0  0  0  0  0  0  0
   69.3474   75.7118   91.7468 C   0  0  0  0  0  0  0  0  0  0  0  0
   69.1678   74.6723   92.6622 C   0  0  0  0  0  0  0  0  0  0  0  0
   68.0431   73.8492   92.5784 C   0  0  0  0  0  0  0  0  0  0  0  0
   67.0802   74.0686   91.5826 C   0  0  0  0  0  0  0  0  0  0  0  0
   67.2708   75.1032   90.6525 C   0  0  0  0  0  0  0  0  0  0  0  0
   69.4344   79.2722   89.2134 C   0  0  0  0  0  0  0  0  0  0  0  0
   68.9353   79.1351   87.9139 C   0  0  0  0  0  0  0  0  0  0  0  0
   68.2732   77.9679   87.5287 C   0  0  0  0  0  0  0  0  0  0  0  0
   68.1002   76.9249   88.4409 C   0  0  0  0  0  0  0  0  0  0  0  0
   68.5961   77.0373   89.7515 C   0  0  0  0  0  0  0  0  0  0  0  0
   69.2731   78.2119   90.1264 C   0  0  0  0  0  0  0  0  0  0  0  0
   70.0783   80.4731   89.5544 O   0  0  0  0  0  0  0  0  0  0  0  0
   70.9701   81.2008   88.7078 C   0  0  0  0  0  0  0  0  0  0  0  0
   76.3011   78.8688   88.8465 C   0  0  0  0  0  0  0  0  0  0  0  0
   74.9291   79.4718   88.7855 C   0  0  0  0  0  0  0  0  0  0  0  0
   73.7943   78.6474   88.8093 C   0  0  0  0  0  0  0  0  0  0  0  0
   72.5143   79.2088   88.7848 C   0  0  0  0  0  0  0  0  0  0  0  0
   72.3520   80.6021   88.7428 C   0  0  0  0  0  0  0  0  0  0  0  0
   73.4881   81.4272   88.7531 C   0  0  0  0  0  0  0  0  0  0  0  0
   74.7680   80.8655   88.7748 C   0  0  0  0  0  0  0  0  0  0  0  0
   65.8939   73.1568   91.4656 C   0  0  0  0  0  0  0  0  0  0  0  0
   64.7090   73.8909   91.7610 O   0  0  0  0  0  0  0  0  0  0  0  0
   64.0077   74.6744   90.8328 C   0  0  0  0  0  0  0  0  0  0  0  0
   64.1511   76.0699   90.7638 C   0  0  0  0  0  0  0  0  0  0  0  0
   63.4217   76.8048   89.8287 C   0  0  0  0  0  0  0  0  0  0  0  0
   62.5374   76.1689   88.9507 C   0  0  0  0  0  0  0  0  0  0  0  0
   61.7822   76.9738   88.0949 O   0  0  0  0  0  0  0  0  0  0  0  0
   62.4134   74.7570   88.9825 C   0  0  0  0  0  0  0  0  0  0  0  0
   63.1404   74.0316   89.9434 C   0  0  0  0  0  0  0  0  0  0  0  0
   61.8951   77.9039   88.1056 H   0  0  0  0  0  0  0  0  0  0  0  0
   61.5715   74.0048   88.0261 C   0  0  0  0  0  0  0  0  0  0  0  0
   60.3447   74.2646   87.9029 O   0  0  0  0  0  0  0  0  0  0  0  0
   62.1491   73.0383   87.2072 O   0  0  0  0  0  0  0  0  0  0  0  0
   63.0605   72.8374   87.2905 H   0  0  0  0  0  0  0  0  0  0  0  0
 15 16  1  0  0  0
 16 17  2  0  0  0
 17 18  1  0  0  0
 18 19  2  0  0  0
 19 14  1  0  0  0
 14 13  1  0  0  0
 13  7  1  0  0  0
  7  8  2  0  0  0
  8  9  1  0  0  0
  9 10  2  0  0  0
 10 11  1  0  0  0
 11  1  1  0  0  0
  1  2  2  0  0  0
  2  3  1  0  0  0
  3  4  2  0  0  0
  4  5  1  0  0  0
  5 22  1  0  0  0
 22 23  1  0  0  0
 23 24  1  0  0  0
 24 25  2  0  0  0
 25 26  1  0  0  0
 26 27  2  0  0  0
 27 28  1  0  0  0
 27 29  1  0  0  0
 29 32  1  0  0  0
 32 33  2  0  0  0
 32 34  1  0  0  0
 29 30  2  0  0  0
  5  6  2  0  0  0
 11 12  2  0  0  0
 19 20  1  0  0  0
 20 21  2  0  0  0
 21 16  1  0  0  0
 12  7  1  0  0  0
  6  1  1  0  0  0
 30 24  1  0  0  0
 28 31  1  0  0  0
 34 35  1  0  0  0
M  END
> <Activity>
7.6

> <minimizedAffinity>
-10.37393

$$$$
HIPS6999


 35 38  0  0  0  0  0  0  0  0999 V2000
   69.2664   76.4057   89.8297 C   0  0  0  0  0  0  0  0  0  0  0  0
   70.5858   76.3790   90.3177 C   0  0  0  0  0  0  0  0  0  0  0  0
   70.9826   75.3992   91.2306 C   0  0  0  0  0  0  0  0  0  0  0  0
   70.0700   74.4388   91.6712 C   0  0  0  0  0  0  0  0  0  0  0  0
   68.7457   74.4590   91.2097 C   0  0  0  0  0  0  0  0  0  0  0  0
   68.3528   75.4342   90.2789 C   0  0  0  0  0  0  0  0  0  0  0  0
   69.1465   79.6520   87.8458 C   0  0  0  0  0  0  0  0  0  0  0  0
   68.0331   79.4206   87.0315 C   0  0  0  0  0  0  0  0  0  0  0  0
   67.3282   78.2187   87.1197 C   0  0  0  0  0  0  0  0  0  0  0  0
   67.7280   77.2350   88.0266 C   0  0  0  0  0  0  0  0  0  0  0  0
   68.8461   77.4424   88.8531 C   0  0  0  0  0  0  0  0  0  0  0  0
   69.5575   78.6513   88.7478 C   0  0  0  0  0  0  0  0  0  0  0  0
   69.8106   80.8843   87.7287 O   0  0  0  0  0  0  0  0  0  0  0  0
   70.6212   81.4844   88.7407 C   0  0  0  0  0  0  0  0  0  0  0  0
   75.8996   79.0358   88.8802 C   0  0  0  0  0  0  0  0  0  0  0  0
   74.5407   79.6676   88.8189 C   0  0  0  0  0  0  0  0  0  0  0  0
   73.3882   78.8722   88.9037 C   0  0  0  0  0  0  0  0  0  0  0  0
   72.1210   79.4621   88.8790 C   0  0  0  0  0  0  0  0  0  0  0  0
   71.9896   80.8554   88.7756 C   0  0  0  0  0  0  0  0  0  0  0  0
   73.1441   81.6530   88.7247 C   0  0  0  0  0  0  0  0  0  0  0  0
   74.4111   81.0628   88.7467 C   0  0  0  0  0  0  0  0  0  0  0  0
   67.7768   73.4007   91.6494 C   0  0  0  0  0  0  0  0  0  0  0  0
   66.6324   74.0245   92.2250 O   0  0  0  0  0  0  0  0  0  0  0  0
   65.7674   74.8875   91.5363 C   0  0  0  0  0  0  0  0  0  0  0  0
   64.6708   74.4202   90.7934 C   0  0  0  0  0  0  0  0  0  0  0  0
   63.8468   75.3201   90.1170 C   0  0  0  0  0  0  0  0  0  0  0  0
   64.0986   76.6955   90.1638 C   0  0  0  0  0  0  0  0  0  0  0  0
   63.2805   77.5310   89.4000 O   0  0  0  0  0  0  0  0  0  0  0  0
   65.1778   77.1836   90.9428 C   0  0  0  0  0  0  0  0  0  0  0  0
   66.0112   76.2632   91.6033 C   0  0  0  0  0  0  0  0  0  0  0  0
   62.5772   77.1674   88.8989 H   0  0  0  0  0  0  0  0  0  0  0  0
   65.4514   78.6273   91.1175 C   0  0  0  0  0  0  0  0  0  0  0  0
   65.4605   79.4070   90.1277 O   0  0  0  0  0  0  0  0  0  0  0  0
   65.6424   79.1458   92.3954 O   0  0  0  0  0  0  0  0  0  0  0  0
   65.6374   78.5748   93.1383 H   0  0  0  0  0  0  0  0  0  0  0  0
 15 16  1  0  0  0
 16 17  2  0  0  0
 17 18  1  0  0  0
 18 19  2  0  0  0
 19 14  1  0  0  0
 14 13  1  0  0  0
 13  7  1  0  0  0
  7  8  2  0  0  0
  8  9  1  0  0  0
  9 10  2  0  0  0
 10 11  1  0  0  0
 11  1  1  0  0  0
  1  2  2  0  0  0
  2  3  1  0  0  0
  3  4  2  0  0  0
  4  5  1  0  0  0
  5 22  1  0  0  0
 22 23  1  0  0  0
 23 24  1  0  0  0
 24 25  2  0  0  0
 25 26  1  0  0  0
 26 27  2  0  0  0
 27 28  1  0  0  0
 27 29  1  0  0  0
 29 32  1  0  0  0
 32 33  2  0  0  0
 32 34  1  0  0  0
 29 30  2  0  0  0
  5  6  2  0  0  0
 11 12  2  0  0  0
 19 20  1  0  0  0
 20 21  2  0  0  0
 21 16  1  0  0  0
 12  7  1  0  0  0
  6  1  1  0  0  0
 30 24  1  0  0  0
 28 31  1  0  0  0
 34 35  1  0  0  0
M  END
> <Activity>
7.6

> <minimizedAffinity>
-10.27869

$$$$
HIPS6999


 35 38  0  0  0  0  0  0  0  0999 V2000
   69.1317   77.6486   88.8195 C   0  0  0  0  0  0  0  0  0  0  0  0
   68.1926   76.9493   88.0393 C   0  0  0  0  0  0  0  0  0  0  0  0
   67.8024   75.6557   88.3929 C   0  0  0  0  0  0  0  0  0  0  0  0
   68.3456   75.0425   89.5234 C   0  0  0  0  0  0  0  0  0  0  0  0
   69.2960   75.7164   90.3042 C   0  0  0  0  0  0  0  0  0  0  0  0
   69.6745   77.0233   89.9573 C   0  0  0  0  0  0  0  0  0  0  0  0
   71.1042   80.8993   88.6434 C   0  0  0  0  0  0  0  0  0  0  0  0
   70.3004   81.6470   87.7767 C   0  0  0  0  0  0  0  0  0  0  0  0
   69.1296   81.1007   87.2477 C   0  0  0  0  0  0  0  0  0  0  0  0
   68.7479   79.7999   87.5825 C   0  0  0  0  0  0  0  0  0  0  0  0
   69.5410   79.0270   88.4485 C   0  0  0  0  0  0  0  0  0  0  0  0
   70.7255   79.5816   88.9662 C   0  0  0  0  0  0  0  0  0  0  0  0
   72.2632   81.5016   89.1603 O   0  0  0  0  0  0  0  0  0  0  0  0
   73.6006   81.0618   88.9169 C   0  0  0  0  0  0  0  0  0  0  0  0
   76.9500   85.5098   87.2213 C   0  0  0  0  0  0  0  0  0  0  0  0
   76.0960   84.3660   87.6818 C   0  0  0  0  0  0  0  0  0  0  0  0
   74.7466   84.5770   88.0018 C   0  0  0  0  0  0  0  0  0  0  0  0
   73.9407   83.5064   88.4004 C   0  0  0  0  0  0  0  0  0  0  0  0
   74.4719   82.2099   88.4782 C   0  0  0  0  0  0  0  0  0  0  0  0
   75.8138   81.9943   88.1254 C   0  0  0  0  0  0  0  0  0  0  0  0
   76.6201   83.0654   87.7293 C   0  0  0  0  0  0  0  0  0  0  0  0
   69.8470   75.0743   91.5438 C   0  0  0  0  0  0  0  0  0  0  0  0
   69.0985   75.5176   92.6723 O   0  0  0  0  0  0  0  0  0  0  0  0
   68.6497   76.8330   92.8608 C   0  0  0  0  0  0  0  0  0  0  0  0
   69.3322   77.7528   93.6739 C   0  0  0  0  0  0  0  0  0  0  0  0
   68.8376   79.0470   93.8373 C   0  0  0  0  0  0  0  0  0  0  0  0
   67.6581   79.4482   93.2006 C   0  0  0  0  0  0  0  0  0  0  0  0
   67.1795   80.7320   93.4712 O   0  0  0  0  0  0  0  0  0  0  0  0
   66.9814   78.5427   92.3452 C   0  0  0  0  0  0  0  0  0  0  0  0
   67.4814   77.2355   92.2056 C   0  0  0  0  0  0  0  0  0  0  0  0
   67.6580   81.2996   94.0429 H   0  0  0  0  0  0  0  0  0  0  0  0
   65.7824   78.9213   91.5651 C   0  0  0  0  0  0  0  0  0  0  0  0
   65.8734   79.2136   90.3428 O   0  0  0  0  0  0  0  0  0  0  0  0
   64.5281   78.8979   92.1687 O   0  0  0  0  0  0  0  0  0  0  0  0
   64.4492   78.6817   93.0770 H   0  0  0  0  0  0  0  0  0  0  0  0
 15 16  1  0  0  0
 16 17  2  0  0  0
 17 18  1  0  0  0
 18 19  2  0  0  0
 19 14  1  0  0  0
 14 13  1  0  0  0
 13  7  1  0  0  0
  7  8  2  0  0  0
  8  9  1  0  0  0
  9 10  2  0  0  0
 10 11  1  0  0  0
 11  1  1  0  0  0
  1  2  2  0  0  0
  2  3  1  0  0  0
  3  4  2  0  0  0
  4  5  1  0  0  0
  5 22  1  0  0  0
 22 23  1  0  0  0
 23 24  1  0  0  0
 24 25  2  0  0  0
 25 26  1  0  0  0
 26 27  2  0  0  0
 27 28  1  0  0  0
 27 29  1  0  0  0
 29 32  1  0  0  0
 32 33  2  0  0  0
 32 34  1  0  0  0
 29 30  2  0  0  0
  5  6  2  0  0  0
 11 12  2  0  0  0
 19 20  1  0  0  0
 20 21  2  0  0  0
 21 16  1  0  0  0
 12  7  1  0  0  0
  6  1  1  0  0  0
 30 24  1  0  0  0
 28 31  1  0  0  0
 34 35  1  0  0  0
M  END
> <Activity>
7.6

> <minimizedAffinity>
-10.16143

$$$$
HIPS6999


 35 38  0  0  0  0  0  0  0  0999 V2000
   69.9203   77.3073   90.0471 C   0  0  0  0  0  0  0  0  0  0  0  0
   71.0901   76.7127   90.5546 C   0  0  0  0  0  0  0  0  0  0  0  0
   71.0210   75.5179   91.2749 C   0  0  0  0  0  0  0  0  0  0  0  0
   69.7873   74.9050   91.5018 C   0  0  0  0  0  0  0  0  0  0  0  0
   68.6082   75.4911   91.0191 C   0  0  0  0  0  0  0  0  0  0  0  0
   68.6809   76.6832   90.2804 C   0  0  0  0  0  0  0  0  0  0  0  0
   71.1636   80.6470   88.7092 C   0  0  0  0  0  0  0  0  0  0  0  0
   70.1206   80.9863   87.8412 C   0  0  0  0  0  0  0  0  0  0  0  0
   69.0237   80.1368   87.6854 C   0  0  0  0  0  0  0  0  0  0  0  0
   68.9564   78.9385   88.3991 C   0  0  0  0  0  0  0  0  0  0  0  0
   69.9940   78.5734   89.2746 C   0  0  0  0  0  0  0  0  0  0  0  0
   71.1011   79.4297   89.4151 C   0  0  0  0  0  0  0  0  0  0  0  0
   72.2363   81.5442   88.8415 O   0  0  0  0  0  0  0  0  0  0  0  0
   73.6187   81.1834   88.8434 C   0  0  0  0  0  0  0  0  0  0  0  0
   76.9476   85.6386   87.1268 C   0  0  0  0  0  0  0  0  0  0  0  0
   76.0798   84.4893   87.5459 C   0  0  0  0  0  0  0  0  0  0  0  0
   76.5991   83.1865   87.5739 C   0  0  0  0  0  0  0  0  0  0  0  0
   75.8014   82.1183   87.9947 C   0  0  0  0  0  0  0  0  0  0  0  0
   74.4760   82.3397   88.3992 C   0  0  0  0  0  0  0  0  0  0  0  0
   73.9678   83.6487   88.4028 C   0  0  0  0  0  0  0  0  0  0  0  0
   74.7648   84.7163   87.9794 C   0  0  0  0  0  0  0  0  0  0  0  0
   67.2871   74.8097   91.2251 C   0  0  0  0  0  0  0  0  0  0  0  0
   66.2445   75.7778   91.1480 O   0  0  0  0  0  0  0  0  0  0  0  0
   64.9335   75.5020   90.7327 C   0  0  0  0  0  0  0  0  0  0  0  0
   64.4152   75.9691   89.5137 C   0  0  0  0  0  0  0  0  0  0  0  0
   63.1001   75.6759   89.1520 C   0  0  0  0  0  0  0  0  0  0  0  0
   62.2781   74.9187   89.9936 C   0  0  0  0  0  0  0  0  0  0  0  0
   60.9500   74.7300   89.6049 O   0  0  0  0  0  0  0  0  0  0  0  0
   62.8010   74.4070   91.2078 C   0  0  0  0  0  0  0  0  0  0  0  0
   64.1223   74.7271   91.5681 C   0  0  0  0  0  0  0  0  0  0  0  0
   60.6443   75.0852   88.7935 H   0  0  0  0  0  0  0  0  0  0  0  0
   62.0251   73.5220   92.1046 C   0  0  0  0  0  0  0  0  0  0  0  0
   60.8313   73.7925   92.4037 O   0  0  0  0  0  0  0  0  0  0  0  0
   62.5963   72.3441   92.5784 O   0  0  0  0  0  0  0  0  0  0  0  0
   63.4833   72.1334   92.3619 H   0  0  0  0  0  0  0  0  0  0  0  0
 15 16  1  0  0  0
 16 17  2  0  0  0
 17 18  1  0  0  0
 18 19  2  0  0  0
 19 14  1  0  0  0
 14 13  1  0  0  0
 13  7  1  0  0  0
  7  8  2  0  0  0
  8  9  1  0  0  0
  9 10  2  0  0  0
 10 11  1  0  0  0
 11  1  1  0  0  0
  1  2  2  0  0  0
  2  3  1  0  0  0
  3  4  2  0  0  0
  4  5  1  0  0  0
  5 22  1  0  0  0
 22 23  1  0  0  0
 23 24  1  0  0  0
 24 25  2  0  0  0
 25 26  1  0  0  0
 26 27  2  0  0  0
 27 28  1  0  0  0
 27 29  1  0  0  0
 29 32  1  0  0  0
 32 33  2  0  0  0
 32 34  1  0  0  0
 29 30  2  0  0  0
  5  6  2  0  0  0
 11 12  2  0  0  0
 19 20  1  0  0  0
 20 21  2  0  0  0
 21 16  1  0  0  0
 12  7  1  0  0  0
  6  1  1  0  0  0
 30 24  1  0  0  0
 28 31  1  0  0  0
 34 35  1  0  0  0
M  END
> <Activity>
7.6

> <minimizedAffinity>
-9.74100

$$$$
HIPS6999


 35 38  0  0  0  0  0  0  0  0999 V2000
   65.6907   76.6296   89.6755 C   0  0  0  0  0  0  0  0  0  0  0  0
   64.4458   77.2404   89.9136 C   0  0  0  0  0  0  0  0  0  0  0  0
   63.4310   76.5441   90.5740 C   0  0  0  0  0  0  0  0  0  0  0  0
   63.6423   75.2315   91.0002 C   0  0  0  0  0  0  0  0  0  0  0  0
   64.8704   74.5992   90.7569 C   0  0  0  0  0  0  0  0  0  0  0  0
   65.8955   75.3063   90.1081 C   0  0  0  0  0  0  0  0  0  0  0  0
   69.0155   78.3503   88.9872 C   0  0  0  0  0  0  0  0  0  0  0  0
   68.8087   78.8074   87.6815 C   0  0  0  0  0  0  0  0  0  0  0  0
   67.6025   78.5555   87.0253 C   0  0  0  0  0  0  0  0  0  0  0  0
   66.5874   77.8453   87.6696 C   0  0  0  0  0  0  0  0  0  0  0  0
   66.7726   77.3722   88.9804 C   0  0  0  0  0  0  0  0  0  0  0  0
   67.9962   77.6199   89.6286 C   0  0  0  0  0  0  0  0  0  0  0  0
   70.2408   78.6445   89.6078 O   0  0  0  0  0  0  0  0  0  0  0  0
   71.5309   78.3555   89.0658 C   0  0  0  0  0  0  0  0  0  0  0  0
   74.7156   83.2079   88.6313 C   0  0  0  0  0  0  0  0  0  0  0  0
   73.8967   81.9589   88.7686 C   0  0  0  0  0  0  0  0  0  0  0  0
   72.4972   82.0208   88.6943 C   0  0  0  0  0  0  0  0  0  0  0  0
   71.7336   80.8537   88.7900 C   0  0  0  0  0  0  0  0  0  0  0  0
   72.3596   79.6086   88.9547 C   0  0  0  0  0  0  0  0  0  0  0  0
   73.7617   79.5440   88.9951 C   0  0  0  0  0  0  0  0  0  0  0  0
   74.5249   80.7114   88.9021 C   0  0  0  0  0  0  0  0  0  0  0  0
   65.1126   73.2040   91.2537 C   0  0  0  0  0  0  0  0  0  0  0  0
   66.5164   72.9728   91.3326 O   0  0  0  0  0  0  0  0  0  0  0  0
   67.4477   73.8999   91.8227 C   0  0  0  0  0  0  0  0  0  0  0  0
   67.2711   74.5720   93.0434 C   0  0  0  0  0  0  0  0  0  0  0  0
   68.2225   75.4937   93.4810 C   0  0  0  0  0  0  0  0  0  0  0  0
   69.3611   75.7656   92.7148 C   0  0  0  0  0  0  0  0  0  0  0  0
   70.2315   76.7561   93.1754 O   0  0  0  0  0  0  0  0  0  0  0  0
   69.5718   75.0648   91.5007 C   0  0  0  0  0  0  0  0  0  0  0  0
   68.5945   74.1529   91.0629 C   0  0  0  0  0  0  0  0  0  0  0  0
   70.0553   77.1955   93.9840 H   0  0  0  0  0  0  0  0  0  0  0  0
   70.7941   75.2280   90.6829 C   0  0  0  0  0  0  0  0  0  0  0  0
   70.7911   74.9477   89.4544 O   0  0  0  0  0  0  0  0  0  0  0  0
   71.9472   75.7538   91.2592 O   0  0  0  0  0  0  0  0  0  0  0  0
   71.9602   75.9658   92.1718 H   0  0  0  0  0  0  0  0  0  0  0  0
 15 16  1  0  0  0
 16 17  2  0  0  0
 17 18  1  0  0  0
 18 19  2  0  0  0
 19 14  1  0  0  0
 14 13  1  0  0  0
 13  7  1  0  0  0
  7  8  2  0  0  0
  8  9  1  0  0  0
  9 10  2  0  0  0
 10 11  1  0  0  0
 11  1  1  0  0  0
  1  2  2  0  0  0
  2  3  1  0  0  0
  3  4  2  0  0  0
  4  5  1  0  0  0
  5 22  1  0  0  0
 22 23  1  0  0  0
 23 24  1  0  0  0
 24 25  2  0  0  0
 25 26  1  0  0  0
 26 27  2  0  0  0
 27 28  1  0  0  0
 27 29  1  0  0  0
 29 32  1  0  0  0
 32 33  2  0  0  0
 32 34  1  0  0  0
 29 30  2  0  0  0
  5  6  2  0  0  0
 11 12  2  0  0  0
 19 20  1  0  0  0
 20 21  2  0  0  0
 21 16  1  0  0  0
 12  7  1  0  0  0
  6  1  1  0  0  0
 30 24  1  0  0  0
 28 31  1  0  0  0
 34 35  1  0  0  0
M  END
> <Activity>
7.6

> <minimizedAffinity>
-9.61346

$$$$
HIPS6999


 35 38  0  0  0  0  0  0  0  0999 V2000
   65.1130   75.8849   88.7632 C   0  0  0  0  0  0  0  0  0  0  0  0
   63.7892   75.8133   88.2920 C   0  0  0  0  0  0  0  0  0  0  0  0
   62.8450   75.0237   88.9522 C   0  0  0  0  0  0  0  0  0  0  0  0
   63.2090   74.2934   90.0851 C   0  0  0  0  0  0  0  0  0  0  0  0
   64.5278   74.3379   90.5602 C   0  0  0  0  0  0  0  0  0  0  0  0
   65.4716   75.1457   89.9056 C   0  0  0  0  0  0  0  0  0  0  0  0
   68.0866   78.1779   88.1401 C   0  0  0  0  0  0  0  0  0  0  0  0
   67.9922   78.3595   86.7564 C   0  0  0  0  0  0  0  0  0  0  0  0
   66.9755   77.7392   86.0282 C   0  0  0  0  0  0  0  0  0  0  0  0
   66.0390   76.9316   86.6769 C   0  0  0  0  0  0  0  0  0  0  0  0
   66.1151   76.7305   88.0663 C   0  0  0  0  0  0  0  0  0  0  0  0
   67.1507   77.3495   88.7895 C   0  0  0  0  0  0  0  0  0  0  0  0
   69.1187   78.8375   88.8278 O   0  0  0  0  0  0  0  0  0  0  0  0
   70.4469   78.3393   88.9982 C   0  0  0  0  0  0  0  0  0  0  0  0
   74.3464   82.6546   88.7760 C   0  0  0  0  0  0  0  0  0  0  0  0
   73.3406   81.5424   88.8079 C   0  0  0  0  0  0  0  0  0  0  0  0
   73.7621   80.2143   88.9704 C   0  0  0  0  0  0  0  0  0  0  0  0
   72.8241   79.1795   89.0324 C   0  0  0  0  0  0  0  0  0  0  0  0
   71.4523   79.4597   88.9393 C   0  0  0  0  0  0  0  0  0  0  0  0
   71.0300   80.7926   88.8106 C   0  0  0  0  0  0  0  0  0  0  0  0
   71.9681   81.8269   88.7458 C   0  0  0  0  0  0  0  0  0  0  0  0
   64.9082   73.5878   91.8032 C   0  0  0  0  0  0  0  0  0  0  0  0
   66.3134   73.3521   91.7954 O   0  0  0  0  0  0  0  0  0  0  0  0
   67.2774   74.2835   92.2084 C   0  0  0  0  0  0  0  0  0  0  0  0
   68.5477   73.8994   92.6685 C   0  0  0  0  0  0  0  0  0  0  0  0
   69.4671   74.8653   93.0784 C   0  0  0  0  0  0  0  0  0  0  0  0
   69.1408   76.2253   93.0418 C   0  0  0  0  0  0  0  0  0  0  0  0
   70.0796   77.1312   93.5403 O   0  0  0  0  0  0  0  0  0  0  0  0
   67.8772   76.6289   92.5417 C   0  0  0  0  0  0  0  0  0  0  0  0
   66.9537   75.6429   92.1503 C   0  0  0  0  0  0  0  0  0  0  0  0
   70.9038   76.8224   93.8617 H   0  0  0  0  0  0  0  0  0  0  0  0
   67.4943   78.0495   92.3842 C   0  0  0  0  0  0  0  0  0  0  0  0
   66.4163   78.4852   92.8699 O   0  0  0  0  0  0  0  0  0  0  0  0
   68.3598   78.9327   91.7445 O   0  0  0  0  0  0  0  0  0  0  0  0
   69.1639   78.6192   91.3798 H   0  0  0  0  0  0  0  0  0  0  0  0
 15 16  1  0  0  0
 16 17  2  0  0  0
 17 18  1  0  0  0
 18 19  2  0  0  0
 19 14  1  0  0  0
 14 13  1  0  0  0
 13  7  1  0  0  0
  7  8  2  0  0  0
  8  9  1  0  0  0
  9 10  2  0  0  0
 10 11  1  0  0  0
 11  1  1  0  0  0
  1  2  2  0  0  0
  2  3  1  0  0  0
  3  4  2  0  0  0
  4  5  1  0  0  0
  5 22  1  0  0  0
 22 23  1  0  0  0
 23 24  1  0  0  0
 24 25  2  0  0  0
 25 26  1  0  0  0
 26 27  2  0  0  0
 27 28  1  0  0  0
 27 29  1  0  0  0
 29 32  1  0  0  0
 32 33  2  0  0  0
 32 34  1  0  0  0
 29 30  2  0  0  0
  5  6  2  0  0  0
 11 12  2  0  0  0
 19 20  1  0  0  0
 20 21  2  0  0  0
 21 16  1  0  0  0
 12  7  1  0  0  0
  6  1  1  0  0  0
 30 24  1  0  0  0
 28 31  1  0  0  0
 34 35  1  0  0  0
M  END
> <Activity>
7.6

> <minimizedAffinity>
-9.49785

$$$$
HIPS6999


 35 38  0  0  0  0  0  0  0  0999 V2000
   68.7682   77.7885   88.4488 C   0  0  0  0  0  0  0  0  0  0  0  0
   68.0311   77.0580   87.4987 C   0  0  0  0  0  0  0  0  0  0  0  0
   67.6550   75.7380   87.7579 C   0  0  0  0  0  0  0  0  0  0  0  0
   68.0123   75.1296   88.9627 C   0  0  0  0  0  0  0  0  0  0  0  0
   68.7618   75.8354   89.9151 C   0  0  0  0  0  0  0  0  0  0  0  0
   69.1244   77.1679   89.6604 C   0  0  0  0  0  0  0  0  0  0  0  0
   70.5744   81.1323   88.6621 C   0  0  0  0  0  0  0  0  0  0  0  0
   69.8851   81.8651   87.6903 C   0  0  0  0  0  0  0  0  0  0  0  0
   68.8454   81.2790   86.9660 C   0  0  0  0  0  0  0  0  0  0  0  0
   68.4812   79.9528   87.2081 C   0  0  0  0  0  0  0  0  0  0  0  0
   69.1614   79.1945   88.1769 C   0  0  0  0  0  0  0  0  0  0  0  0
   70.2160   79.7898   88.8925 C   0  0  0  0  0  0  0  0  0  0  0  0
   71.6015   81.7741   89.3736 O   0  0  0  0  0  0  0  0  0  0  0  0
   72.8019   82.2952   88.8001 C   0  0  0  0  0  0  0  0  0  0  0  0
   76.9495   78.2144   88.6538 C   0  0  0  0  0  0  0  0  0  0  0  0
   75.8794   79.2653   88.6662 C   0  0  0  0  0  0  0  0  0  0  0  0
   74.5448   78.9106   88.9132 C   0  0  0  0  0  0  0  0  0  0  0  0
   73.5507   79.8925   88.9568 C   0  0  0  0  0  0  0  0  0  0  0  0
   73.8790   81.2427   88.7605 C   0  0  0  0  0  0  0  0  0  0  0  0
   75.2199   81.6002   88.5468 C   0  0  0  0  0  0  0  0  0  0  0  0
   76.2134   80.6179   88.5006 C   0  0  0  0  0  0  0  0  0  0  0  0
   69.1081   75.1962   91.2280 C   0  0  0  0  0  0  0  0  0  0  0  0
   67.9673   75.2325   92.0810 O   0  0  0  0  0  0  0  0  0  0  0  0
   66.6562   74.9569   91.6662 C   0  0  0  0  0  0  0  0  0  0  0  0
   66.1594   73.6475   91.5588 C   0  0  0  0  0  0  0  0  0  0  0  0
   64.8502   73.4266   91.1305 C   0  0  0  0  0  0  0  0  0  0  0  0
   64.0149   74.4990   90.7992 C   0  0  0  0  0  0  0  0  0  0  0  0
   62.7435   74.2017   90.3034 O   0  0  0  0  0  0  0  0  0  0  0  0
   64.4904   75.8269   90.9418 C   0  0  0  0  0  0  0  0  0  0  0  0
   65.8186   76.0332   91.3561 C   0  0  0  0  0  0  0  0  0  0  0  0
   62.4680   73.3096   90.2251 H   0  0  0  0  0  0  0  0  0  0  0  0
   63.6391   77.0130   90.7016 C   0  0  0  0  0  0  0  0  0  0  0  0
   63.4117   77.8417   91.6231 O   0  0  0  0  0  0  0  0  0  0  0  0
   63.1297   77.2528   89.4282 O   0  0  0  0  0  0  0  0  0  0  0  0
   63.2929   76.6430   88.7358 H   0  0  0  0  0  0  0  0  0  0  0  0
 15 16  1  0  0  0
 16 17  2  0  0  0
 17 18  1  0  0  0
 18 19  2  0  0  0
 19 14  1  0  0  0
 14 13  1  0  0  0
 13  7  1  0  0  0
  7  8  2  0  0  0
  8  9  1  0  0  0
  9 10  2  0  0  0
 10 11  1  0  0  0
 11  1  1  0  0  0
  1  2  2  0  0  0
  2  3  1  0  0  0
  3  4  2  0  0  0
  4  5  1  0  0  0
  5 22  1  0  0  0
 22 23  1  0  0  0
 23 24  1  0  0  0
 24 25  2  0  0  0
 25 26  1  0  0  0
 26 27  2  0  0  0
 27 28  1  0  0  0
 27 29  1  0  0  0
 29 32  1  0  0  0
 32 33  2  0  0  0
 32 34  1  0  0  0
 29 30  2  0  0  0
  5  6  2  0  0  0
 11 12  2  0  0  0
 19 20  1  0  0  0
 20 21  2  0  0  0
 21 16  1  0  0  0
 12  7  1  0  0  0
  6  1  1  0  0  0
 30 24  1  0  0  0
 28 31  1  0  0  0
 34 35  1  0  0  0
M  END
> <Activity>
7.6

> <minimizedAffinity>
-9.48910

$$$$
HIPS6981


 34 37  0  0  0  0  0  0  0  0999 V2000
   67.4892   73.6009   91.7292 C   0  0  0  0  0  0  0  0  0  0  0  0
   68.3299   73.3320   92.8225 C   0  0  0  0  0  0  0  0  0  0  0  0
   69.4766   74.1011   93.0324 C   0  0  0  0  0  0  0  0  0  0  0  0
   69.7957   75.1388   92.1523 C   0  0  0  0  0  0  0  0  0  0  0  0
   68.9503   75.4353   91.0713 C   0  0  0  0  0  0  0  0  0  0  0  0
   67.7883   74.6747   90.8737 C   0  0  0  0  0  0  0  0  0  0  0  0
   69.3175   76.4915   90.1108 C   0  0  0  0  0  0  0  0  0  0  0  0
   68.3568   77.0390   89.2465 C   0  0  0  0  0  0  0  0  0  0  0  0
   68.7140   78.0577   88.3570 C   0  0  0  0  0  0  0  0  0  0  0  0
   70.0370   78.5121   88.3020 C   0  0  0  0  0  0  0  0  0  0  0  0
   71.0118   77.9353   89.1202 C   0  0  0  0  0  0  0  0  0  0  0  0
   70.6419   76.9474   90.0478 C   0  0  0  0  0  0  0  0  0  0  0  0
   72.3398   78.3651   89.0106 O   0  0  0  0  0  0  0  0  0  0  0  0
   72.7305   79.7100   88.9142 C   0  0  0  0  0  0  0  0  0  0  0  0
   71.7896   80.7487   88.7709 C   0  0  0  0  0  0  0  0  0  0  0  0
   72.2141   82.0799   88.7194 C   0  0  0  0  0  0  0  0  0  0  0  0
   73.5743   82.3877   88.8167 C   0  0  0  0  0  0  0  0  0  0  0  0
   73.9796   83.6823   88.7857 F   0  0  0  0  0  0  0  0  0  0  0  0
   74.5135   81.3624   88.9596 C   0  0  0  0  0  0  0  0  0  0  0  0
   74.0914   80.0293   89.0086 C   0  0  0  0  0  0  0  0  0  0  0  0
   66.3340   72.6900   91.4062 C   0  0  0  0  0  0  0  0  0  0  0  0
   65.1076   73.2768   91.8488 O   0  0  0  0  0  0  0  0  0  0  0  0
   64.2002   76.6444   90.5822 C   0  0  0  0  0  0  0  0  0  0  0  0
   64.8155   75.6060   91.3045 C   0  0  0  0  0  0  0  0  0  0  0  0
   64.4044   74.2776   91.1549 C   0  0  0  0  0  0  0  0  0  0  0  0
   63.3205   73.9850   90.3131 C   0  0  0  0  0  0  0  0  0  0  0  0
   62.7022   75.0019   89.5883 C   0  0  0  0  0  0  0  0  0  0  0  0
   63.1482   76.3252   89.6858 C   0  0  0  0  0  0  0  0  0  0  0  0
   62.5457   77.2739   88.8580 O   0  0  0  0  0  0  0  0  0  0  0  0
   61.8533   77.0194   88.2803 H   0  0  0  0  0  0  0  0  0  0  0  0
   65.3608   78.6266   89.9352 O   0  0  0  0  0  0  0  0  0  0  0  0
   64.6739   78.0293   90.8058 C   0  0  0  0  0  0  0  0  0  0  0  0
   64.3167   78.7023   91.9728 O   0  0  0  0  0  0  0  0  0  0  0  0
   63.8059   78.2672   92.6269 H   0  0  0  0  0  0  0  0  0  0  0  0
 31 32  2  0  0  0
 32 33  1  0  0  0
 32 23  1  0  0  0
 23 24  2  0  0  0
 24 25  1  0  0  0
 25 22  1  0  0  0
 22 21  1  0  0  0
 21  1  1  0  0  0
  1  2  2  0  0  0
  2  3  1  0  0  0
  3  4  2  0  0  0
  4  5  1  0  0  0
  5  7  1  0  0  0
  7  8  2  0  0  0
  8  9  1  0  0  0
  9 10  2  0  0  0
 10 11  1  0  0  0
 11 13  1  0  0  0
 13 14  1  0  0  0
 14 15  2  0  0  0
 15 16  1  0  0  0
 16 17  2  0  0  0
 17 18  1  0  0  0
 17 19  1  0  0  0
 19 20  2  0  0  0
 11 12  2  0  0  0
  5  6  2  0  0  0
 25 26  2  0  0  0
 26 27  1  0  0  0
 27 28  2  0  0  0
 28 29  1  0  0  0
 28 23  1  0  0  0
  6  1  1  0  0  0
 12  7  1  0  0  0
 20 14  1  0  0  0
 33 34  1  0  0  0
 29 30  1  0  0  0
M  END
> <Activity>
8.4

> <minimizedAffinity>
-10.05901

$$$$
HIPS6981


 34 37  0  0  0  0  0  0  0  0999 V2000
   64.7354   74.4674   90.8100 C   0  0  0  0  0  0  0  0  0  0  0  0
   63.6105   75.1489   91.3047 C   0  0  0  0  0  0  0  0  0  0  0  0
   63.3638   76.4687   90.9203 C   0  0  0  0  0  0  0  0  0  0  0  0
   64.2381   77.1193   90.0454 C   0  0  0  0  0  0  0  0  0  0  0  0
   65.3511   76.4415   89.5228 C   0  0  0  0  0  0  0  0  0  0  0  0
   65.5861   75.1093   89.8942 C   0  0  0  0  0  0  0  0  0  0  0  0
   66.3041   77.1461   88.6464 C   0  0  0  0  0  0  0  0  0  0  0  0
   66.4197   76.8018   87.2907 C   0  0  0  0  0  0  0  0  0  0  0  0
   67.3107   77.4953   86.4651 C   0  0  0  0  0  0  0  0  0  0  0  0
   68.1141   78.5124   86.9943 C   0  0  0  0  0  0  0  0  0  0  0  0
   68.0452   78.8254   88.3543 C   0  0  0  0  0  0  0  0  0  0  0  0
   67.1147   78.1625   89.1716 C   0  0  0  0  0  0  0  0  0  0  0  0
   68.8965   79.8073   88.8751 O   0  0  0  0  0  0  0  0  0  0  0  0
   70.2982   79.7354   88.8457 C   0  0  0  0  0  0  0  0  0  0  0  0
   71.0965   80.8764   88.6321 C   0  0  0  0  0  0  0  0  0  0  0  0
   72.4907   80.7727   88.6505 C   0  0  0  0  0  0  0  0  0  0  0  0
   73.1001   79.5371   88.8877 C   0  0  0  0  0  0  0  0  0  0  0  0
   74.4534   79.4453   88.9237 F   0  0  0  0  0  0  0  0  0  0  0  0
   72.3145   78.4008   89.1010 C   0  0  0  0  0  0  0  0  0  0  0  0
   70.9191   78.5015   89.0804 C   0  0  0  0  0  0  0  0  0  0  0  0
   65.0945   73.0998   91.3288 C   0  0  0  0  0  0  0  0  0  0  0  0
   66.5138   72.9274   91.3167 O   0  0  0  0  0  0  0  0  0  0  0  0
   69.5419   75.0639   91.5032 C   0  0  0  0  0  0  0  0  0  0  0  0
   68.6131   74.0895   91.0949 C   0  0  0  0  0  0  0  0  0  0  0  0
   67.4368   73.8632   91.8166 C   0  0  0  0  0  0  0  0  0  0  0  0
   67.2088   74.5810   93.0007 C   0  0  0  0  0  0  0  0  0  0  0  0
   68.1176   75.5519   93.4170 C   0  0  0  0  0  0  0  0  0  0  0  0
   69.2669   75.8272   92.6667 C   0  0  0  0  0  0  0  0  0  0  0  0
   70.0808   76.8784   93.0917 O   0  0  0  0  0  0  0  0  0  0  0  0
   69.8616   77.3567   93.8670 H   0  0  0  0  0  0  0  0  0  0  0  0
   70.7860   74.9786   89.4686 O   0  0  0  0  0  0  0  0  0  0  0  0
   70.7751   75.2351   90.7018 C   0  0  0  0  0  0  0  0  0  0  0  0
   71.9285   75.7327   91.3055 O   0  0  0  0  0  0  0  0  0  0  0  0
   71.9311   75.9268   92.2222 H   0  0  0  0  0  0  0  0  0  0  0  0
 31 32  2  0  0  0
 32 33  1  0  0  0
 32 23  1  0  0  0
 23 24  2  0  0  0
 24 25  1  0  0  0
 25 22  1  0  0  0
 22 21  1  0  0  0
 21  1  1  0  0  0
  1  2  2  0  0  0
  2  3  1  0  0  0
  3  4  2  0  0  0
  4  5  1  0  0  0
  5  7  1  0  0  0
  7  8  2  0  0  0
  8  9  1  0  0  0
  9 10  2  0  0  0
 10 11  1  0  0  0
 11 13  1  0  0  0
 13 14  1  0  0  0
 14 15  2  0  0  0
 15 16  1  0  0  0
 16 17  2  0  0  0
 17 18  1  0  0  0
 17 19  1  0  0  0
 19 20  2  0  0  0
 11 12  2  0  0  0
  5  6  2  0  0  0
 25 26  2  0  0  0
 26 27  1  0  0  0
 27 28  2  0  0  0
 28 29  1  0  0  0
 28 23  1  0  0  0
  6  1  1  0  0  0
 12  7  1  0  0  0
 20 14  1  0  0  0
 33 34  1  0  0  0
 29 30  1  0  0  0
M  END
> <Activity>
8.4

> <minimizedAffinity>
-9.85551

$$$$
HIPS6981


 34 37  0  0  0  0  0  0  0  0999 V2000
   63.7889   73.3767   91.7934 C   0  0  0  0  0  0  0  0  0  0  0  0
   63.9497   72.0589   91.3327 C   0  0  0  0  0  0  0  0  0  0  0  0
   65.2171   71.5863   90.9851 C   0  0  0  0  0  0  0  0  0  0  0  0
   66.3308   72.4243   91.0892 C   0  0  0  0  0  0  0  0  0  0  0  0
   66.1881   73.7345   91.5732 C   0  0  0  0  0  0  0  0  0  0  0  0
   64.9173   74.2009   91.9410 C   0  0  0  0  0  0  0  0  0  0  0  0
   67.3532   74.6358   91.6277 C   0  0  0  0  0  0  0  0  0  0  0  0
   67.8512   75.0888   92.8592 C   0  0  0  0  0  0  0  0  0  0  0  0
   68.9724   75.9242   92.8971 C   0  0  0  0  0  0  0  0  0  0  0  0
   69.5819   76.3383   91.7068 C   0  0  0  0  0  0  0  0  0  0  0  0
   69.0604   75.9365   90.4743 C   0  0  0  0  0  0  0  0  0  0  0  0
   67.9651   75.0577   90.4388 C   0  0  0  0  0  0  0  0  0  0  0  0
   69.6505   76.4065   89.2949 O   0  0  0  0  0  0  0  0  0  0  0  0
   70.2855   77.6522   89.1701 C   0  0  0  0  0  0  0  0  0  0  0  0
   71.6866   77.7823   89.2398 C   0  0  0  0  0  0  0  0  0  0  0  0
   72.2860   79.0341   89.0699 C   0  0  0  0  0  0  0  0  0  0  0  0
   71.4982   80.1624   88.8232 C   0  0  0  0  0  0  0  0  0  0  0  0
   72.0859   81.3716   88.6398 F   0  0  0  0  0  0  0  0  0  0  0  0
   70.1076   80.0408   88.7522 C   0  0  0  0  0  0  0  0  0  0  0  0
   69.5053   78.7897   88.9246 C   0  0  0  0  0  0  0  0  0  0  0  0
   62.4144   73.9452   92.0301 C   0  0  0  0  0  0  0  0  0  0  0  0
   62.1387   74.9753   91.0776 O   0  0  0  0  0  0  0  0  0  0  0  0
   64.8203   77.3809   90.1886 C   0  0  0  0  0  0  0  0  0  0  0  0
   63.7845   76.7240   90.8773 C   0  0  0  0  0  0  0  0  0  0  0  0
   63.1143   75.6356   90.3097 C   0  0  0  0  0  0  0  0  0  0  0  0
   63.4429   75.2303   89.0070 C   0  0  0  0  0  0  0  0  0  0  0  0
   64.4687   75.8687   88.3128 C   0  0  0  0  0  0  0  0  0  0  0  0
   65.1855   76.9189   88.8982 C   0  0  0  0  0  0  0  0  0  0  0  0
   66.2621   77.4455   88.1828 O   0  0  0  0  0  0  0  0  0  0  0  0
   66.4684   77.1103   87.3325 H   0  0  0  0  0  0  0  0  0  0  0  0
   66.2780   79.2702   90.2091 O   0  0  0  0  0  0  0  0  0  0  0  0
   65.4720   78.5385   90.8427 C   0  0  0  0  0  0  0  0  0  0  0  0
   65.1553   78.8554   92.1624 O   0  0  0  0  0  0  0  0  0  0  0  0
   64.5569   78.3177   92.6427 H   0  0  0  0  0  0  0  0  0  0  0  0
 31 32  2  0  0  0
 32 33  1  0  0  0
 32 23  1  0  0  0
 23 24  2  0  0  0
 24 25  1  0  0  0
 25 22  1  0  0  0
 22 21  1  0  0  0
 21  1  1  0  0  0
  1  2  2  0  0  0
  2  3  1  0  0  0
  3  4  2  0  0  0
  4  5  1  0  0  0
  5  7  1  0  0  0
  7  8  2  0  0  0
  8  9  1  0  0  0
  9 10  2  0  0  0
 10 11  1  0  0  0
 11 13  1  0  0  0
 13 14  1  0  0  0
 14 15  2  0  0  0
 15 16  1  0  0  0
 16 17  2  0  0  0
 17 18  1  0  0  0
 17 19  1  0  0  0
 19 20  2  0  0  0
 11 12  2  0  0  0
  5  6  2  0  0  0
 25 26  2  0  0  0
 26 27  1  0  0  0
 27 28  2  0  0  0
 28 29  1  0  0  0
 28 23  1  0  0  0
  6  1  1  0  0  0
 12  7  1  0  0  0
 20 14  1  0  0  0
 33 34  1  0  0  0
 29 30  1  0  0  0
M  END
> <Activity>
8.4

> <minimizedAffinity>
-9.57163

$$$$
HIPS6981


 34 37  0  0  0  0  0  0  0  0999 V2000
   64.4923   73.7855   91.4463 C   0  0  0  0  0  0  0  0  0  0  0  0
   64.6853   72.4270   91.1435 C   0  0  0  0  0  0  0  0  0  0  0  0
   65.9766   71.8991   91.0763 C   0  0  0  0  0  0  0  0  0  0  0  0
   67.0831   72.7216   91.3050 C   0  0  0  0  0  0  0  0  0  0  0  0
   66.9035   74.0745   91.6346 C   0  0  0  0  0  0  0  0  0  0  0  0
   65.6050   74.5982   91.7215 C   0  0  0  0  0  0  0  0  0  0  0  0
   68.0717   74.9543   91.8184 C   0  0  0  0  0  0  0  0  0  0  0  0
   68.3655   75.5012   93.0771 C   0  0  0  0  0  0  0  0  0  0  0  0
   69.4912   76.3148   93.2422 C   0  0  0  0  0  0  0  0  0  0  0  0
   70.3102   76.6137   92.1469 C   0  0  0  0  0  0  0  0  0  0  0  0
   69.9952   76.1183   90.8790 C   0  0  0  0  0  0  0  0  0  0  0  0
   68.8931   75.2611   90.7242 C   0  0  0  0  0  0  0  0  0  0  0  0
   70.7950   76.4741   89.7864 O   0  0  0  0  0  0  0  0  0  0  0  0
   71.0646   77.7968   89.4010 C   0  0  0  0  0  0  0  0  0  0  0  0
   70.0442   78.7623   89.2944 C   0  0  0  0  0  0  0  0  0  0  0  0
   70.3566   80.0803   88.9475 C   0  0  0  0  0  0  0  0  0  0  0  0
   71.6843   80.4485   88.7110 C   0  0  0  0  0  0  0  0  0  0  0  0
   71.9845   81.7331   88.3935 F   0  0  0  0  0  0  0  0  0  0  0  0
   72.7020   79.4961   88.8154 C   0  0  0  0  0  0  0  0  0  0  0  0
   72.3916   78.1759   89.1597 C   0  0  0  0  0  0  0  0  0  0  0  0
   63.1191   74.4004   91.3767 C   0  0  0  0  0  0  0  0  0  0  0  0
   63.0801   75.4000   90.3552 O   0  0  0  0  0  0  0  0  0  0  0  0
   65.9484   76.9848   88.6144 C   0  0  0  0  0  0  0  0  0  0  0  0
   64.9388   76.0752   88.9782 C   0  0  0  0  0  0  0  0  0  0  0  0
   64.1187   76.3092   90.0867 C   0  0  0  0  0  0  0  0  0  0  0  0
   64.3468   77.4422   90.8826 C   0  0  0  0  0  0  0  0  0  0  0  0
   65.3409   78.3544   90.5339 C   0  0  0  0  0  0  0  0  0  0  0  0
   66.1249   78.1586   89.3909 C   0  0  0  0  0  0  0  0  0  0  0  0
   67.0339   79.1615   89.0500 O   0  0  0  0  0  0  0  0  0  0  0  0
   67.1183   79.9212   89.5920 H   0  0  0  0  0  0  0  0  0  0  0  0
   67.9323   76.1482   87.5855 O   0  0  0  0  0  0  0  0  0  0  0  0
   66.7916   76.6623   87.4408 C   0  0  0  0  0  0  0  0  0  0  0  0
   66.3011   76.8840   86.1552 O   0  0  0  0  0  0  0  0  0  0  0  0
   65.4538   77.2659   86.0365 H   0  0  0  0  0  0  0  0  0  0  0  0
 31 32  2  0  0  0
 32 33  1  0  0  0
 32 23  1  0  0  0
 23 24  2  0  0  0
 24 25  1  0  0  0
 25 22  1  0  0  0
 22 21  1  0  0  0
 21  1  1  0  0  0
  1  2  2  0  0  0
  2  3  1  0  0  0
  3  4  2  0  0  0
  4  5  1  0  0  0
  5  7  1  0  0  0
  7  8  2  0  0  0
  8  9  1  0  0  0
  9 10  2  0  0  0
 10 11  1  0  0  0
 11 13  1  0  0  0
 13 14  1  0  0  0
 14 15  2  0  0  0
 15 16  1  0  0  0
 16 17  2  0  0  0
 17 18  1  0  0  0
 17 19  1  0  0  0
 19 20  2  0  0  0
 11 12  2  0  0  0
  5  6  2  0  0  0
 25 26  2  0  0  0
 26 27  1  0  0  0
 27 28  2  0  0  0
 28 29  1  0  0  0
 28 23  1  0  0  0
  6  1  1  0  0  0
 12  7  1  0  0  0
 20 14  1  0  0  0
 33 34  1  0  0  0
 29 30  1  0  0  0
M  END
> <Activity>
8.4

> <minimizedAffinity>
-9.55614

$$$$
HIPS6981


 34 37  0  0  0  0  0  0  0  0999 V2000
   64.8982   74.4269   90.8100 C   0  0  0  0  0  0  0  0  0  0  0  0
   63.6476   74.9769   91.1386 C   0  0  0  0  0  0  0  0  0  0  0  0
   63.2607   76.2090   90.6068 C   0  0  0  0  0  0  0  0  0  0  0  0
   64.1187   76.9030   89.7491 C   0  0  0  0  0  0  0  0  0  0  0  0
   65.3598   76.3525   89.3916 C   0  0  0  0  0  0  0  0  0  0  0  0
   65.7380   75.1054   89.9107 C   0  0  0  0  0  0  0  0  0  0  0  0
   66.2880   77.1111   88.5339 C   0  0  0  0  0  0  0  0  0  0  0  0
   66.3609   76.8553   87.1558 C   0  0  0  0  0  0  0  0  0  0  0  0
   67.2287   77.5995   86.3499 C   0  0  0  0  0  0  0  0  0  0  0  0
   68.0513   78.5790   86.9189 C   0  0  0  0  0  0  0  0  0  0  0  0
   68.0250   78.8033   88.2978 C   0  0  0  0  0  0  0  0  0  0  0  0
   67.1176   78.0902   89.0986 C   0  0  0  0  0  0  0  0  0  0  0  0
   68.8952   79.7482   88.8548 O   0  0  0  0  0  0  0  0  0  0  0  0
   70.2948   79.6412   88.8379 C   0  0  0  0  0  0  0  0  0  0  0  0
   71.1218   80.7511   88.5753 C   0  0  0  0  0  0  0  0  0  0  0  0
   72.5130   80.6148   88.6075 C   0  0  0  0  0  0  0  0  0  0  0  0
   73.0908   79.3776   88.9071 C   0  0  0  0  0  0  0  0  0  0  0  0
   74.4413   79.2550   88.9562 F   0  0  0  0  0  0  0  0  0  0  0  0
   72.2766   78.2721   89.1693 C   0  0  0  0  0  0  0  0  0  0  0  0
   70.8842   78.4053   89.1350 C   0  0  0  0  0  0  0  0  0  0  0  0
   65.3893   73.1755   91.4893 C   0  0  0  0  0  0  0  0  0  0  0  0
   66.2349   73.5148   92.5912 O   0  0  0  0  0  0  0  0  0  0  0  0
   68.3504   76.5629   92.6377 C   0  0  0  0  0  0  0  0  0  0  0  0
   67.2342   75.7067   92.6472 C   0  0  0  0  0  0  0  0  0  0  0  0
   67.3813   74.3238   92.4993 C   0  0  0  0  0  0  0  0  0  0  0  0
   68.6599   73.7890   92.2792 C   0  0  0  0  0  0  0  0  0  0  0  0
   69.7760   74.6233   92.2701 C   0  0  0  0  0  0  0  0  0  0  0  0
   69.6431   76.0011   92.4791 C   0  0  0  0  0  0  0  0  0  0  0  0
   70.8121   76.7601   92.5539 O   0  0  0  0  0  0  0  0  0  0  0  0
   71.6462   76.3479   92.4430 H   0  0  0  0  0  0  0  0  0  0  0  0
   67.4045   78.4713   93.7138 O   0  0  0  0  0  0  0  0  0  0  0  0
   68.1177   78.0183   92.7796 C   0  0  0  0  0  0  0  0  0  0  0  0
   68.7334   78.9060   91.8991 O   0  0  0  0  0  0  0  0  0  0  0  0
   69.2660   78.5795   91.2008 H   0  0  0  0  0  0  0  0  0  0  0  0
 31 32  2  0  0  0
 32 33  1  0  0  0
 32 23  1  0  0  0
 23 24  2  0  0  0
 24 25  1  0  0  0
 25 22  1  0  0  0
 22 21  1  0  0  0
 21  1  1  0  0  0
  1  2  2  0  0  0
  2  3  1  0  0  0
  3  4  2  0  0  0
  4  5  1  0  0  0
  5  7  1  0  0  0
  7  8  2  0  0  0
  8  9  1  0  0  0
  9 10  2  0  0  0
 10 11  1  0  0  0
 11 13  1  0  0  0
 13 14  1  0  0  0
 14 15  2  0  0  0
 15 16  1  0  0  0
 16 17  2  0  0  0
 17 18  1  0  0  0
 17 19  1  0  0  0
 19 20  2  0  0  0
 11 12  2  0  0  0
  5  6  2  0  0  0
 25 26  2  0  0  0
 26 27  1  0  0  0
 27 28  2  0  0  0
 28 29  1  0  0  0
 28 23  1  0  0  0
  6  1  1  0  0  0
 12  7  1  0  0  0
 20 14  1  0  0  0
 33 34  1  0  0  0
 29 30  1  0  0  0
M  END
> <Activity>
8.4

> <minimizedAffinity>
-9.44110

$$$$
HIPS6981


 34 37  0  0  0  0  0  0  0  0999 V2000
   69.6648   74.7221   91.9831 C   0  0  0  0  0  0  0  0  0  0  0  0
   71.0195   74.5223   91.6676 C   0  0  0  0  0  0  0  0  0  0  0  0
   71.5197   74.9307   90.4292 C   0  0  0  0  0  0  0  0  0  0  0  0
   70.6732   75.5355   89.4960 C   0  0  0  0  0  0  0  0  0  0  0  0
   69.3239   75.7652   89.8086 C   0  0  0  0  0  0  0  0  0  0  0  0
   68.8280   75.3727   91.0607 C   0  0  0  0  0  0  0  0  0  0  0  0
   68.4188   76.3499   88.8027 C   0  0  0  0  0  0  0  0  0  0  0  0
   68.8768   77.3346   87.9136 C   0  0  0  0  0  0  0  0  0  0  0  0
   68.0136   77.8631   86.9482 C   0  0  0  0  0  0  0  0  0  0  0  0
   66.6816   77.4367   86.8862 C   0  0  0  0  0  0  0  0  0  0  0  0
   66.2021   76.4968   87.8021 C   0  0  0  0  0  0  0  0  0  0  0  0
   67.0825   75.9303   88.7387 C   0  0  0  0  0  0  0  0  0  0  0  0
   64.8530   76.1249   87.7591 O   0  0  0  0  0  0  0  0  0  0  0  0
   64.1350   75.6247   88.8568 C   0  0  0  0  0  0  0  0  0  0  0  0
   62.8148   75.1504   88.7273 C   0  0  0  0  0  0  0  0  0  0  0  0
   62.1457   74.6214   89.8353 C   0  0  0  0  0  0  0  0  0  0  0  0
   62.7860   74.5542   91.0762 C   0  0  0  0  0  0  0  0  0  0  0  0
   62.1394   74.0221   92.1439 F   0  0  0  0  0  0  0  0  0  0  0  0
   64.0960   75.0223   91.2120 C   0  0  0  0  0  0  0  0  0  0  0  0
   64.7666   75.5547   90.1054 C   0  0  0  0  0  0  0  0  0  0  0  0
   69.0797   74.1558   93.2502 C   0  0  0  0  0  0  0  0  0  0  0  0
   68.1192   75.0637   93.7958 O   0  0  0  0  0  0  0  0  0  0  0  0
   66.9312   78.3099   92.4471 C   0  0  0  0  0  0  0  0  0  0  0  0
   67.0672   76.9322   92.6964 C   0  0  0  0  0  0  0  0  0  0  0  0
   68.0809   76.4434   93.5268 C   0  0  0  0  0  0  0  0  0  0  0  0
   69.0129   77.3392   94.0728 C   0  0  0  0  0  0  0  0  0  0  0  0
   68.8901   78.7072   93.8379 C   0  0  0  0  0  0  0  0  0  0  0  0
   67.8417   79.2096   93.0581 C   0  0  0  0  0  0  0  0  0  0  0  0
   67.7253   80.5961   92.9462 O   0  0  0  0  0  0  0  0  0  0  0  0
   68.3496   81.1541   93.3666 H   0  0  0  0  0  0  0  0  0  0  0  0
   66.1057   79.1971   90.3913 O   0  0  0  0  0  0  0  0  0  0  0  0
   65.8470   78.7539   91.5416 C   0  0  0  0  0  0  0  0  0  0  0  0
   64.5181   78.6365   91.9448 O   0  0  0  0  0  0  0  0  0  0  0  0
   64.3147   78.3080   92.7984 H   0  0  0  0  0  0  0  0  0  0  0  0
 31 32  2  0  0  0
 32 33  1  0  0  0
 32 23  1  0  0  0
 23 24  2  0  0  0
 24 25  1  0  0  0
 25 22  1  0  0  0
 22 21  1  0  0  0
 21  1  1  0  0  0
  1  2  2  0  0  0
  2  3  1  0  0  0
  3  4  2  0  0  0
  4  5  1  0  0  0
  5  7  1  0  0  0
  7  8  2  0  0  0
  8  9  1  0  0  0
  9 10  2  0  0  0
 10 11  1  0  0  0
 11 13  1  0  0  0
 13 14  1  0  0  0
 14 15  2  0  0  0
 15 16  1  0  0  0
 16 17  2  0  0  0
 17 18  1  0  0  0
 17 19  1  0  0  0
 19 20  2  0  0  0
 11 12  2  0  0  0
  5  6  2  0  0  0
 25 26  2  0  0  0
 26 27  1  0  0  0
 27 28  2  0  0  0
 28 29  1  0  0  0
 28 23  1  0  0  0
  6  1  1  0  0  0
 12  7  1  0  0  0
 20 14  1  0  0  0
 33 34  1  0  0  0
 29 30  1  0  0  0
M  END
> <Activity>
8.4

> <minimizedAffinity>
-8.89065

$$$$
HIPS6981


 34 37  0  0  0  0  0  0  0  0999 V2000
   65.1327   75.9371   88.5750 C   0  0  0  0  0  0  0  0  0  0  0  0
   63.8692   75.4065   88.8859 C   0  0  0  0  0  0  0  0  0  0  0  0
   63.6772   74.7015   90.0761 C   0  0  0  0  0  0  0  0  0  0  0  0
   64.7429   74.5163   90.9611 C   0  0  0  0  0  0  0  0  0  0  0  0
   66.0037   75.0640   90.6754 C   0  0  0  0  0  0  0  0  0  0  0  0
   66.1896   75.7891   89.4891 C   0  0  0  0  0  0  0  0  0  0  0  0
   67.1410   74.8189   91.5806 C   0  0  0  0  0  0  0  0  0  0  0  0
   67.4916   73.5118   91.9525 C   0  0  0  0  0  0  0  0  0  0  0  0
   68.5881   73.2925   92.7927 C   0  0  0  0  0  0  0  0  0  0  0  0
   69.3196   74.3765   93.2923 C   0  0  0  0  0  0  0  0  0  0  0  0
   68.9449   75.6838   92.9714 C   0  0  0  0  0  0  0  0  0  0  0  0
   67.8746   75.9007   92.0880 C   0  0  0  0  0  0  0  0  0  0  0  0
   69.6550   76.7555   93.5259 O   0  0  0  0  0  0  0  0  0  0  0  0
   69.1431   78.0550   93.6670 C   0  0  0  0  0  0  0  0  0  0  0  0
   68.3790   78.6667   92.6538 C   0  0  0  0  0  0  0  0  0  0  0  0
   67.8511   79.9470   92.8470 C   0  0  0  0  0  0  0  0  0  0  0  0
   68.0733   80.6242   94.0496 C   0  0  0  0  0  0  0  0  0  0  0  0
   67.5427   81.8585   94.2398 F   0  0  0  0  0  0  0  0  0  0  0  0
   68.8300   80.0233   95.0596 C   0  0  0  0  0  0  0  0  0  0  0  0
   69.3616   78.7434   94.8676 C   0  0  0  0  0  0  0  0  0  0  0  0
   65.3912   76.5690   87.2324 C   0  0  0  0  0  0  0  0  0  0  0  0
   66.7957   76.5980   86.9660 O   0  0  0  0  0  0  0  0  0  0  0  0
   68.1445   80.0511   87.1270 C   0  0  0  0  0  0  0  0  0  0  0  0
   67.3707   78.9303   86.7748 C   0  0  0  0  0  0  0  0  0  0  0  0
   67.6503   77.6640   87.2987 C   0  0  0  0  0  0  0  0  0  0  0  0
   68.7580   77.5001   88.1444 C   0  0  0  0  0  0  0  0  0  0  0  0
   69.5325   78.6009   88.5053 C   0  0  0  0  0  0  0  0  0  0  0  0
   69.2217   79.8819   88.0341 C   0  0  0  0  0  0  0  0  0  0  0  0
   69.9812   80.9500   88.5143 O   0  0  0  0  0  0  0  0  0  0  0  0
   70.6848   80.7929   89.1128 H   0  0  0  0  0  0  0  0  0  0  0  0
   68.2025   81.6555   85.3615 O   0  0  0  0  0  0  0  0  0  0  0  0
   67.8031   81.3569   86.5182 C   0  0  0  0  0  0  0  0  0  0  0  0
   66.9889   82.2510   87.2109 O   0  0  0  0  0  0  0  0  0  0  0  0
   66.6863   82.0387   88.0719 H   0  0  0  0  0  0  0  0  0  0  0  0
 31 32  2  0  0  0
 32 33  1  0  0  0
 32 23  1  0  0  0
 23 24  2  0  0  0
 24 25  1  0  0  0
 25 22  1  0  0  0
 22 21  1  0  0  0
 21  1  1  0  0  0
  1  2  2  0  0  0
  2  3  1  0  0  0
  3  4  2  0  0  0
  4  5  1  0  0  0
  5  7  1  0  0  0
  7  8  2  0  0  0
  8  9  1  0  0  0
  9 10  2  0  0  0
 10 11  1  0  0  0
 11 13  1  0  0  0
 13 14  1  0  0  0
 14 15  2  0  0  0
 15 16  1  0  0  0
 16 17  2  0  0  0
 17 18  1  0  0  0
 17 19  1  0  0  0
 19 20  2  0  0  0
 11 12  2  0  0  0
  5  6  2  0  0  0
 25 26  2  0  0  0
 26 27  1  0  0  0
 27 28  2  0  0  0
 28 29  1  0  0  0
 28 23  1  0  0  0
  6  1  1  0  0  0
 12  7  1  0  0  0
 20 14  1  0  0  0
 33 34  1  0  0  0
 29 30  1  0  0  0
M  END
> <Activity>
8.4

> <minimizedAffinity>
-8.85873

$$$$
HIPS6981


 34 37  0  0  0  0  0  0  0  0999 V2000
   71.3085   80.2686   88.4559 C   0  0  0  0  0  0  0  0  0  0  0  0
   72.7005   80.2374   88.2665 C   0  0  0  0  0  0  0  0  0  0  0  0
   73.4535   79.1726   88.7665 C   0  0  0  0  0  0  0  0  0  0  0  0
   72.8259   78.1357   89.4623 C   0  0  0  0  0  0  0  0  0  0  0  0
   71.4326   78.1411   89.6354 C   0  0  0  0  0  0  0  0  0  0  0  0
   70.6755   79.2011   89.1150 C   0  0  0  0  0  0  0  0  0  0  0  0
   70.7787   77.0775   90.4190 C   0  0  0  0  0  0  0  0  0  0  0  0
   71.3893   75.8233   90.5733 C   0  0  0  0  0  0  0  0  0  0  0  0
   70.7688   74.8314   91.3398 C   0  0  0  0  0  0  0  0  0  0  0  0
   69.5219   75.0738   91.9283 C   0  0  0  0  0  0  0  0  0  0  0  0
   68.8812   76.3004   91.7351 C   0  0  0  0  0  0  0  0  0  0  0  0
   69.5278   77.3128   91.0069 C   0  0  0  0  0  0  0  0  0  0  0  0
   67.6100   76.5032   92.2855 O   0  0  0  0  0  0  0  0  0  0  0  0
   66.4071   76.3316   91.5825 C   0  0  0  0  0  0  0  0  0  0  0  0
   65.8217   75.0617   91.4104 C   0  0  0  0  0  0  0  0  0  0  0  0
   64.6015   74.9349   90.7394 C   0  0  0  0  0  0  0  0  0  0  0  0
   63.9525   76.0687   90.2416 C   0  0  0  0  0  0  0  0  0  0  0  0
   62.7592   75.9425   89.6083 F   0  0  0  0  0  0  0  0  0  0  0  0
   64.5270   77.3318   90.4092 C   0  0  0  0  0  0  0  0  0  0  0  0
   65.7494   77.4610   91.0778 C   0  0  0  0  0  0  0  0  0  0  0  0
   70.5056   81.4778   88.0539 C   0  0  0  0  0  0  0  0  0  0  0  0
   69.1078   81.1983   88.1662 O   0  0  0  0  0  0  0  0  0  0  0  0
   67.6062   77.9405   87.2176 C   0  0  0  0  0  0  0  0  0  0  0  0
   68.3395   78.9304   87.8967 C   0  0  0  0  0  0  0  0  0  0  0  0
   68.4214   80.2367   87.4038 C   0  0  0  0  0  0  0  0  0  0  0  0
   67.8093   80.5484   86.1801 C   0  0  0  0  0  0  0  0  0  0  0  0
   67.0766   79.5799   85.4968 C   0  0  0  0  0  0  0  0  0  0  0  0
   66.9387   78.2868   86.0150 C   0  0  0  0  0  0  0  0  0  0  0  0
   66.1109   77.3986   85.3264 O   0  0  0  0  0  0  0  0  0  0  0  0
   65.6890   77.6692   84.5348 H   0  0  0  0  0  0  0  0  0  0  0  0
   66.4877   75.9909   88.0192 O   0  0  0  0  0  0  0  0  0  0  0  0
   67.5798   76.5741   87.7875 C   0  0  0  0  0  0  0  0  0  0  0  0
   68.7767   75.9016   88.0270 O   0  0  0  0  0  0  0  0  0  0  0  0
   69.5947   76.3263   87.8579 H   0  0  0  0  0  0  0  0  0  0  0  0
 31 32  2  0  0  0
 32 33  1  0  0  0
 32 23  1  0  0  0
 23 24  2  0  0  0
 24 25  1  0  0  0
 25 22  1  0  0  0
 22 21  1  0  0  0
 21  1  1  0  0  0
  1  2  2  0  0  0
  2  3  1  0  0  0
  3  4  2  0  0  0
  4  5  1  0  0  0
  5  7  1  0  0  0
  7  8  2  0  0  0
  8  9  1  0  0  0
  9 10  2  0  0  0
 10 11  1  0  0  0
 11 13  1  0  0  0
 13 14  1  0  0  0
 14 15  2  0  0  0
 15 16  1  0  0  0
 16 17  2  0  0  0
 17 18  1  0  0  0
 17 19  1  0  0  0
 19 20  2  0  0  0
 11 12  2  0  0  0
  5  6  2  0  0  0
 25 26  2  0  0  0
 26 27  1  0  0  0
 27 28  2  0  0  0
 28 29  1  0  0  0
 28 23  1  0  0  0
  6  1  1  0  0  0
 12  7  1  0  0  0
 20 14  1  0  0  0
 33 34  1  0  0  0
 29 30  1  0  0  0
M  END
> <Activity>
8.4

> <minimizedAffinity>
-8.85636

$$$$
HIPS6981


 34 37  0  0  0  0  0  0  0  0999 V2000
   67.4267   73.3115   91.9091 C   0  0  0  0  0  0  0  0  0  0  0  0
   68.5380   72.6513   92.4602 C   0  0  0  0  0  0  0  0  0  0  0  0
   69.6449   73.3834   92.8954 C   0  0  0  0  0  0  0  0  0  0  0  0
   69.6540   74.7761   92.7798 C   0  0  0  0  0  0  0  0  0  0  0  0
   68.5395   75.4502   92.2557 C   0  0  0  0  0  0  0  0  0  0  0  0
   67.4204   74.7148   91.8378 C   0  0  0  0  0  0  0  0  0  0  0  0
   68.5729   76.9134   92.0805 C   0  0  0  0  0  0  0  0  0  0  0  0
   68.0095   77.7633   93.0449 C   0  0  0  0  0  0  0  0  0  0  0  0
   68.0699   79.1506   92.8775 C   0  0  0  0  0  0  0  0  0  0  0  0
   68.6626   79.6961   91.7325 C   0  0  0  0  0  0  0  0  0  0  0  0
   69.1776   78.8569   90.7411 C   0  0  0  0  0  0  0  0  0  0  0  0
   69.1610   77.4655   90.9336 C   0  0  0  0  0  0  0  0  0  0  0  0
   69.7160   79.4207   89.5781 O   0  0  0  0  0  0  0  0  0  0  0  0
   69.0135   79.5668   88.3715 C   0  0  0  0  0  0  0  0  0  0  0  0
   68.0859   78.6026   87.9304 C   0  0  0  0  0  0  0  0  0  0  0  0
   67.3748   78.8024   86.7431 C   0  0  0  0  0  0  0  0  0  0  0  0
   67.5758   79.9635   85.9909 C   0  0  0  0  0  0  0  0  0  0  0  0
   66.8691   80.1617   84.8496 F   0  0  0  0  0  0  0  0  0  0  0  0
   68.4941   80.9247   86.4227 C   0  0  0  0  0  0  0  0  0  0  0  0
   69.2089   80.7258   87.6090 C   0  0  0  0  0  0  0  0  0  0  0  0
   66.2920   72.5292   91.3016 C   0  0  0  0  0  0  0  0  0  0  0  0
   65.0392   73.0829   91.7117 O   0  0  0  0  0  0  0  0  0  0  0  0
   64.0422   76.4419   90.4902 C   0  0  0  0  0  0  0  0  0  0  0  0
   64.6625   75.4117   91.2202 C   0  0  0  0  0  0  0  0  0  0  0  0
   64.3316   74.0702   91.0033 C   0  0  0  0  0  0  0  0  0  0  0  0
   63.3214   73.7525   90.0825 C   0  0  0  0  0  0  0  0  0  0  0  0
   62.6996   74.7611   89.3493 C   0  0  0  0  0  0  0  0  0  0  0  0
   63.0689   76.1010   89.5164 C   0  0  0  0  0  0  0  0  0  0  0  0
   62.4730   77.0458   88.6794 O   0  0  0  0  0  0  0  0  0  0  0  0
   61.8338   76.7767   88.0494 H   0  0  0  0  0  0  0  0  0  0  0  0
   65.1775   78.4843   90.0060 O   0  0  0  0  0  0  0  0  0  0  0  0
   64.4278   77.8404   90.7870 C   0  0  0  0  0  0  0  0  0  0  0  0
   63.9177   78.4727   91.9194 O   0  0  0  0  0  0  0  0  0  0  0  0
   63.3591   78.0028   92.5068 H   0  0  0  0  0  0  0  0  0  0  0  0
 31 32  2  0  0  0
 32 33  1  0  0  0
 32 23  1  0  0  0
 23 24  2  0  0  0
 24 25  1  0  0  0
 25 22  1  0  0  0
 22 21  1  0  0  0
 21  1  1  0  0  0
  1  2  2  0  0  0
  2  3  1  0  0  0
  3  4  2  0  0  0
  4  5  1  0  0  0
  5  7  1  0  0  0
  7  8  2  0  0  0
  8  9  1  0  0  0
  9 10  2  0  0  0
 10 11  1  0  0  0
 11 13  1  0  0  0
 13 14  1  0  0  0
 14 15  2  0  0  0
 15 16  1  0  0  0
 16 17  2  0  0  0
 17 18  1  0  0  0
 17 19  1  0  0  0
 19 20  2  0  0  0
 11 12  2  0  0  0
  5  6  2  0  0  0
 25 26  2  0  0  0
 26 27  1  0  0  0
 27 28  2  0  0  0
 28 29  1  0  0  0
 28 23  1  0  0  0
  6  1  1  0  0  0
 12  7  1  0  0  0
 20 14  1  0  0  0
 33 34  1  0  0  0
 29 30  1  0  0  0
M  END
> <Activity>
8.4

> <minimizedAffinity>
-8.85480

$$$$
HIPS6981


 34 37  0  0  0  0  0  0  0  0999 V2000
   64.7196   74.5999   90.9252 C   0  0  0  0  0  0  0  0  0  0  0  0
   63.4235   75.1294   90.8045 C   0  0  0  0  0  0  0  0  0  0  0  0
   63.2357   76.5095   90.7014 C   0  0  0  0  0  0  0  0  0  0  0  0
   64.3363   77.3706   90.7230 C   0  0  0  0  0  0  0  0  0  0  0  0
   65.6381   76.8531   90.8163 C   0  0  0  0  0  0  0  0  0  0  0  0
   65.8261   75.4655   90.8994 C   0  0  0  0  0  0  0  0  0  0  0  0
   66.7940   77.7642   90.8975 C   0  0  0  0  0  0  0  0  0  0  0  0
   67.0710   78.4660   92.0810 C   0  0  0  0  0  0  0  0  0  0  0  0
   68.1852   79.3085   92.1516 C   0  0  0  0  0  0  0  0  0  0  0  0
   69.0092   79.4808   91.0331 C   0  0  0  0  0  0  0  0  0  0  0  0
   68.7105   78.8286   89.8340 C   0  0  0  0  0  0  0  0  0  0  0  0
   67.6203   77.9445   89.7792 C   0  0  0  0  0  0  0  0  0  0  0  0
   69.5146   79.0575   88.7111 O   0  0  0  0  0  0  0  0  0  0  0  0
   70.7652   79.6940   88.7502 C   0  0  0  0  0  0  0  0  0  0  0  0
   70.8885   81.0954   88.6739 C   0  0  0  0  0  0  0  0  0  0  0  0
   72.1483   81.6961   88.7574 C   0  0  0  0  0  0  0  0  0  0  0  0
   73.2919   80.9095   88.9241 C   0  0  0  0  0  0  0  0  0  0  0  0
   74.5102   81.4985   89.0241 F   0  0  0  0  0  0  0  0  0  0  0  0
   73.1773   79.5186   89.0012 C   0  0  0  0  0  0  0  0  0  0  0  0
   71.9180   78.9149   88.9150 C   0  0  0  0  0  0  0  0  0  0  0  0
   64.9280   73.1311   91.1854 C   0  0  0  0  0  0  0  0  0  0  0  0
   66.3247   72.8251   91.1803 O   0  0  0  0  0  0  0  0  0  0  0  0
   69.2978   75.0448   91.2286 C   0  0  0  0  0  0  0  0  0  0  0  0
   68.3084   74.1400   90.8028 C   0  0  0  0  0  0  0  0  0  0  0  0
   67.3296   73.6699   91.6842 C   0  0  0  0  0  0  0  0  0  0  0  0
   67.3720   74.0634   93.0305 C   0  0  0  0  0  0  0  0  0  0  0  0
   68.3438   74.9614   93.4674 C   0  0  0  0  0  0  0  0  0  0  0  0
   69.2892   75.4842   92.5772 C   0  0  0  0  0  0  0  0  0  0  0  0
   70.1701   76.4518   93.0632 O   0  0  0  0  0  0  0  0  0  0  0  0
   70.1296   76.7129   93.9621 H   0  0  0  0  0  0  0  0  0  0  0  0
   71.4398   75.9051   90.6234 O   0  0  0  0  0  0  0  0  0  0  0  0
   70.3141   75.4846   90.2457 C   0  0  0  0  0  0  0  0  0  0  0  0
   70.0442   75.3883   88.8819 O   0  0  0  0  0  0  0  0  0  0  0  0
   69.2100   75.0767   88.5902 H   0  0  0  0  0  0  0  0  0  0  0  0
 31 32  2  0  0  0
 32 33  1  0  0  0
 32 23  1  0  0  0
 23 24  2  0  0  0
 24 25  1  0  0  0
 25 22  1  0  0  0
 22 21  1  0  0  0
 21  1  1  0  0  0
  1  2  2  0  0  0
  2  3  1  0  0  0
  3  4  2  0  0  0
  4  5  1  0  0  0
  5  7  1  0  0  0
  7  8  2  0  0  0
  8  9  1  0  0  0
  9 10  2  0  0  0
 10 11  1  0  0  0
 11 13  1  0  0  0
 13 14  1  0  0  0
 14 15  2  0  0  0
 15 16  1  0  0  0
 16 17  2  0  0  0
 17 18  1  0  0  0
 17 19  1  0  0  0
 19 20  2  0  0  0
 11 12  2  0  0  0
  5  6  2  0  0  0
 25 26  2  0  0  0
 26 27  1  0  0  0
 27 28  2  0  0  0
 28 29  1  0  0  0
 28 23  1  0  0  0
  6  1  1  0  0  0
 12  7  1  0  0  0
 20 14  1  0  0  0
 33 34  1  0  0  0
 29 30  1  0  0  0
M  END
> <Activity>
8.4

> <minimizedAffinity>
-8.55695

$$$$
HIPS6984


 33 36  0  0  0  0  0  0  0  0999 V2000
   68.2307   74.7747   91.8092 C   0  0  0  0  0  0  0  0  0  0  0  0
   68.7476   75.2495   93.0217 C   0  0  0  0  0  0  0  0  0  0  0  0
   69.1931   76.5477   93.0754 C   0  0  0  0  0  0  0  0  0  0  0  0
   69.1489   77.3912   91.9868 C   0  0  0  0  0  0  0  0  0  0  0  0
   68.6321   76.8854   90.8091 C   0  0  0  0  0  0  0  0  0  0  0  0
   68.1735   75.5834   90.7142 C   0  0  0  0  0  0  0  0  0  0  0  0
   68.5856   77.7822   89.6557 C   0  0  0  0  0  0  0  0  0  0  0  0
   67.5338   77.6685   88.7757 C   0  0  0  0  0  0  0  0  0  0  0  0
   67.4404   78.5030   87.6554 C   0  0  0  0  0  0  0  0  0  0  0  0
   68.4186   79.4585   87.4249 C   0  0  0  0  0  0  0  0  0  0  0  0
   69.4776   79.5886   88.2926 C   0  0  0  0  0  0  0  0  0  0  0  0
   69.5372   78.7338   89.4049 C   0  0  0  0  0  0  0  0  0  0  0  0
   70.4826   80.4970   88.1504 O   0  0  0  0  0  0  0  0  0  0  0  0
   71.6465   80.6619   88.9062 C   0  0  0  0  0  0  0  0  0  0  0  0
   72.0428   82.1110   88.8621 C   0  0  0  0  0  0  0  0  0  0  0  0
   73.5042   82.3623   88.7140 C   0  0  0  0  0  0  0  0  0  0  0  0
   74.2214   81.3569   89.5960 C   0  0  0  0  0  0  0  0  0  0  0  0
   74.0771   80.0053   88.9514 C   0  0  0  0  0  0  0  0  0  0  0  0
   72.6789   79.6793   88.5347 C   0  0  0  0  0  0  0  0  0  0  0  0
   67.7835   73.3773   91.7378 C   0  0  0  0  0  0  0  0  0  0  0  0
   66.4660   73.0990   91.7352 O   0  0  0  0  0  0  0  0  0  0  0  0
   63.8845   75.6423   90.9448 C   0  0  0  0  0  0  0  0  0  0  0  0
   65.0958   75.0753   91.3058 C   0  0  0  0  0  0  0  0  0  0  0  0
   65.3177   73.7166   91.3903 C   0  0  0  0  0  0  0  0  0  0  0  0
   64.1920   72.9119   91.0739 C   0  0  0  0  0  0  0  0  0  0  0  0
   63.0006   73.4797   90.7184 C   0  0  0  0  0  0  0  0  0  0  0  0
   62.8133   74.8402   90.6442 C   0  0  0  0  0  0  0  0  0  0  0  0
   61.5762   75.3474   90.2766 O   0  0  0  0  0  0  0  0  0  0  0  0
   60.8704   74.7637   90.0793 H   0  0  0  0  0  0  0  0  0  0  0  0
   64.2199   77.6907   89.8955 O   0  0  0  0  0  0  0  0  0  0  0  0
   63.7128   77.0863   90.8742 C   0  0  0  0  0  0  0  0  0  0  0  0
   63.0315   77.8160   91.8136 O   0  0  0  0  0  0  0  0  0  0  0  0
   62.6455   77.3860   92.5513 H   0  0  0  0  0  0  0  0  0  0  0  0
 30 31  2  0  0  0
 31 32  1  0  0  0
 31 22  1  0  0  0
 22 23  2  0  0  0
 23 24  1  0  0  0
 24 21  1  0  0  0
 21 20  1  0  0  0
 20  1  1  0  0  0
  1  2  2  0  0  0
  2  3  1  0  0  0
  3  4  2  0  0  0
  4  5  1  0  0  0
  5  7  1  0  0  0
  7  8  2  0  0  0
  8  9  1  0  0  0
  9 10  2  0  0  0
 10 11  1  0  0  0
 11 13  1  0  0  0
 13 14  1  0  0  0
 14 15  1  0  0  0
 15 16  1  0  0  0
 16 17  1  0  0  0
 17 18  1  0  0  0
 18 19  1  0  0  0
 11 12  2  0  0  0
  5  6  2  0  0  0
 24 25  2  0  0  0
 25 26  1  0  0  0
 26 27  2  0  0  0
 27 28  1  0  0  0
 27 22  1  0  0  0
  6  1  1  0  0  0
 12  7  1  0  0  0
 19 14  1  0  0  0
 32 33  1  0  0  0
 28 29  1  0  0  0
M  END
> <Activity>
10.3

> <minimizedAffinity>
-10.07424

$$$$
HIPS6984


 33 36  0  0  0  0  0  0  0  0999 V2000
   67.8486   79.5407   87.0836 C   0  0  0  0  0  0  0  0  0  0  0  0
   67.2937   79.0391   85.8990 C   0  0  0  0  0  0  0  0  0  0  0  0
   66.8015   77.7568   85.9028 C   0  0  0  0  0  0  0  0  0  0  0  0
   66.8346   76.9543   87.0225 C   0  0  0  0  0  0  0  0  0  0  0  0
   67.3900   77.4856   88.1711 C   0  0  0  0  0  0  0  0  0  0  0  0
   67.8968   78.7725   88.2079 C   0  0  0  0  0  0  0  0  0  0  0  0
   67.4235   76.6328   89.3579 C   0  0  0  0  0  0  0  0  0  0  0  0
   68.3103   76.9402   90.3643 C   0  0  0  0  0  0  0  0  0  0  0  0
   68.3828   76.1572   91.5226 C   0  0  0  0  0  0  0  0  0  0  0  0
   67.5520   75.0556   91.6624 C   0  0  0  0  0  0  0  0  0  0  0  0
   66.6585   74.7317   90.6683 C   0  0  0  0  0  0  0  0  0  0  0  0
   66.6148   75.5405   89.5214 C   0  0  0  0  0  0  0  0  0  0  0  0
   65.8030   73.6728   90.7169 O   0  0  0  0  0  0  0  0  0  0  0  0
   64.4070   73.6590   90.7818 C   0  0  0  0  0  0  0  0  0  0  0  0
   63.8964   75.0084   90.3612 C   0  0  0  0  0  0  0  0  0  0  0  0
   62.7608   75.5346   91.1701 C   0  0  0  0  0  0  0  0  0  0  0  0
   61.8283   74.3685   91.4415 C   0  0  0  0  0  0  0  0  0  0  0  0
   62.5121   73.4623   92.4285 C   0  0  0  0  0  0  0  0  0  0  0  0
   63.9287   73.1413   92.0752 C   0  0  0  0  0  0  0  0  0  0  0  0
   68.4061   80.8996   87.0753 C   0  0  0  0  0  0  0  0  0  0  0  0
   69.3249   81.2481   87.9961 O   0  0  0  0  0  0  0  0  0  0  0  0
   72.9333   81.2718   88.8538 C   0  0  0  0  0  0  0  0  0  0  0  0
   71.6697   81.7143   88.4985 C   0  0  0  0  0  0  0  0  0  0  0  0
   70.5778   80.8865   88.3403 C   0  0  0  0  0  0  0  0  0  0  0  0
   70.8392   79.5107   88.5721 C   0  0  0  0  0  0  0  0  0  0  0  0
   72.0890   79.0828   88.9225 C   0  0  0  0  0  0  0  0  0  0  0  0
   73.1571   79.9362   89.0716 C   0  0  0  0  0  0  0  0  0  0  0  0
   74.3985   79.4322   89.4292 O   0  0  0  0  0  0  0  0  0  0  0  0
   74.5081   78.5122   89.5687 H   0  0  0  0  0  0  0  0  0  0  0  0
   74.0689   82.9280   90.0273 O   0  0  0  0  0  0  0  0  0  0  0  0
   74.0474   82.1967   89.0049 C   0  0  0  0  0  0  0  0  0  0  0  0
   75.0672   82.3108   88.0960 O   0  0  0  0  0  0  0  0  0  0  0  0
   75.0713   81.7756   87.3269 H   0  0  0  0  0  0  0  0  0  0  0  0
 30 31  2  0  0  0
 31 32  1  0  0  0
 31 22  1  0  0  0
 22 23  2  0  0  0
 23 24  1  0  0  0
 24 21  1  0  0  0
 21 20  1  0  0  0
 20  1  1  0  0  0
  1  2  2  0  0  0
  2  3  1  0  0  0
  3  4  2  0  0  0
  4  5  1  0  0  0
  5  7  1  0  0  0
  7  8  2  0  0  0
  8  9  1  0  0  0
  9 10  2  0  0  0
 10 11  1  0  0  0
 11 13  1  0  0  0
 13 14  1  0  0  0
 14 15  1  0  0  0
 15 16  1  0  0  0
 16 17  1  0  0  0
 17 18  1  0  0  0
 18 19  1  0  0  0
 11 12  2  0  0  0
  5  6  2  0  0  0
 24 25  2  0  0  0
 25 26  1  0  0  0
 26 27  2  0  0  0
 27 28  1  0  0  0
 27 22  1  0  0  0
  6  1  1  0  0  0
 12  7  1  0  0  0
 19 14  1  0  0  0
 32 33  1  0  0  0
 28 29  1  0  0  0
M  END
> <Activity>
10.3

> <minimizedAffinity>
-9.48360

$$$$
HIPS6984


 33 36  0  0  0  0  0  0  0  0999 V2000
   67.5197   78.7458   87.4063 C   0  0  0  0  0  0  0  0  0  0  0  0
   67.4286   78.2530   86.0980 C   0  0  0  0  0  0  0  0  0  0  0  0
   66.8007   77.0478   85.8988 C   0  0  0  0  0  0  0  0  0  0  0  0
   66.2618   76.3138   86.9330 C   0  0  0  0  0  0  0  0  0  0  0  0
   66.3722   76.8338   88.2087 C   0  0  0  0  0  0  0  0  0  0  0  0
   66.9975   78.0441   88.4509 C   0  0  0  0  0  0  0  0  0  0  0  0
   65.7994   76.0537   89.3043 C   0  0  0  0  0  0  0  0  0  0  0  0
   64.4736   75.6920   89.2316 C   0  0  0  0  0  0  0  0  0  0  0  0
   63.8755   74.9443   90.2529 C   0  0  0  0  0  0  0  0  0  0  0  0
   64.6248   74.5607   91.3550 C   0  0  0  0  0  0  0  0  0  0  0  0
   65.9513   74.9116   91.4465 C   0  0  0  0  0  0  0  0  0  0  0  0
   66.5162   75.6619   90.4027 C   0  0  0  0  0  0  0  0  0  0  0  0
   66.7659   74.5796   92.4866 O   0  0  0  0  0  0  0  0  0  0  0  0
   68.0040   75.1141   92.8530 C   0  0  0  0  0  0  0  0  0  0  0  0
   67.8814   76.6111   92.9031 C   0  0  0  0  0  0  0  0  0  0  0  0
   69.0414   77.3593   92.3415 C   0  0  0  0  0  0  0  0  0  0  0  0
   70.2982   76.6378   92.7922 C   0  0  0  0  0  0  0  0  0  0  0  0
   70.3735   75.3420   92.0318 C   0  0  0  0  0  0  0  0  0  0  0  0
   69.0970   74.5641   92.0330 C   0  0  0  0  0  0  0  0  0  0  0  0
   68.2193   80.0182   87.6283 C   0  0  0  0  0  0  0  0  0  0  0  0
   69.1330   80.1128   88.6131 O   0  0  0  0  0  0  0  0  0  0  0  0
   72.7771   80.7654   88.8408 C   0  0  0  0  0  0  0  0  0  0  0  0
   71.4163   80.9776   88.6918 C   0  0  0  0  0  0  0  0  0  0  0  0
   70.4678   79.9778   88.7502 C   0  0  0  0  0  0  0  0  0  0  0  0
   70.9907   78.6783   88.9802 C   0  0  0  0  0  0  0  0  0  0  0  0
   72.3348   78.4780   89.1262 C   0  0  0  0  0  0  0  0  0  0  0  0
   73.2543   79.4987   89.0620 C   0  0  0  0  0  0  0  0  0  0  0  0
   74.6040   79.2224   89.2191 O   0  0  0  0  0  0  0  0  0  0  0  0
   74.8878   78.3420   89.3687 H   0  0  0  0  0  0  0  0  0  0  0  0
   73.3490   82.9976   89.1558 O   0  0  0  0  0  0  0  0  0  0  0  0
   73.7296   81.8639   88.7681 C   0  0  0  0  0  0  0  0  0  0  0  0
   75.0114   81.7270   88.3019 O   0  0  0  0  0  0  0  0  0  0  0  0
   75.3162   80.8911   88.0079 H   0  0  0  0  0  0  0  0  0  0  0  0
 30 31  2  0  0  0
 31 32  1  0  0  0
 31 22  1  0  0  0
 22 23  2  0  0  0
 23 24  1  0  0  0
 24 21  1  0  0  0
 21 20  1  0  0  0
 20  1  1  0  0  0
  1  2  2  0  0  0
  2  3  1  0  0  0
  3  4  2  0  0  0
  4  5  1  0  0  0
  5  7  1  0  0  0
  7  8  2  0  0  0
  8  9  1  0  0  0
  9 10  2  0  0  0
 10 11  1  0  0  0
 11 13  1  0  0  0
 13 14  1  0  0  0
 14 15  1  0  0  0
 15 16  1  0  0  0
 16 17  1  0  0  0
 17 18  1  0  0  0
 18 19  1  0  0  0
 11 12  2  0  0  0
  5  6  2  0  0  0
 24 25  2  0  0  0
 25 26  1  0  0  0
 26 27  2  0  0  0
 27 28  1  0  0  0
 27 22  1  0  0  0
  6  1  1  0  0  0
 12  7  1  0  0  0
 19 14  1  0  0  0
 32 33  1  0  0  0
 28 29  1  0  0  0
M  END
> <Activity>
10.3

> <minimizedAffinity>
-9.37439

$$$$
HIPS6984


 33 36  0  0  0  0  0  0  0  0999 V2000
   68.3241   74.3674   92.1587 C   0  0  0  0  0  0  0  0  0  0  0  0
   68.2301   74.8006   93.4877 C   0  0  0  0  0  0  0  0  0  0  0  0
   68.7448   76.0330   93.8085 C   0  0  0  0  0  0  0  0  0  0  0  0
   69.3449   76.8504   92.8755 C   0  0  0  0  0  0  0  0  0  0  0  0
   69.4181   76.3871   91.5755 C   0  0  0  0  0  0  0  0  0  0  0  0
   68.9119   75.1517   91.2123 C   0  0  0  0  0  0  0  0  0  0  0  0
   70.0546   77.2561   90.5873 C   0  0  0  0  0  0  0  0  0  0  0  0
   71.3020   76.9147   90.1170 C   0  0  0  0  0  0  0  0  0  0  0  0
   71.9560   77.7114   89.1696 C   0  0  0  0  0  0  0  0  0  0  0  0
   71.3426   78.8612   88.6954 C   0  0  0  0  0  0  0  0  0  0  0  0
   70.0960   79.2197   89.1522 C   0  0  0  0  0  0  0  0  0  0  0  0
   69.4716   78.3959   90.1025 C   0  0  0  0  0  0  0  0  0  0  0  0
   69.4153   80.3268   88.7443 O   0  0  0  0  0  0  0  0  0  0  0  0
   68.4215   80.4516   87.7696 C   0  0  0  0  0  0  0  0  0  0  0  0
   67.7166   79.1311   87.6351 C   0  0  0  0  0  0  0  0  0  0  0  0
   67.3958   78.7254   86.2375 C   0  0  0  0  0  0  0  0  0  0  0  0
   66.9223   79.9699   85.5093 C   0  0  0  0  0  0  0  0  0  0  0  0
   68.1199   80.8565   85.3026 C   0  0  0  0  0  0  0  0  0  0  0  0
   68.9472   81.0530   86.5321 C   0  0  0  0  0  0  0  0  0  0  0  0
   67.8047   73.0364   91.8176 C   0  0  0  0  0  0  0  0  0  0  0  0
   66.6499   72.9274   91.1334 O   0  0  0  0  0  0  0  0  0  0  0  0
   64.0187   75.5129   90.7473 C   0  0  0  0  0  0  0  0  0  0  0  0
   65.2663   74.9134   90.8031 C   0  0  0  0  0  0  0  0  0  0  0  0
   65.4684   73.5740   91.0632 C   0  0  0  0  0  0  0  0  0  0  0  0
   64.2808   72.8262   91.2761 C   0  0  0  0  0  0  0  0  0  0  0  0
   63.0538   73.4258   91.2189 C   0  0  0  0  0  0  0  0  0  0  0  0
   62.8878   74.7657   90.9571 C   0  0  0  0  0  0  0  0  0  0  0  0
   61.6121   75.3076   90.9144 O   0  0  0  0  0  0  0  0  0  0  0  0
   60.8657   74.7611   91.0636 H   0  0  0  0  0  0  0  0  0  0  0  0
   64.4386   77.7464   91.2417 O   0  0  0  0  0  0  0  0  0  0  0  0
   63.8707   76.9341   90.4683 C   0  0  0  0  0  0  0  0  0  0  0  0
   63.1487   77.4289   89.4133 O   0  0  0  0  0  0  0  0  0  0  0  0
   62.7172   76.8416   88.8244 H   0  0  0  0  0  0  0  0  0  0  0  0
 30 31  2  0  0  0
 31 32  1  0  0  0
 31 22  1  0  0  0
 22 23  2  0  0  0
 23 24  1  0  0  0
 24 21  1  0  0  0
 21 20  1  0  0  0
 20  1  1  0  0  0
  1  2  2  0  0  0
  2  3  1  0  0  0
  3  4  2  0  0  0
  4  5  1  0  0  0
  5  7  1  0  0  0
  7  8  2  0  0  0
  8  9  1  0  0  0
  9 10  2  0  0  0
 10 11  1  0  0  0
 11 13  1  0  0  0
 13 14  1  0  0  0
 14 15  1  0  0  0
 15 16  1  0  0  0
 16 17  1  0  0  0
 17 18  1  0  0  0
 18 19  1  0  0  0
 11 12  2  0  0  0
  5  6  2  0  0  0
 24 25  2  0  0  0
 25 26  1  0  0  0
 26 27  2  0  0  0
 27 28  1  0  0  0
 27 22  1  0  0  0
  6  1  1  0  0  0
 12  7  1  0  0  0
 19 14  1  0  0  0
 32 33  1  0  0  0
 28 29  1  0  0  0
M  END
> <Activity>
10.3

> <minimizedAffinity>
-9.34444

$$$$
HIPS6984


 33 36  0  0  0  0  0  0  0  0999 V2000
   69.0360   75.9164   92.1076 C   0  0  0  0  0  0  0  0  0  0  0  0
   69.7827   74.7315   92.0719 C   0  0  0  0  0  0  0  0  0  0  0  0
   70.9136   74.6982   91.2932 C   0  0  0  0  0  0  0  0  0  0  0  0
   71.3350   75.7812   90.5528 C   0  0  0  0  0  0  0  0  0  0  0  0
   70.5713   76.9314   90.6146 C   0  0  0  0  0  0  0  0  0  0  0  0
   69.4255   77.0050   91.3867 C   0  0  0  0  0  0  0  0  0  0  0  0
   71.0205   78.0793   89.8288 C   0  0  0  0  0  0  0  0  0  0  0  0
   72.3543   78.1727   89.5034 C   0  0  0  0  0  0  0  0  0  0  0  0
   72.8372   79.2508   88.7521 C   0  0  0  0  0  0  0  0  0  0  0  0
   71.9637   80.2407   88.3277 C   0  0  0  0  0  0  0  0  0  0  0  0
   70.6268   80.1657   88.6419 C   0  0  0  0  0  0  0  0  0  0  0  0
   70.1798   79.0696   89.3971 C   0  0  0  0  0  0  0  0  0  0  0  0
   69.6951   81.0865   88.2684 O   0  0  0  0  0  0  0  0  0  0  0  0
   68.5646   80.9317   87.4616 C   0  0  0  0  0  0  0  0  0  0  0  0
   67.9605   79.5841   87.7402 C   0  0  0  0  0  0  0  0  0  0  0  0
   67.4769   78.8476   86.5383 C   0  0  0  0  0  0  0  0  0  0  0  0
   66.8013   79.8627   85.6349 C   0  0  0  0  0  0  0  0  0  0  0  0
   67.8784   80.7329   85.0469 C   0  0  0  0  0  0  0  0  0  0  0  0
   68.8547   81.2513   86.0533 C   0  0  0  0  0  0  0  0  0  0  0  0
   67.8079   75.9463   92.9129 C   0  0  0  0  0  0  0  0  0  0  0  0
   66.6715   75.4239   92.4138 O   0  0  0  0  0  0  0  0  0  0  0  0
   63.9731   75.2012   89.8787 C   0  0  0  0  0  0  0  0  0  0  0  0
   64.6537   75.0832   91.0795 C   0  0  0  0  0  0  0  0  0  0  0  0
   65.9509   75.5086   91.2769 C   0  0  0  0  0  0  0  0  0  0  0  0
   66.5624   76.0931   90.1370 C   0  0  0  0  0  0  0  0  0  0  0  0
   65.8834   76.2058   88.9562 C   0  0  0  0  0  0  0  0  0  0  0  0
   64.5891   75.7703   88.7934 C   0  0  0  0  0  0  0  0  0  0  0  0
   63.9611   75.9165   87.5657 O   0  0  0  0  0  0  0  0  0  0  0  0
   64.4185   76.3111   86.8495 H   0  0  0  0  0  0  0  0  0  0  0  0
   62.3433   73.9683   88.7684 O   0  0  0  0  0  0  0  0  0  0  0  0
   62.6028   74.7317   89.7330 C   0  0  0  0  0  0  0  0  0  0  0  0
   61.5878   75.0768   90.5872 O   0  0  0  0  0  0  0  0  0  0  0  0
   61.7587   75.6446   91.3127 H   0  0  0  0  0  0  0  0  0  0  0  0
 30 31  2  0  0  0
 31 32  1  0  0  0
 31 22  1  0  0  0
 22 23  2  0  0  0
 23 24  1  0  0  0
 24 21  1  0  0  0
 21 20  1  0  0  0
 20  1  1  0  0  0
  1  2  2  0  0  0
  2  3  1  0  0  0
  3  4  2  0  0  0
  4  5  1  0  0  0
  5  7  1  0  0  0
  7  8  2  0  0  0
  8  9  1  0  0  0
  9 10  2  0  0  0
 10 11  1  0  0  0
 11 13  1  0  0  0
 13 14  1  0  0  0
 14 15  1  0  0  0
 15 16  1  0  0  0
 16 17  1  0  0  0
 17 18  1  0  0  0
 18 19  1  0  0  0
 11 12  2  0  0  0
  5  6  2  0  0  0
 24 25  2  0  0  0
 25 26  1  0  0  0
 26 27  2  0  0  0
 27 28  1  0  0  0
 27 22  1  0  0  0
  6  1  1  0  0  0
 12  7  1  0  0  0
 19 14  1  0  0  0
 32 33  1  0  0  0
 28 29  1  0  0  0
M  END
> <Activity>
10.3

> <minimizedAffinity>
-9.13496

$$$$
HIPS6984


 33 36  0  0  0  0  0  0  0  0999 V2000
   70.3479   75.9558   90.7824 C   0  0  0  0  0  0  0  0  0  0  0  0
   71.1976   75.4572   91.7784 C   0  0  0  0  0  0  0  0  0  0  0  0
   70.6978   74.5230   92.6526 C   0  0  0  0  0  0  0  0  0  0  0  0
   69.4005   74.0636   92.5833 C   0  0  0  0  0  0  0  0  0  0  0  0
   68.5940   74.5798   91.5868 C   0  0  0  0  0  0  0  0  0  0  0  0
   69.0596   75.5223   90.6872 C   0  0  0  0  0  0  0  0  0  0  0  0
   67.2183   74.0907   91.5149 C   0  0  0  0  0  0  0  0  0  0  0  0
   67.0075   72.7395   91.3613 C   0  0  0  0  0  0  0  0  0  0  0  0
   65.7103   72.2181   91.2875 C   0  0  0  0  0  0  0  0  0  0  0  0
   64.6197   73.0707   91.3697 C   0  0  0  0  0  0  0  0  0  0  0  0
   64.8088   74.4241   91.5238 C   0  0  0  0  0  0  0  0  0  0  0  0
   66.1244   74.9099   91.5936 C   0  0  0  0  0  0  0  0  0  0  0  0
   63.8020   75.3369   91.6160 O   0  0  0  0  0  0  0  0  0  0  0  0
   62.9712   75.8494   90.6159 C   0  0  0  0  0  0  0  0  0  0  0  0
   61.9127   74.8287   90.3055 C   0  0  0  0  0  0  0  0  0  0  0  0
   61.5935   74.6691   88.8586 C   0  0  0  0  0  0  0  0  0  0  0  0
   61.5764   76.0590   88.2496 C   0  0  0  0  0  0  0  0  0  0  0  0
   62.9983   76.5475   88.1966 C   0  0  0  0  0  0  0  0  0  0  0  0
   63.7484   76.3677   89.4771 C   0  0  0  0  0  0  0  0  0  0  0  0
   70.8679   76.9792   89.8659 C   0  0  0  0  0  0  0  0  0  0  0  0
   70.0856   78.0171   89.5137 O   0  0  0  0  0  0  0  0  0  0  0  0
   67.9573   79.8043   87.0574 C   0  0  0  0  0  0  0  0  0  0  0  0
   68.8736   79.5707   88.0697 C   0  0  0  0  0  0  0  0  0  0  0  0
   69.2070   78.3157   88.5350 C   0  0  0  0  0  0  0  0  0  0  0  0
   68.5313   77.2465   87.8908 C   0  0  0  0  0  0  0  0  0  0  0  0
   67.6288   77.4860   86.8927 C   0  0  0  0  0  0  0  0  0  0  0  0
   67.3190   78.7516   86.4526 C   0  0  0  0  0  0  0  0  0  0  0  0
   66.3926   78.9208   85.4348 O   0  0  0  0  0  0  0  0  0  0  0  0
   65.9793   78.1738   85.0485 H   0  0  0  0  0  0  0  0  0  0  0  0
   68.1367   81.5382   85.5177 O   0  0  0  0  0  0  0  0  0  0  0  0
   67.6472   81.1546   86.6102 C   0  0  0  0  0  0  0  0  0  0  0  0
   66.8546   82.0236   87.3143 O   0  0  0  0  0  0  0  0  0  0  0  0
   66.4793   81.7587   88.1310 H   0  0  0  0  0  0  0  0  0  0  0  0
 30 31  2  0  0  0
 31 32  1  0  0  0
 31 22  1  0  0  0
 22 23  2  0  0  0
 23 24  1  0  0  0
 24 21  1  0  0  0
 21 20  1  0  0  0
 20  1  1  0  0  0
  1  2  2  0  0  0
  2  3  1  0  0  0
  3  4  2  0  0  0
  4  5  1  0  0  0
  5  7  1  0  0  0
  7  8  2  0  0  0
  8  9  1  0  0  0
  9 10  2  0  0  0
 10 11  1  0  0  0
 11 13  1  0  0  0
 13 14  1  0  0  0
 14 15  1  0  0  0
 15 16  1  0  0  0
 16 17  1  0  0  0
 17 18  1  0  0  0
 18 19  1  0  0  0
 11 12  2  0  0  0
  5  6  2  0  0  0
 24 25  2  0  0  0
 25 26  1  0  0  0
 26 27  2  0  0  0
 27 28  1  0  0  0
 27 22  1  0  0  0
  6  1  1  0  0  0
 12  7  1  0  0  0
 19 14  1  0  0  0
 32 33  1  0  0  0
 28 29  1  0  0  0
M  END
> <Activity>
10.3

> <minimizedAffinity>
-9.08306

$$$$
HIPS6984


 33 36  0  0  0  0  0  0  0  0999 V2000
   65.9318   76.9073   89.6629 C   0  0  0  0  0  0  0  0  0  0  0  0
   65.5574   75.9450   88.7160 C   0  0  0  0  0  0  0  0  0  0  0  0
   65.9713   76.1144   87.4173 C   0  0  0  0  0  0  0  0  0  0  0  0
   66.7356   77.1891   87.0179 C   0  0  0  0  0  0  0  0  0  0  0  0
   67.0841   78.1164   87.9816 C   0  0  0  0  0  0  0  0  0  0  0  0
   66.6869   77.9819   89.3001 C   0  0  0  0  0  0  0  0  0  0  0  0
   67.8955   79.2554   87.5559 C   0  0  0  0  0  0  0  0  0  0  0  0
   67.5634   79.8992   86.3858 C   0  0  0  0  0  0  0  0  0  0  0  0
   68.3065   80.9958   85.9328 C   0  0  0  0  0  0  0  0  0  0  0  0
   69.3929   81.4433   86.6695 C   0  0  0  0  0  0  0  0  0  0  0  0
   69.7409   80.8140   87.8418 C   0  0  0  0  0  0  0  0  0  0  0  0
   68.9721   79.7176   88.2638 C   0  0  0  0  0  0  0  0  0  0  0  0
   70.7876   81.1821   88.6321 O   0  0  0  0  0  0  0  0  0  0  0  0
   72.1448   81.2919   88.3173 C   0  0  0  0  0  0  0  0  0  0  0  0
   72.8026   79.9650   88.5728 C   0  0  0  0  0  0  0  0  0  0  0  0
   74.1464   80.0386   89.2127 C   0  0  0  0  0  0  0  0  0  0  0  0
   74.8867   81.1939   88.5643 C   0  0  0  0  0  0  0  0  0  0  0  0
   74.2485   82.4680   89.0465 C   0  0  0  0  0  0  0  0  0  0  0  0
   72.7564   82.4703   88.9550 C   0  0  0  0  0  0  0  0  0  0  0  0
   65.4640   76.7479   91.0461 C   0  0  0  0  0  0  0  0  0  0  0  0
   66.3472   76.4480   92.0174 O   0  0  0  0  0  0  0  0  0  0  0  0
   69.7695   75.0918   91.5643 C   0  0  0  0  0  0  0  0  0  0  0  0
   68.6301   75.8574   91.3791 C   0  0  0  0  0  0  0  0  0  0  0  0
   67.4877   75.7393   92.1431 C   0  0  0  0  0  0  0  0  0  0  0  0
   67.5563   74.7536   93.1623 C   0  0  0  0  0  0  0  0  0  0  0  0
   68.6847   74.0028   93.3382 C   0  0  0  0  0  0  0  0  0  0  0  0
   69.8076   74.1464   92.5572 C   0  0  0  0  0  0  0  0  0  0  0  0
   70.9180   73.3496   92.7921 O   0  0  0  0  0  0  0  0  0  0  0  0
   70.9021   72.7152   93.4815 H   0  0  0  0  0  0  0  0  0  0  0  0
   70.8700   74.8892   89.5254 O   0  0  0  0  0  0  0  0  0  0  0  0
   70.9452   75.2637   90.7231 C   0  0  0  0  0  0  0  0  0  0  0  0
   72.1221   75.8091   91.1665 O   0  0  0  0  0  0  0  0  0  0  0  0
   72.2003   76.0950   92.0554 H   0  0  0  0  0  0  0  0  0  0  0  0
 30 31  2  0  0  0
 31 32  1  0  0  0
 31 22  1  0  0  0
 22 23  2  0  0  0
 23 24  1  0  0  0
 24 21  1  0  0  0
 21 20  1  0  0  0
 20  1  1  0  0  0
  1  2  2  0  0  0
  2  3  1  0  0  0
  3  4  2  0  0  0
  4  5  1  0  0  0
  5  7  1  0  0  0
  7  8  2  0  0  0
  8  9  1  0  0  0
  9 10  2  0  0  0
 10 11  1  0  0  0
 11 13  1  0  0  0
 13 14  1  0  0  0
 14 15  1  0  0  0
 15 16  1  0  0  0
 16 17  1  0  0  0
 17 18  1  0  0  0
 18 19  1  0  0  0
 11 12  2  0  0  0
  5  6  2  0  0  0
 24 25  2  0  0  0
 25 26  1  0  0  0
 26 27  2  0  0  0
 27 28  1  0  0  0
 27 22  1  0  0  0
  6  1  1  0  0  0
 12  7  1  0  0  0
 19 14  1  0  0  0
 32 33  1  0  0  0
 28 29  1  0  0  0
M  END
> <Activity>
10.3

> <minimizedAffinity>
-8.96090

$$$$
HIPS6984


 33 36  0  0  0  0  0  0  0  0999 V2000
   64.8512   74.2817   90.6414 C   0  0  0  0  0  0  0  0  0  0  0  0
   63.5093   74.2867   90.2387 C   0  0  0  0  0  0  0  0  0  0  0  0
   63.1359   75.1403   89.2295 C   0  0  0  0  0  0  0  0  0  0  0  0
   64.0285   75.9841   88.6051 C   0  0  0  0  0  0  0  0  0  0  0  0
   65.3428   75.9494   89.0310 C   0  0  0  0  0  0  0  0  0  0  0  0
   65.7587   75.1043   90.0444 C   0  0  0  0  0  0  0  0  0  0  0  0
   66.2882   76.8450   88.3668 C   0  0  0  0  0  0  0  0  0  0  0  0
   66.3958   76.7891   86.9960 C   0  0  0  0  0  0  0  0  0  0  0  0
   67.2849   77.6251   86.3100 C   0  0  0  0  0  0  0  0  0  0  0  0
   68.0701   78.5234   87.0168 C   0  0  0  0  0  0  0  0  0  0  0  0
   67.9774   78.5952   88.3871 C   0  0  0  0  0  0  0  0  0  0  0  0
   67.0745   77.7407   89.0401 C   0  0  0  0  0  0  0  0  0  0  0  0
   68.7044   79.4450   89.1647 O   0  0  0  0  0  0  0  0  0  0  0  0
   70.0720   79.4383   89.4522 C   0  0  0  0  0  0  0  0  0  0  0  0
   70.6830   80.6929   88.8945 C   0  0  0  0  0  0  0  0  0  0  0  0
   72.0113   80.5134   88.2430 C   0  0  0  0  0  0  0  0  0  0  0  0
   72.8024   79.5444   89.1024 C   0  0  0  0  0  0  0  0  0  0  0  0
   72.1902   78.1814   88.9284 C   0  0  0  0  0  0  0  0  0  0  0  0
   70.7017   78.1640   89.0659 C   0  0  0  0  0  0  0  0  0  0  0  0
   65.2487   73.3945   91.7425 C   0  0  0  0  0  0  0  0  0  0  0  0
   66.2211   73.7802   92.5906 O   0  0  0  0  0  0  0  0  0  0  0  0
   68.5780   76.6410   92.7261 C   0  0  0  0  0  0  0  0  0  0  0  0
   67.4027   75.9098   92.7817 C   0  0  0  0  0  0  0  0  0  0  0  0
   67.3269   74.5514   92.5543 C   0  0  0  0  0  0  0  0  0  0  0  0
   68.5674   73.9316   92.2511 C   0  0  0  0  0  0  0  0  0  0  0  0
   69.7223   74.6607   92.1986 C   0  0  0  0  0  0  0  0  0  0  0  0
   69.7624   76.0157   92.4306 C   0  0  0  0  0  0  0  0  0  0  0  0
   70.9707   76.6924   92.3603 O   0  0  0  0  0  0  0  0  0  0  0  0
   71.7573   76.2265   92.1551 H   0  0  0  0  0  0  0  0  0  0  0  0
   69.0868   78.4773   94.0596 O   0  0  0  0  0  0  0  0  0  0  0  0
   68.5928   78.0752   92.9758 C   0  0  0  0  0  0  0  0  0  0  0  0
   68.0990   79.0034   92.0962 O   0  0  0  0  0  0  0  0  0  0  0  0
   67.7263   78.7260   91.2825 H   0  0  0  0  0  0  0  0  0  0  0  0
 30 31  2  0  0  0
 31 32  1  0  0  0
 31 22  1  0  0  0
 22 23  2  0  0  0
 23 24  1  0  0  0
 24 21  1  0  0  0
 21 20  1  0  0  0
 20  1  1  0  0  0
  1  2  2  0  0  0
  2  3  1  0  0  0
  3  4  2  0  0  0
  4  5  1  0  0  0
  5  7  1  0  0  0
  7  8  2  0  0  0
  8  9  1  0  0  0
  9 10  2  0  0  0
 10 11  1  0  0  0
 11 13  1  0  0  0
 13 14  1  0  0  0
 14 15  1  0  0  0
 15 16  1  0  0  0
 16 17  1  0  0  0
 17 18  1  0  0  0
 18 19  1  0  0  0
 11 12  2  0  0  0
  5  6  2  0  0  0
 24 25  2  0  0  0
 25 26  1  0  0  0
 26 27  2  0  0  0
 27 28  1  0  0  0
 27 22  1  0  0  0
  6  1  1  0  0  0
 12  7  1  0  0  0
 19 14  1  0  0  0
 32 33  1  0  0  0
 28 29  1  0  0  0
M  END
> <Activity>
10.3

> <minimizedAffinity>
-8.95681

$$$$
HIPS6984


 33 36  0  0  0  0  0  0  0  0999 V2000
   70.2668   75.1186   91.4849 C   0  0  0  0  0  0  0  0  0  0  0  0
   70.1049   74.1701   92.5031 C   0  0  0  0  0  0  0  0  0  0  0  0
   68.9666   74.2262   93.2698 C   0  0  0  0  0  0  0  0  0  0  0  0
   67.9873   75.1753   93.0728 C   0  0  0  0  0  0  0  0  0  0  0  0
   68.1842   76.0933   92.0586 C   0  0  0  0  0  0  0  0  0  0  0  0
   69.3171   76.0705   91.2647 C   0  0  0  0  0  0  0  0  0  0  0  0
   67.1438   77.0989   91.8510 C   0  0  0  0  0  0  0  0  0  0  0  0
   67.1889   78.2557   92.5950 C   0  0  0  0  0  0  0  0  0  0  0  0
   66.2179   79.2515   92.4351 C   0  0  0  0  0  0  0  0  0  0  0  0
   65.1946   79.0745   91.5161 C   0  0  0  0  0  0  0  0  0  0  0  0
   65.1319   77.9259   90.7624 C   0  0  0  0  0  0  0  0  0  0  0  0
   66.1234   76.9497   90.9508 C   0  0  0  0  0  0  0  0  0  0  0  0
   64.1683   77.6644   89.8358 O   0  0  0  0  0  0  0  0  0  0  0  0
   63.1573   76.6997   89.8513 C   0  0  0  0  0  0  0  0  0  0  0  0
   63.0159   76.1791   91.2540 C   0  0  0  0  0  0  0  0  0  0  0  0
   62.8092   74.7074   91.3641 C   0  0  0  0  0  0  0  0  0  0  0  0
   61.8535   74.3069   90.2555 C   0  0  0  0  0  0  0  0  0  0  0  0
   62.5999   74.4139   88.9538 C   0  0  0  0  0  0  0  0  0  0  0  0
   63.3455   75.6988   88.7871 C   0  0  0  0  0  0  0  0  0  0  0  0
   71.4976   75.0831   90.6839 C   0  0  0  0  0  0  0  0  0  0  0  0
   71.6882   75.9985   89.7148 O   0  0  0  0  0  0  0  0  0  0  0  0
   69.3021   78.5201   88.4089 C   0  0  0  0  0  0  0  0  0  0  0  0
   69.8292   77.3069   88.8203 C   0  0  0  0  0  0  0  0  0  0  0  0
   71.1123   77.1454   89.3001 C   0  0  0  0  0  0  0  0  0  0  0  0
   71.8813   78.3376   89.3473 C   0  0  0  0  0  0  0  0  0  0  0  0
   71.3532   79.5304   88.9396 C   0  0  0  0  0  0  0  0  0  0  0  0
   70.0683   79.6562   88.4655 C   0  0  0  0  0  0  0  0  0  0  0  0
   69.5979   80.8988   88.0685 O   0  0  0  0  0  0  0  0  0  0  0  0
   70.1550   81.6502   88.1236 H   0  0  0  0  0  0  0  0  0  0  0  0
   67.5773   77.8231   87.0130 O   0  0  0  0  0  0  0  0  0  0  0  0
   67.9382   78.6259   87.9107 C   0  0  0  0  0  0  0  0  0  0  0  0
   67.0336   79.5494   88.3665 O   0  0  0  0  0  0  0  0  0  0  0  0
   67.2812   80.1574   89.0351 H   0  0  0  0  0  0  0  0  0  0  0  0
 30 31  2  0  0  0
 31 32  1  0  0  0
 31 22  1  0  0  0
 22 23  2  0  0  0
 23 24  1  0  0  0
 24 21  1  0  0  0
 21 20  1  0  0  0
 20  1  1  0  0  0
  1  2  2  0  0  0
  2  3  1  0  0  0
  3  4  2  0  0  0
  4  5  1  0  0  0
  5  7  1  0  0  0
  7  8  2  0  0  0
  8  9  1  0  0  0
  9 10  2  0  0  0
 10 11  1  0  0  0
 11 13  1  0  0  0
 13 14  1  0  0  0
 14 15  1  0  0  0
 15 16  1  0  0  0
 16 17  1  0  0  0
 17 18  1  0  0  0
 18 19  1  0  0  0
 11 12  2  0  0  0
  5  6  2  0  0  0
 24 25  2  0  0  0
 25 26  1  0  0  0
 26 27  2  0  0  0
 27 28  1  0  0  0
 27 22  1  0  0  0
  6  1  1  0  0  0
 12  7  1  0  0  0
 19 14  1  0  0  0
 32 33  1  0  0  0
 28 29  1  0  0  0
M  END
> <Activity>
10.3

> <minimizedAffinity>
-8.87420

$$$$
HIPS6984


 33 36  0  0  0  0  0  0  0  0999 V2000
   70.5935   76.5634   90.5239 C   0  0  0  0  0  0  0  0  0  0  0  0
   70.9247   75.5283   91.4080 C   0  0  0  0  0  0  0  0  0  0  0  0
   69.9059   74.8824   92.0648 C   0  0  0  0  0  0  0  0  0  0  0  0
   68.5809   75.2151   91.8851 C   0  0  0  0  0  0  0  0  0  0  0  0
   68.2953   76.2415   91.0048 C   0  0  0  0  0  0  0  0  0  0  0  0
   69.2928   76.9169   90.3243 C   0  0  0  0  0  0  0  0  0  0  0  0
   66.8890   76.5924   90.8152 C   0  0  0  0  0  0  0  0  0  0  0  0
   66.4840   77.8730   91.1150 C   0  0  0  0  0  0  0  0  0  0  0  0
   65.1491   78.2618   90.9509 C   0  0  0  0  0  0  0  0  0  0  0  0
   64.2184   77.3478   90.4802 C   0  0  0  0  0  0  0  0  0  0  0  0
   64.6029   76.0633   90.1743 C   0  0  0  0  0  0  0  0  0  0  0  0
   65.9503   75.7102   90.3521 C   0  0  0  0  0  0  0  0  0  0  0  0
   63.7629   75.0990   89.7053 O   0  0  0  0  0  0  0  0  0  0  0  0
   63.1774   74.0240   90.3796 C   0  0  0  0  0  0  0  0  0  0  0  0
   62.0684   74.5513   91.2461 C   0  0  0  0  0  0  0  0  0  0  0  0
   61.9757   73.9339   92.5992 C   0  0  0  0  0  0  0  0  0  0  0  0
   62.2288   72.4472   92.4296 C   0  0  0  0  0  0  0  0  0  0  0  0
   63.6886   72.2699   92.1124 C   0  0  0  0  0  0  0  0  0  0  0  0
   64.1893   73.1791   91.0366 C   0  0  0  0  0  0  0  0  0  0  0  0
   71.6814   77.2790   89.8442 C   0  0  0  0  0  0  0  0  0  0  0  0
   71.5084   78.5642   89.4812 O   0  0  0  0  0  0  0  0  0  0  0  0
   68.5617   79.6462   87.5055 C   0  0  0  0  0  0  0  0  0  0  0  0
   69.4409   78.8398   88.2095 C   0  0  0  0  0  0  0  0  0  0  0  0
   70.6098   79.2911   88.7863 C   0  0  0  0  0  0  0  0  0  0  0  0
   70.8619   80.6766   88.6075 C   0  0  0  0  0  0  0  0  0  0  0  0
   69.9888   81.4650   87.9117 C   0  0  0  0  0  0  0  0  0  0  0  0
   68.8309   80.9819   87.3484 C   0  0  0  0  0  0  0  0  0  0  0  0
   67.9906   81.8399   86.6551 O   0  0  0  0  0  0  0  0  0  0  0  0
   68.2122   82.7465   86.5712 H   0  0  0  0  0  0  0  0  0  0  0  0
   66.7810   78.1501   87.5063 O   0  0  0  0  0  0  0  0  0  0  0  0
   67.3423   79.1094   86.9188 C   0  0  0  0  0  0  0  0  0  0  0  0
   66.7785   79.5924   85.7664 O   0  0  0  0  0  0  0  0  0  0  0  0
   67.1800   80.3068   85.3121 H   0  0  0  0  0  0  0  0  0  0  0  0
 30 31  2  0  0  0
 31 32  1  0  0  0
 31 22  1  0  0  0
 22 23  2  0  0  0
 23 24  1  0  0  0
 24 21  1  0  0  0
 21 20  1  0  0  0
 20  1  1  0  0  0
  1  2  2  0  0  0
  2  3  1  0  0  0
  3  4  2  0  0  0
  4  5  1  0  0  0
  5  7  1  0  0  0
  7  8  2  0  0  0
  8  9  1  0  0  0
  9 10  2  0  0  0
 10 11  1  0  0  0
 11 13  1  0  0  0
 13 14  1  0  0  0
 14 15  1  0  0  0
 15 16  1  0  0  0
 16 17  1  0  0  0
 17 18  1  0  0  0
 18 19  1  0  0  0
 11 12  2  0  0  0
  5  6  2  0  0  0
 24 25  2  0  0  0
 25 26  1  0  0  0
 26 27  2  0  0  0
 27 28  1  0  0  0
 27 22  1  0  0  0
  6  1  1  0  0  0
 12  7  1  0  0  0
 19 14  1  0  0  0
 32 33  1  0  0  0
 28 29  1  0  0  0
M  END
> <Activity>
10.3

> <minimizedAffinity>
-8.83958

$$$$
HIPS7772


 44 48  0  0  0  0  0  0  0  0999 V2000
   69.0203   76.6058   91.0389 C   0  0  0  0  0  0  0  0  0  0  0  0
   69.3337   75.3725   91.6312 C   0  0  0  0  0  0  0  0  0  0  0  0
   69.4552   75.2716   93.0185 C   0  0  0  0  0  0  0  0  0  0  0  0
   69.2534   76.3932   93.8272 C   0  0  0  0  0  0  0  0  0  0  0  0
   68.9218   77.6346   93.2542 C   0  0  0  0  0  0  0  0  0  0  0  0
   68.8031   77.7252   91.8553 C   0  0  0  0  0  0  0  0  0  0  0  0
   68.6827   78.8246   94.1068 C   0  0  0  0  0  0  0  0  0  0  0  0
   68.4080   78.6755   95.4321 N   0  0  0  0  0  0  0  0  0  0  0  0
   68.2105   79.7499   96.2372 C   0  0  0  0  0  0  0  0  0  0  0  0
   68.3039   81.0433   95.7147 C   0  0  0  0  0  0  0  0  0  0  0  0
   68.5628   81.1799   94.3468 C   0  0  0  0  0  0  0  0  0  0  0  0
   68.7503   80.0770   93.5771 N   0  0  0  0  0  0  0  0  0  0  0  0
   68.1292   82.2522   96.5947 C   0  0  0  0  0  0  0  0  0  0  0  0
   66.7695   82.3836   97.0123 O   0  0  0  0  0  0  0  0  0  0  0  0
   65.8826   83.3890   96.5916 C   0  0  0  0  0  0  0  0  0  0  0  0
   66.4191   84.5304   95.9920 C   0  0  0  0  0  0  0  0  0  0  0  0
   65.5875   85.5675   95.5702 C   0  0  0  0  0  0  0  0  0  0  0  0
   64.2017   85.4824   95.7365 C   0  0  0  0  0  0  0  0  0  0  0  0
   63.4195   86.5239   95.2337 O   0  0  0  0  0  0  0  0  0  0  0  0
   63.6407   84.3459   96.3665 C   0  0  0  0  0  0  0  0  0  0  0  0
   64.4882   83.2945   96.7619 C   0  0  0  0  0  0  0  0  0  0  0  0
   63.8280   87.2604   94.8229 H   0  0  0  0  0  0  0  0  0  0  0  0
   62.1963   84.2433   96.6630 C   0  0  0  0  0  0  0  0  0  0  0  0
   61.4638   85.2662   96.5934 O   0  0  0  0  0  0  0  0  0  0  0  0
   61.6229   83.0117   96.9633 O   0  0  0  0  0  0  0  0  0  0  0  0
   62.1597   82.2457   97.0172 H   0  0  0  0  0  0  0  0  0  0  0  0
   70.0038   78.7703   89.3878 O   0  0  0  0  0  0  0  0  0  0  0  0
   69.2905   77.8756   88.8594 C   0  0  0  0  0  0  0  0  0  0  0  0
   68.8557   76.7358   89.6185 N   0  0  0  0  0  0  0  0  0  0  0  0
   68.4180   75.9985   89.1349 H   0  0  0  0  0  0  0  0  0  0  0  0
   68.8171   78.0542   87.4443 C   0  0  0  0  0  0  0  0  0  0  0  0
   67.3722   78.5704   87.3894 C   0  0  0  0  0  0  0  0  0  0  0  0
   66.5820   78.2144   88.6155 C   0  0  0  0  0  0  0  0  0  0  0  0
   66.3746   79.0742   89.6352 N   0  0  0  0  0  0  0  0  0  0  0  0
   65.6373   78.3588   90.5056 C   0  0  0  0  0  0  0  0  0  0  0  0
   65.4230   77.0980   89.9817 C   0  0  0  0  0  0  0  0  0  0  0  0
   66.0101   77.0474   88.8109 O   0  0  0  0  0  0  0  0  0  0  0  0
   64.6858   75.9703   90.5945 C   0  0  0  0  0  0  0  0  0  0  0  0
   63.2948   76.0299   90.8015 C   0  0  0  0  0  0  0  0  0  0  0  0
   62.6195   74.9524   91.3821 C   0  0  0  0  0  0  0  0  0  0  0  0
   63.3226   73.8073   91.7666 C   0  0  0  0  0  0  0  0  0  0  0  0
   62.4699   72.4615   92.4994 Cl  0  0  0  0  0  0  0  0  0  0  0  0
   64.7051   73.7411   91.5735 C   0  0  0  0  0  0  0  0  0  0  0  0
   65.3837   74.8143   90.9873 C   0  0  0  0  0  0  0  0  0  0  0  0
 27 28  2  0  0  0
 28 31  1  0  0  0
 31 32  1  0  0  0
 32 33  1  0  0  0
 33 34  2  0  0  0
 34 35  2  0  0  0
 35 36  2  0  0  0
 36 38  1  0  0  0
 38 39  2  0  0  0
 39 40  1  0  0  0
 40 41  2  0  0  0
 41 42  1  0  0  0
 41 43  1  0  0  0
 43 44  2  0  0  0
 36 37  1  0  0  0
 28 29  1  0  0  0
 29  1  1  0  0  0
  1  2  2  0  0  0
  2  3  1  0  0  0
  3  4  2  0  0  0
  4  5  1  0  0  0
  5  7  1  0  0  0
  7  8  2  0  0  0
  8  9  2  0  0  0
  9 10  2  0  0  0
 10 13  1  0  0  0
 13 14  1  0  0  0
 14 15  1  0  0  0
 15 16  2  0  0  0
 16 17  1  0  0  0
 17 18  2  0  0  0
 18 19  1  0  0  0
 18 20  1  0  0  0
 20 23  1  0  0  0
 23 24  2  0  0  0
 23 25  1  0  0  0
 20 21  2  0  0  0
 10 11  1  0  0  0
 11 12  2  0  0  0
  5  6  2  0  0  0
 37 33  1  0  0  0
  6  1  1  0  0  0
 44 38  1  0  0  0
 12  7  2  0  0  0
 21 15  1  0  0  0
 29 30  1  0  0  0
 19 22  1  0  0  0
 25 26  1  0  0  0
M  END
> <Activity>
11.5

> <minimizedAffinity>
-9.44854

$$$$
HIPS7772


 44 48  0  0  0  0  0  0  0  0999 V2000
   66.6266   77.3754   89.8454 C   0  0  0  0  0  0  0  0  0  0  0  0
   67.7556   76.6803   89.3849 C   0  0  0  0  0  0  0  0  0  0  0  0
   68.9730   76.7950   90.0590 C   0  0  0  0  0  0  0  0  0  0  0  0
   69.0730   77.5914   91.2029 C   0  0  0  0  0  0  0  0  0  0  0  0
   67.9488   78.2826   91.6904 C   0  0  0  0  0  0  0  0  0  0  0  0
   66.7276   78.1609   91.0029 C   0  0  0  0  0  0  0  0  0  0  0  0
   68.0405   79.1112   92.9174 C   0  0  0  0  0  0  0  0  0  0  0  0
   68.6915   78.6402   94.0167 N   0  0  0  0  0  0  0  0  0  0  0  0
   68.8101   79.3896   95.1418 C   0  0  0  0  0  0  0  0  0  0  0  0
   68.2731   80.6798   95.1838 C   0  0  0  0  0  0  0  0  0  0  0  0
   67.5865   81.1405   94.0555 C   0  0  0  0  0  0  0  0  0  0  0  0
   67.4886   80.3554   92.9519 N   0  0  0  0  0  0  0  0  0  0  0  0
   68.4261   81.5467   96.4051 C   0  0  0  0  0  0  0  0  0  0  0  0
   67.1496   81.8928   96.9447 O   0  0  0  0  0  0  0  0  0  0  0  0
   66.4464   83.0790   96.6745 C   0  0  0  0  0  0  0  0  0  0  0  0
   67.1820   84.2507   96.4847 C   0  0  0  0  0  0  0  0  0  0  0  0
   66.5360   85.4602   96.2300 C   0  0  0  0  0  0  0  0  0  0  0  0
   65.1409   85.5216   96.1566 C   0  0  0  0  0  0  0  0  0  0  0  0
   64.5583   86.7485   95.8335 O   0  0  0  0  0  0  0  0  0  0  0  0
   64.3764   84.3502   96.3730 C   0  0  0  0  0  0  0  0  0  0  0  0
   65.0414   83.1313   96.6012 C   0  0  0  0  0  0  0  0  0  0  0  0
   65.0982   87.5022   95.6976 H   0  0  0  0  0  0  0  0  0  0  0  0
   62.8989   84.3707   96.4103 C   0  0  0  0  0  0  0  0  0  0  0  0
   62.2704   83.4602   97.0134 O   0  0  0  0  0  0  0  0  0  0  0  0
   62.1925   85.4213   95.8333 O   0  0  0  0  0  0  0  0  0  0  0  0
   62.6514   86.1028   95.3828 H   0  0  0  0  0  0  0  0  0  0  0  0
   64.0287   77.5645   91.1076 O   0  0  0  0  0  0  0  0  0  0  0  0
   64.0922   77.2693   89.8839 C   0  0  0  0  0  0  0  0  0  0  0  0
   65.3527   77.2528   89.1945 N   0  0  0  0  0  0  0  0  0  0  0  0
   65.3422   77.1511   88.2154 H   0  0  0  0  0  0  0  0  0  0  0  0
   62.8432   76.8425   89.1655 C   0  0  0  0  0  0  0  0  0  0  0  0
   62.7286   75.3136   89.0847 C   0  0  0  0  0  0  0  0  0  0  0  0
   63.5086   74.6157   90.1611 C   0  0  0  0  0  0  0  0  0  0  0  0
   62.9318   73.8526   91.1136 N   0  0  0  0  0  0  0  0  0  0  0  0
   63.9742   73.4334   91.8556 C   0  0  0  0  0  0  0  0  0  0  0  0
   65.1400   73.9529   91.3254 C   0  0  0  0  0  0  0  0  0  0  0  0
   64.8168   74.6677   90.2754 O   0  0  0  0  0  0  0  0  0  0  0  0
   66.5235   73.7774   91.8213 C   0  0  0  0  0  0  0  0  0  0  0  0
   67.1456   74.7553   92.6199 C   0  0  0  0  0  0  0  0  0  0  0  0
   68.4534   74.5678   93.0769 C   0  0  0  0  0  0  0  0  0  0  0  0
   69.1561   73.4077   92.7396 C   0  0  0  0  0  0  0  0  0  0  0  0
   70.7983   73.1816   93.3117 Cl  0  0  0  0  0  0  0  0  0  0  0  0
   68.5508   72.4344   91.9401 C   0  0  0  0  0  0  0  0  0  0  0  0
   67.2406   72.6150   91.4859 C   0  0  0  0  0  0  0  0  0  0  0  0
 27 28  2  0  0  0
 28 31  1  0  0  0
 31 32  1  0  0  0
 32 33  1  0  0  0
 33 34  2  0  0  0
 34 35  2  0  0  0
 35 36  2  0  0  0
 36 38  1  0  0  0
 38 39  2  0  0  0
 39 40  1  0  0  0
 40 41  2  0  0  0
 41 42  1  0  0  0
 41 43  1  0  0  0
 43 44  2  0  0  0
 36 37  1  0  0  0
 28 29  1  0  0  0
 29  1  1  0  0  0
  1  2  2  0  0  0
  2  3  1  0  0  0
  3  4  2  0  0  0
  4  5  1  0  0  0
  5  7  1  0  0  0
  7  8  2  0  0  0
  8  9  2  0  0  0
  9 10  2  0  0  0
 10 13  1  0  0  0
 13 14  1  0  0  0
 14 15  1  0  0  0
 15 16  2  0  0  0
 16 17  1  0  0  0
 17 18  2  0  0  0
 18 19  1  0  0  0
 18 20  1  0  0  0
 20 23  1  0  0  0
 23 24  2  0  0  0
 23 25  1  0  0  0
 20 21  2  0  0  0
 10 11  1  0  0  0
 11 12  2  0  0  0
  5  6  2  0  0  0
 37 33  1  0  0  0
  6  1  1  0  0  0
 44 38  1  0  0  0
 12  7  2  0  0  0
 21 15  1  0  0  0
 29 30  1  0  0  0
 19 22  1  0  0  0
 25 26  1  0  0  0
M  END
> <Activity>
11.5

> <minimizedAffinity>
-8.46263

$$$$
HIPS7772


 44 48  0  0  0  0  0  0  0  0999 V2000
   68.1381   73.9719   92.2767 C   0  0  0  0  0  0  0  0  0  0  0  0
   69.1042   73.0983   92.7996 C   0  0  0  0  0  0  0  0  0  0  0  0
   70.4625   73.3595   92.6088 C   0  0  0  0  0  0  0  0  0  0  0  0
   70.8697   74.4978   91.9080 C   0  0  0  0  0  0  0  0  0  0  0  0
   69.9173   75.3948   91.3906 C   0  0  0  0  0  0  0  0  0  0  0  0
   68.5515   75.1213   91.5876 C   0  0  0  0  0  0  0  0  0  0  0  0
   70.3414   76.6176   90.6659 C   0  0  0  0  0  0  0  0  0  0  0  0
   69.6785   77.7920   90.8544 N   0  0  0  0  0  0  0  0  0  0  0  0
   70.0634   78.9292   90.2219 C   0  0  0  0  0  0  0  0  0  0  0  0
   71.1712   78.9156   89.3691 C   0  0  0  0  0  0  0  0  0  0  0  0
   71.8273   77.6969   89.1669 C   0  0  0  0  0  0  0  0  0  0  0  0
   71.4058   76.5820   89.8176 N   0  0  0  0  0  0  0  0  0  0  0  0
   71.6433   80.1721   88.6872 C   0  0  0  0  0  0  0  0  0  0  0  0
   70.5365   81.0001   88.3267 O   0  0  0  0  0  0  0  0  0  0  0  0
   69.4417   80.5991   87.5424 C   0  0  0  0  0  0  0  0  0  0  0  0
   68.8378   81.5525   86.7199 C   0  0  0  0  0  0  0  0  0  0  0  0
   67.7374   81.2149   85.9323 C   0  0  0  0  0  0  0  0  0  0  0  0
   67.2208   79.9155   85.9490 C   0  0  0  0  0  0  0  0  0  0  0  0
   66.1602   79.6245   85.0890 O   0  0  0  0  0  0  0  0  0  0  0  0
   67.8019   78.9420   86.7963 C   0  0  0  0  0  0  0  0  0  0  0  0
   68.9288   79.2882   87.5645 C   0  0  0  0  0  0  0  0  0  0  0  0
   65.8020   80.2964   84.5429 H   0  0  0  0  0  0  0  0  0  0  0  0
   67.2385   77.5825   86.9350 C   0  0  0  0  0  0  0  0  0  0  0  0
   67.5895   76.8493   87.8978 O   0  0  0  0  0  0  0  0  0  0  0  0
   66.2758   77.1227   86.0420 O   0  0  0  0  0  0  0  0  0  0  0  0
   66.0085   77.6609   85.3231 H   0  0  0  0  0  0  0  0  0  0  0  0
   66.3919   72.3653   90.6190 O   0  0  0  0  0  0  0  0  0  0  0  0
   65.8955   73.0118   91.5804 C   0  0  0  0  0  0  0  0  0  0  0  0
   66.7348   73.7495   92.4835 N   0  0  0  0  0  0  0  0  0  0  0  0
   66.3222   74.1258   93.2943 H   0  0  0  0  0  0  0  0  0  0  0  0
   64.4013   73.0819   91.7247 C   0  0  0  0  0  0  0  0  0  0  0  0
   63.7784   74.0583   90.7168 C   0  0  0  0  0  0  0  0  0  0  0  0
   64.4443   75.4040   90.7251 C   0  0  0  0  0  0  0  0  0  0  0  0
   64.3307   76.2898   89.7130 N   0  0  0  0  0  0  0  0  0  0  0  0
   65.0720   77.3357   90.1249 C   0  0  0  0  0  0  0  0  0  0  0  0
   65.6024   77.0476   91.3681 C   0  0  0  0  0  0  0  0  0  0  0  0
   65.1862   75.8534   91.7125 O   0  0  0  0  0  0  0  0  0  0  0  0
   66.4939   77.8909   92.1957 C   0  0  0  0  0  0  0  0  0  0  0  0
   67.3675   77.3245   93.1429 C   0  0  0  0  0  0  0  0  0  0  0  0
   68.2006   78.1409   93.9134 C   0  0  0  0  0  0  0  0  0  0  0  0
   68.1688   79.5289   93.7520 C   0  0  0  0  0  0  0  0  0  0  0  0
   69.2127   80.5474   94.7258 Cl  0  0  0  0  0  0  0  0  0  0  0  0
   67.2991   80.1021   92.8204 C   0  0  0  0  0  0  0  0  0  0  0  0
   66.4684   79.2887   92.0432 C   0  0  0  0  0  0  0  0  0  0  0  0
 27 28  2  0  0  0
 28 31  1  0  0  0
 31 32  1  0  0  0
 32 33  1  0  0  0
 33 34  2  0  0  0
 34 35  2  0  0  0
 35 36  2  0  0  0
 36 38  1  0  0  0
 38 39  2  0  0  0
 39 40  1  0  0  0
 40 41  2  0  0  0
 41 42  1  0  0  0
 41 43  1  0  0  0
 43 44  2  0  0  0
 36 37  1  0  0  0
 28 29  1  0  0  0
 29  1  1  0  0  0
  1  2  2  0  0  0
  2  3  1  0  0  0
  3  4  2  0  0  0
  4  5  1  0  0  0
  5  7  1  0  0  0
  7  8  2  0  0  0
  8  9  2  0  0  0
  9 10  2  0  0  0
 10 13  1  0  0  0
 13 14  1  0  0  0
 14 15  1  0  0  0
 15 16  2  0  0  0
 16 17  1  0  0  0
 17 18  2  0  0  0
 18 19  1  0  0  0
 18 20  1  0  0  0
 20 23  1  0  0  0
 23 24  2  0  0  0
 23 25  1  0  0  0
 20 21  2  0  0  0
 10 11  1  0  0  0
 11 12  2  0  0  0
  5  6  2  0  0  0
 37 33  1  0  0  0
  6  1  1  0  0  0
 44 38  1  0  0  0
 12  7  2  0  0  0
 21 15  1  0  0  0
 29 30  1  0  0  0
 19 22  1  0  0  0
 25 26  1  0  0  0
M  END
> <Activity>
11.5

> <minimizedAffinity>
-7.84774

$$$$
HIPS7772


 44 48  0  0  0  0  0  0  0  0999 V2000
   69.5144   80.7590   87.1646 C   0  0  0  0  0  0  0  0  0  0  0  0
   68.9875   81.1775   85.9329 C   0  0  0  0  0  0  0  0  0  0  0  0
   67.7612   80.6788   85.4889 C   0  0  0  0  0  0  0  0  0  0  0  0
   67.0444   79.7705   86.2722 C   0  0  0  0  0  0  0  0  0  0  0  0
   67.5471   79.3515   87.5177 C   0  0  0  0  0  0  0  0  0  0  0  0
   68.7841   79.8594   87.9548 C   0  0  0  0  0  0  0  0  0  0  0  0
   66.7815   78.4059   88.3661 C   0  0  0  0  0  0  0  0  0  0  0  0
   66.6707   77.0970   88.0074 N   0  0  0  0  0  0  0  0  0  0  0  0
   65.9968   76.2080   88.7802 C   0  0  0  0  0  0  0  0  0  0  0  0
   65.4128   76.6247   89.9802 C   0  0  0  0  0  0  0  0  0  0  0  0
   65.5144   77.9770   90.3232 C   0  0  0  0  0  0  0  0  0  0  0  0
   66.1952   78.8330   89.5184 N   0  0  0  0  0  0  0  0  0  0  0  0
   64.6946   75.6502   90.8752 C   0  0  0  0  0  0  0  0  0  0  0  0
   65.6084   75.0167   91.7720 O   0  0  0  0  0  0  0  0  0  0  0  0
   66.7449   75.6203   92.3365 C   0  0  0  0  0  0  0  0  0  0  0  0
   67.6280   74.8139   93.0577 C   0  0  0  0  0  0  0  0  0  0  0  0
   68.7634   75.3622   93.6537 C   0  0  0  0  0  0  0  0  0  0  0  0
   69.0404   76.7279   93.5376 C   0  0  0  0  0  0  0  0  0  0  0  0
   70.2263   77.2028   94.1008 O   0  0  0  0  0  0  0  0  0  0  0  0
   68.1435   77.5667   92.8338 C   0  0  0  0  0  0  0  0  0  0  0  0
   67.0166   76.9962   92.2135 C   0  0  0  0  0  0  0  0  0  0  0  0
   70.7948   76.6162   94.5597 H   0  0  0  0  0  0  0  0  0  0  0  0
   68.3270   79.0317   92.7636 C   0  0  0  0  0  0  0  0  0  0  0  0
   68.3267   79.7189   93.8198 O   0  0  0  0  0  0  0  0  0  0  0  0
   68.5592   79.6565   91.5423 O   0  0  0  0  0  0  0  0  0  0  0  0
   68.5613   79.1536   90.7517 H   0  0  0  0  0  0  0  0  0  0  0  0
   70.0123   81.7356   89.8435 O   0  0  0  0  0  0  0  0  0  0  0  0
   70.9258   81.8299   88.9803 C   0  0  0  0  0  0  0  0  0  0  0  0
   70.7563   81.2777   87.6648 N   0  0  0  0  0  0  0  0  0  0  0  0
   71.5401   81.2534   87.0695 H   0  0  0  0  0  0  0  0  0  0  0  0
   72.1683   82.6093   89.3079 C   0  0  0  0  0  0  0  0  0  0  0  0
   73.4347   81.8903   88.8217 C   0  0  0  0  0  0  0  0  0  0  0  0
   73.3512   80.3993   88.9774 C   0  0  0  0  0  0  0  0  0  0  0  0
   74.4203   79.5838   88.8581 N   0  0  0  0  0  0  0  0  0  0  0  0
   73.9055   78.3570   89.0648 C   0  0  0  0  0  0  0  0  0  0  0  0
   72.5494   78.4740   89.3044 C   0  0  0  0  0  0  0  0  0  0  0  0
   72.2439   79.7476   89.2537 O   0  0  0  0  0  0  0  0  0  0  0  0
   71.5733   77.3917   89.5621 C   0  0  0  0  0  0  0  0  0  0  0  0
   71.7977   76.4242   90.5595 C   0  0  0  0  0  0  0  0  0  0  0  0
   70.8615   75.4110   90.7851 C   0  0  0  0  0  0  0  0  0  0  0  0
   69.6953   75.3481   90.0173 C   0  0  0  0  0  0  0  0  0  0  0  0
   68.5277   74.0710   90.3021 Cl  0  0  0  0  0  0  0  0  0  0  0  0
   69.4667   76.2986   89.0187 C   0  0  0  0  0  0  0  0  0  0  0  0
   70.3977   77.3175   88.7938 C   0  0  0  0  0  0  0  0  0  0  0  0
 27 28  2  0  0  0
 28 31  1  0  0  0
 31 32  1  0  0  0
 32 33  1  0  0  0
 33 34  2  0  0  0
 34 35  2  0  0  0
 35 36  2  0  0  0
 36 38  1  0  0  0
 38 39  2  0  0  0
 39 40  1  0  0  0
 40 41  2  0  0  0
 41 42  1  0  0  0
 41 43  1  0  0  0
 43 44  2  0  0  0
 36 37  1  0  0  0
 28 29  1  0  0  0
 29  1  1  0  0  0
  1  2  2  0  0  0
  2  3  1  0  0  0
  3  4  2  0  0  0
  4  5  1  0  0  0
  5  7  1  0  0  0
  7  8  2  0  0  0
  8  9  2  0  0  0
  9 10  2  0  0  0
 10 13  1  0  0  0
 13 14  1  0  0  0
 14 15  1  0  0  0
 15 16  2  0  0  0
 16 17  1  0  0  0
 17 18  2  0  0  0
 18 19  1  0  0  0
 18 20  1  0  0  0
 20 23  1  0  0  0
 23 24  2  0  0  0
 23 25  1  0  0  0
 20 21  2  0  0  0
 10 11  1  0  0  0
 11 12  2  0  0  0
  5  6  2  0  0  0
 37 33  1  0  0  0
  6  1  1  0  0  0
 44 38  1  0  0  0
 12  7  2  0  0  0
 21 15  1  0  0  0
 29 30  1  0  0  0
 19 22  1  0  0  0
 25 26  1  0  0  0
M  END
> <Activity>
11.5

> <minimizedAffinity>
-7.44123

$$$$
HIPS7772


 44 48  0  0  0  0  0  0  0  0999 V2000
   63.7567   75.1626   88.9793 C   0  0  0  0  0  0  0  0  0  0  0  0
   63.3471   75.6188   87.7168 C   0  0  0  0  0  0  0  0  0  0  0  0
   64.2506   76.2814   86.8836 C   0  0  0  0  0  0  0  0  0  0  0  0
   65.5708   76.4837   87.2947 C   0  0  0  0  0  0  0  0  0  0  0  0
   66.0055   76.0190   88.5494 C   0  0  0  0  0  0  0  0  0  0  0  0
   65.0866   75.3537   89.3814 C   0  0  0  0  0  0  0  0  0  0  0  0
   67.4112   76.2086   88.9837 C   0  0  0  0  0  0  0  0  0  0  0  0
   68.2703   75.1525   89.0089 N   0  0  0  0  0  0  0  0  0  0  0  0
   69.5669   75.3060   89.3783 C   0  0  0  0  0  0  0  0  0  0  0  0
   70.0507   76.5705   89.7273 C   0  0  0  0  0  0  0  0  0  0  0  0
   69.1505   77.6411   89.7199 C   0  0  0  0  0  0  0  0  0  0  0  0
   67.8602   77.4416   89.3468 N   0  0  0  0  0  0  0  0  0  0  0  0
   71.4945   76.7748   90.1017 C   0  0  0  0  0  0  0  0  0  0  0  0
   72.1950   77.4635   89.0646 O   0  0  0  0  0  0  0  0  0  0  0  0
   72.3800   78.8546   88.9925 C   0  0  0  0  0  0  0  0  0  0  0  0
   73.6853   79.3400   88.8890 C   0  0  0  0  0  0  0  0  0  0  0  0
   73.9293   80.7118   88.8308 C   0  0  0  0  0  0  0  0  0  0  0  0
   72.8721   81.6262   88.8715 C   0  0  0  0  0  0  0  0  0  0  0  0
   73.1778   82.9824   88.7428 O   0  0  0  0  0  0  0  0  0  0  0  0
   71.5440   81.1553   89.0036 C   0  0  0  0  0  0  0  0  0  0  0  0
   71.3094   79.7682   89.0331 C   0  0  0  0  0  0  0  0  0  0  0  0
   74.0700   83.2555   88.6575 H   0  0  0  0  0  0  0  0  0  0  0  0
   70.3952   82.0729   89.1553 C   0  0  0  0  0  0  0  0  0  0  0  0
   69.5814   82.2273   88.2057 O   0  0  0  0  0  0  0  0  0  0  0  0
   70.1687   82.7272   90.3621 O   0  0  0  0  0  0  0  0  0  0  0  0
   70.7684   82.6184   91.0738 H   0  0  0  0  0  0  0  0  0  0  0  0
   62.7685   76.0649   91.5459 O   0  0  0  0  0  0  0  0  0  0  0  0
   62.4699   74.9060   91.1506 C   0  0  0  0  0  0  0  0  0  0  0  0
   62.8617   74.4489   89.8460 N   0  0  0  0  0  0  0  0  0  0  0  0
   62.4936   73.5934   89.5266 H   0  0  0  0  0  0  0  0  0  0  0  0
   61.7750   73.9645   92.0935 C   0  0  0  0  0  0  0  0  0  0  0  0
   62.5588   72.6563   92.2704 C   0  0  0  0  0  0  0  0  0  0  0  0
   64.0204   72.8096   91.9634 C   0  0  0  0  0  0  0  0  0  0  0  0
   64.6816   72.0083   91.1015 N   0  0  0  0  0  0  0  0  0  0  0  0
   65.9400   72.4864   91.1287 C   0  0  0  0  0  0  0  0  0  0  0  0
   65.9941   73.5579   91.9999 C   0  0  0  0  0  0  0  0  0  0  0  0
   64.7908   73.7361   92.4881 O   0  0  0  0  0  0  0  0  0  0  0  0
   67.1712   74.3788   92.3620 C   0  0  0  0  0  0  0  0  0  0  0  0
   68.4326   73.7945   92.5826 C   0  0  0  0  0  0  0  0  0  0  0  0
   69.5304   74.5899   92.9237 C   0  0  0  0  0  0  0  0  0  0  0  0
   69.3823   75.9737   93.0532 C   0  0  0  0  0  0  0  0  0  0  0  0
   70.7625   76.9649   93.4868 Cl  0  0  0  0  0  0  0  0  0  0  0  0
   68.1325   76.5630   92.8448 C   0  0  0  0  0  0  0  0  0  0  0  0
   67.0330   75.7718   92.4973 C   0  0  0  0  0  0  0  0  0  0  0  0
 27 28  2  0  0  0
 28 31  1  0  0  0
 31 32  1  0  0  0
 32 33  1  0  0  0
 33 34  2  0  0  0
 34 35  2  0  0  0
 35 36  2  0  0  0
 36 38  1  0  0  0
 38 39  2  0  0  0
 39 40  1  0  0  0
 40 41  2  0  0  0
 41 42  1  0  0  0
 41 43  1  0  0  0
 43 44  2  0  0  0
 36 37  1  0  0  0
 28 29  1  0  0  0
 29  1  1  0  0  0
  1  2  2  0  0  0
  2  3  1  0  0  0
  3  4  2  0  0  0
  4  5  1  0  0  0
  5  7  1  0  0  0
  7  8  2  0  0  0
  8  9  2  0  0  0
  9 10  2  0  0  0
 10 13  1  0  0  0
 13 14  1  0  0  0
 14 15  1  0  0  0
 15 16  2  0  0  0
 16 17  1  0  0  0
 17 18  2  0  0  0
 18 19  1  0  0  0
 18 20  1  0  0  0
 20 23  1  0  0  0
 23 24  2  0  0  0
 23 25  1  0  0  0
 20 21  2  0  0  0
 10 11  1  0  0  0
 11 12  2  0  0  0
  5  6  2  0  0  0
 37 33  1  0  0  0
  6  1  1  0  0  0
 44 38  1  0  0  0
 12  7  2  0  0  0
 21 15  1  0  0  0
 29 30  1  0  0  0
 19 22  1  0  0  0
 25 26  1  0  0  0
M  END
> <Activity>
11.5

> <minimizedAffinity>
-7.29804

$$$$
HIPS7772


 44 48  0  0  0  0  0  0  0  0999 V2000
   65.9805   77.6757   89.6661 C   0  0  0  0  0  0  0  0  0  0  0  0
   67.0245   77.5590   88.7353 C   0  0  0  0  0  0  0  0  0  0  0  0
   68.2897   78.0693   89.0331 C   0  0  0  0  0  0  0  0  0  0  0  0
   68.5289   78.6875   90.2632 C   0  0  0  0  0  0  0  0  0  0  0  0
   67.5002   78.7992   91.2165 C   0  0  0  0  0  0  0  0  0  0  0  0
   66.2291   78.2827   90.9057 C   0  0  0  0  0  0  0  0  0  0  0  0
   67.7518   79.4328   92.5340 C   0  0  0  0  0  0  0  0  0  0  0  0
   68.6025   78.8513   93.4241 N   0  0  0  0  0  0  0  0  0  0  0  0
   68.8677   79.4248   94.6250 C   0  0  0  0  0  0  0  0  0  0  0  0
   68.2767   80.6457   94.9639 C   0  0  0  0  0  0  0  0  0  0  0  0
   67.3866   81.2186   94.0495 C   0  0  0  0  0  0  0  0  0  0  0  0
   67.1472   80.6083   92.8603 N   0  0  0  0  0  0  0  0  0  0  0  0
   68.5856   81.3227   96.2726 C   0  0  0  0  0  0  0  0  0  0  0  0
   67.3857   81.5983   96.9969 O   0  0  0  0  0  0  0  0  0  0  0  0
   66.5515   82.7111   96.7964 C   0  0  0  0  0  0  0  0  0  0  0  0
   65.1810   82.5532   97.0131 C   0  0  0  0  0  0  0  0  0  0  0  0
   64.3039   83.6190   96.8135 C   0  0  0  0  0  0  0  0  0  0  0  0
   64.7805   84.8657   96.3962 C   0  0  0  0  0  0  0  0  0  0  0  0
   63.8604   85.9092   96.2782 O   0  0  0  0  0  0  0  0  0  0  0  0
   66.1626   85.0385   96.1449 C   0  0  0  0  0  0  0  0  0  0  0  0
   67.0401   83.9632   96.3772 C   0  0  0  0  0  0  0  0  0  0  0  0
   62.9528   85.7556   96.4530 H   0  0  0  0  0  0  0  0  0  0  0  0
   66.7125   86.2996   95.6047 C   0  0  0  0  0  0  0  0  0  0  0  0
   65.9967   87.3360   95.5693 O   0  0  0  0  0  0  0  0  0  0  0  0
   68.0375   86.3701   95.1861 O   0  0  0  0  0  0  0  0  0  0  0  0
   68.5773   85.6045   95.2088 H   0  0  0  0  0  0  0  0  0  0  0  0
   63.7798   77.5140   91.5394 O   0  0  0  0  0  0  0  0  0  0  0  0
   63.6475   76.9983   90.3969 C   0  0  0  0  0  0  0  0  0  0  0  0
   64.6774   77.1326   89.4042 N   0  0  0  0  0  0  0  0  0  0  0  0
   64.4773   76.8338   88.4877 H   0  0  0  0  0  0  0  0  0  0  0  0
   62.4362   76.1577   90.1063 C   0  0  0  0  0  0  0  0  0  0  0  0
   62.8136   74.6977   89.8179 C   0  0  0  0  0  0  0  0  0  0  0  0
   64.0785   74.2781   90.5095 C   0  0  0  0  0  0  0  0  0  0  0  0
   64.1504   73.2105   91.3324 N   0  0  0  0  0  0  0  0  0  0  0  0
   65.4380   73.2021   91.7260 C   0  0  0  0  0  0  0  0  0  0  0  0
   66.0972   74.2586   91.1266 C   0  0  0  0  0  0  0  0  0  0  0  0
   65.2316   74.8942   90.3751 O   0  0  0  0  0  0  0  0  0  0  0  0
   67.5153   74.6532   91.2817 C   0  0  0  0  0  0  0  0  0  0  0  0
   68.0578   74.9568   92.5445 C   0  0  0  0  0  0  0  0  0  0  0  0
   69.4003   75.3272   92.6668 C   0  0  0  0  0  0  0  0  0  0  0  0
   70.2142   75.4036   91.5332 C   0  0  0  0  0  0  0  0  0  0  0  0
   71.8959   75.8742   91.6932 Cl  0  0  0  0  0  0  0  0  0  0  0  0
   69.6834   75.1125   90.2736 C   0  0  0  0  0  0  0  0  0  0  0  0
   68.3426   74.7355   90.1475 C   0  0  0  0  0  0  0  0  0  0  0  0
 27 28  2  0  0  0
 28 31  1  0  0  0
 31 32  1  0  0  0
 32 33  1  0  0  0
 33 34  2  0  0  0
 34 35  2  0  0  0
 35 36  2  0  0  0
 36 38  1  0  0  0
 38 39  2  0  0  0
 39 40  1  0  0  0
 40 41  2  0  0  0
 41 42  1  0  0  0
 41 43  1  0  0  0
 43 44  2  0  0  0
 36 37  1  0  0  0
 28 29  1  0  0  0
 29  1  1  0  0  0
  1  2  2  0  0  0
  2  3  1  0  0  0
  3  4  2  0  0  0
  4  5  1  0  0  0
  5  7  1  0  0  0
  7  8  2  0  0  0
  8  9  2  0  0  0
  9 10  2  0  0  0
 10 13  1  0  0  0
 13 14  1  0  0  0
 14 15  1  0  0  0
 15 16  2  0  0  0
 16 17  1  0  0  0
 17 18  2  0  0  0
 18 19  1  0  0  0
 18 20  1  0  0  0
 20 23  1  0  0  0
 23 24  2  0  0  0
 23 25  1  0  0  0
 20 21  2  0  0  0
 10 11  1  0  0  0
 11 12  2  0  0  0
  5  6  2  0  0  0
 37 33  1  0  0  0
  6  1  1  0  0  0
 44 38  1  0  0  0
 12  7  2  0  0  0
 21 15  1  0  0  0
 29 30  1  0  0  0
 19 22  1  0  0  0
 25 26  1  0  0  0
M  END
> <Activity>
11.5

> <minimizedAffinity>
-6.76216

$$$$
HIPS7772


 44 48  0  0  0  0  0  0  0  0999 V2000
   65.8303   77.8009   90.1259 C   0  0  0  0  0  0  0  0  0  0  0  0
   65.5109   78.2704   91.4094 C   0  0  0  0  0  0  0  0  0  0  0  0
   66.5018   78.8308   92.2179 C   0  0  0  0  0  0  0  0  0  0  0  0
   67.8143   78.9399   91.7509 C   0  0  0  0  0  0  0  0  0  0  0  0
   68.1514   78.4908   90.4609 C   0  0  0  0  0  0  0  0  0  0  0  0
   67.1455   77.9268   89.6553 C   0  0  0  0  0  0  0  0  0  0  0  0
   69.5370   78.6245   89.9486 C   0  0  0  0  0  0  0  0  0  0  0  0
   70.3739   77.5503   89.9442 N   0  0  0  0  0  0  0  0  0  0  0  0
   71.6373   77.6419   89.4575 C   0  0  0  0  0  0  0  0  0  0  0  0
   72.0990   78.8520   88.9310 C   0  0  0  0  0  0  0  0  0  0  0  0
   71.2362   79.9525   88.9645 C   0  0  0  0  0  0  0  0  0  0  0  0
   69.9809   79.8170   89.4642 N   0  0  0  0  0  0  0  0  0  0  0  0
   73.4821   78.9693   88.3481 C   0  0  0  0  0  0  0  0  0  0  0  0
   74.2694   79.8998   89.0930 O   0  0  0  0  0  0  0  0  0  0  0  0
   74.2401   81.2963   88.9399 C   0  0  0  0  0  0  0  0  0  0  0  0
   73.5307   82.0462   89.8804 C   0  0  0  0  0  0  0  0  0  0  0  0
   73.4538   83.4342   89.7688 C   0  0  0  0  0  0  0  0  0  0  0  0
   74.0880   84.1008   88.7158 C   0  0  0  0  0  0  0  0  0  0  0  0
   74.0287   85.4956   88.6972 O   0  0  0  0  0  0  0  0  0  0  0  0
   74.7892   83.3564   87.7372 C   0  0  0  0  0  0  0  0  0  0  0  0
   74.8826   81.9594   87.8771 C   0  0  0  0  0  0  0  0  0  0  0  0
   73.5541   85.9532   89.3630 H   0  0  0  0  0  0  0  0  0  0  0  0
   75.3920   83.9927   86.5471 C   0  0  0  0  0  0  0  0  0  0  0  0
   75.6384   83.3048   85.5205 O   0  0  0  0  0  0  0  0  0  0  0  0
   75.6382   85.3619   86.5269 O   0  0  0  0  0  0  0  0  0  0  0  0
   75.4582   85.8815   87.2856 H   0  0  0  0  0  0  0  0  0  0  0  0
   63.0960   77.1746   90.8397 O   0  0  0  0  0  0  0  0  0  0  0  0
   63.5087   76.8773   89.6865 C   0  0  0  0  0  0  0  0  0  0  0  0
   64.8284   77.2498   89.2575 N   0  0  0  0  0  0  0  0  0  0  0  0
   65.0601   77.1190   88.3096 H   0  0  0  0  0  0  0  0  0  0  0  0
   62.6391   76.0447   88.7871 C   0  0  0  0  0  0  0  0  0  0  0  0
   62.5072   74.6035   89.2997 C   0  0  0  0  0  0  0  0  0  0  0  0
   63.6238   74.2120   90.2239 C   0  0  0  0  0  0  0  0  0  0  0  0
   63.4922   73.2719   91.1836 N   0  0  0  0  0  0  0  0  0  0  0  0
   64.7066   73.2422   91.7643 C   0  0  0  0  0  0  0  0  0  0  0  0
   65.5272   74.1591   91.1353 C   0  0  0  0  0  0  0  0  0  0  0  0
   64.8305   74.7311   90.1837 O   0  0  0  0  0  0  0  0  0  0  0  0
   66.9366   74.4852   91.4482 C   0  0  0  0  0  0  0  0  0  0  0  0
   67.9125   74.5651   90.4370 C   0  0  0  0  0  0  0  0  0  0  0  0
   69.2378   74.8746   90.7562 C   0  0  0  0  0  0  0  0  0  0  0  0
   69.6056   75.1030   92.0851 C   0  0  0  0  0  0  0  0  0  0  0  0
   71.2711   75.4855   92.4790 Cl  0  0  0  0  0  0  0  0  0  0  0  0
   68.6463   75.0177   93.0978 C   0  0  0  0  0  0  0  0  0  0  0  0
   67.3181   74.7144   92.7822 C   0  0  0  0  0  0  0  0  0  0  0  0
 27 28  2  0  0  0
 28 31  1  0  0  0
 31 32  1  0  0  0
 32 33  1  0  0  0
 33 34  2  0  0  0
 34 35  2  0  0  0
 35 36  2  0  0  0
 36 38  1  0  0  0
 38 39  2  0  0  0
 39 40  1  0  0  0
 40 41  2  0  0  0
 41 42  1  0  0  0
 41 43  1  0  0  0
 43 44  2  0  0  0
 36 37  1  0  0  0
 28 29  1  0  0  0
 29  1  1  0  0  0
  1  2  2  0  0  0
  2  3  1  0  0  0
  3  4  2  0  0  0
  4  5  1  0  0  0
  5  7  1  0  0  0
  7  8  2  0  0  0
  8  9  2  0  0  0
  9 10  2  0  0  0
 10 13  1  0  0  0
 13 14  1  0  0  0
 14 15  1  0  0  0
 15 16  2  0  0  0
 16 17  1  0  0  0
 17 18  2  0  0  0
 18 19  1  0  0  0
 18 20  1  0  0  0
 20 23  1  0  0  0
 23 24  2  0  0  0
 23 25  1  0  0  0
 20 21  2  0  0  0
 10 11  1  0  0  0
 11 12  2  0  0  0
  5  6  2  0  0  0
 37 33  1  0  0  0
  6  1  1  0  0  0
 44 38  1  0  0  0
 12  7  2  0  0  0
 21 15  1  0  0  0
 29 30  1  0  0  0
 19 22  1  0  0  0
 25 26  1  0  0  0
M  END
> <Activity>
11.5

> <minimizedAffinity>
-6.69237

$$$$
HIPS7772


 44 48  0  0  0  0  0  0  0  0999 V2000
   69.7490   81.0668   87.2029 C   0  0  0  0  0  0  0  0  0  0  0  0
   69.2385   81.6201   86.0183 C   0  0  0  0  0  0  0  0  0  0  0  0
   68.0008   81.2021   85.5256 C   0  0  0  0  0  0  0  0  0  0  0  0
   67.2563   80.2405   86.2139 C   0  0  0  0  0  0  0  0  0  0  0  0
   67.7426   79.6861   87.4120 C   0  0  0  0  0  0  0  0  0  0  0  0
   68.9914   80.1136   87.8988 C   0  0  0  0  0  0  0  0  0  0  0  0
   66.9481   78.6823   88.1613 C   0  0  0  0  0  0  0  0  0  0  0  0
   66.7432   77.4411   87.6402 N   0  0  0  0  0  0  0  0  0  0  0  0
   66.0412   76.4981   88.3180 C   0  0  0  0  0  0  0  0  0  0  0  0
   65.5254   76.7852   89.5854 C   0  0  0  0  0  0  0  0  0  0  0  0
   65.7234   78.0720   90.0970 C   0  0  0  0  0  0  0  0  0  0  0  0
   66.4291   78.9862   89.3828 N   0  0  0  0  0  0  0  0  0  0  0  0
   64.7780   75.7440   90.3751 C   0  0  0  0  0  0  0  0  0  0  0  0
   65.1847   75.7570   91.7444 O   0  0  0  0  0  0  0  0  0  0  0  0
   66.5132   75.8200   92.1981 C   0  0  0  0  0  0  0  0  0  0  0  0
   67.0796   77.0801   92.4015 C   0  0  0  0  0  0  0  0  0  0  0  0
   68.3994   77.2028   92.8351 C   0  0  0  0  0  0  0  0  0  0  0  0
   69.1786   76.0672   93.0772 C   0  0  0  0  0  0  0  0  0  0  0  0
   70.4702   76.2563   93.5726 O   0  0  0  0  0  0  0  0  0  0  0  0
   68.6316   74.7816   92.8510 C   0  0  0  0  0  0  0  0  0  0  0  0
   67.2902   74.6712   92.4406 C   0  0  0  0  0  0  0  0  0  0  0  0
   70.7973   77.1236   93.7092 H   0  0  0  0  0  0  0  0  0  0  0  0
   69.4353   73.5489   92.9898 C   0  0  0  0  0  0  0  0  0  0  0  0
   68.8979   72.4225   92.8164 O   0  0  0  0  0  0  0  0  0  0  0  0
   70.7993   73.6215   93.2542 O   0  0  0  0  0  0  0  0  0  0  0  0
   71.2076   74.4547   93.3846 H   0  0  0  0  0  0  0  0  0  0  0  0
   70.2003   82.0330   89.8938 O   0  0  0  0  0  0  0  0  0  0  0  0
   71.1550   82.0510   89.0711 C   0  0  0  0  0  0  0  0  0  0  0  0
   71.0027   81.4986   87.7535 N   0  0  0  0  0  0  0  0  0  0  0  0
   71.8078   81.4108   87.1937 H   0  0  0  0  0  0  0  0  0  0  0  0
   72.4359   82.7410   89.4474 C   0  0  0  0  0  0  0  0  0  0  0  0
   73.6635   81.9949   88.9056 C   0  0  0  0  0  0  0  0  0  0  0  0
   73.5237   80.5030   88.9993 C   0  0  0  0  0  0  0  0  0  0  0  0
   74.5741   79.6578   88.9340 N   0  0  0  0  0  0  0  0  0  0  0  0
   74.0083   78.4419   89.0546 C   0  0  0  0  0  0  0  0  0  0  0  0
   72.6416   78.5947   89.1917 C   0  0  0  0  0  0  0  0  0  0  0  0
   72.3791   79.8786   89.1642 O   0  0  0  0  0  0  0  0  0  0  0  0
   71.6164   77.5365   89.3323 C   0  0  0  0  0  0  0  0  0  0  0  0
   71.8565   76.3803   90.0983 C   0  0  0  0  0  0  0  0  0  0  0  0
   70.8731   75.3939   90.2170 C   0  0  0  0  0  0  0  0  0  0  0  0
   69.6432   75.5465   89.5708 C   0  0  0  0  0  0  0  0  0  0  0  0
   68.4161   74.3025   89.7195 Cl  0  0  0  0  0  0  0  0  0  0  0  0
   69.3977   76.6865   88.8008 C   0  0  0  0  0  0  0  0  0  0  0  0
   70.3763   77.6787   88.6844 C   0  0  0  0  0  0  0  0  0  0  0  0
 27 28  2  0  0  0
 28 31  1  0  0  0
 31 32  1  0  0  0
 32 33  1  0  0  0
 33 34  2  0  0  0
 34 35  2  0  0  0
 35 36  2  0  0  0
 36 38  1  0  0  0
 38 39  2  0  0  0
 39 40  1  0  0  0
 40 41  2  0  0  0
 41 42  1  0  0  0
 41 43  1  0  0  0
 43 44  2  0  0  0
 36 37  1  0  0  0
 28 29  1  0  0  0
 29  1  1  0  0  0
  1  2  2  0  0  0
  2  3  1  0  0  0
  3  4  2  0  0  0
  4  5  1  0  0  0
  5  7  1  0  0  0
  7  8  2  0  0  0
  8  9  2  0  0  0
  9 10  2  0  0  0
 10 13  1  0  0  0
 13 14  1  0  0  0
 14 15  1  0  0  0
 15 16  2  0  0  0
 16 17  1  0  0  0
 17 18  2  0  0  0
 18 19  1  0  0  0
 18 20  1  0  0  0
 20 23  1  0  0  0
 23 24  2  0  0  0
 23 25  1  0  0  0
 20 21  2  0  0  0
 10 11  1  0  0  0
 11 12  2  0  0  0
  5  6  2  0  0  0
 37 33  1  0  0  0
  6  1  1  0  0  0
 44 38  1  0  0  0
 12  7  2  0  0  0
 21 15  1  0  0  0
 29 30  1  0  0  0
 19 22  1  0  0  0
 25 26  1  0  0  0
M  END
> <Activity>
11.5

> <minimizedAffinity>
-6.41808

$$$$
HIPS7772


 44 48  0  0  0  0  0  0  0  0999 V2000
   63.3019   74.8597   89.2377 C   0  0  0  0  0  0  0  0  0  0  0  0
   62.8220   75.1395   87.9488 C   0  0  0  0  0  0  0  0  0  0  0  0
   63.6227   75.8301   87.0369 C   0  0  0  0  0  0  0  0  0  0  0  0
   64.9108   76.2359   87.3959 C   0  0  0  0  0  0  0  0  0  0  0  0
   65.4167   75.9501   88.6772 C   0  0  0  0  0  0  0  0  0  0  0  0
   64.6011   75.2548   89.5885 C   0  0  0  0  0  0  0  0  0  0  0  0
   66.7915   76.3564   89.0585 C   0  0  0  0  0  0  0  0  0  0  0  0
   67.8500   75.5490   88.7728 N   0  0  0  0  0  0  0  0  0  0  0  0
   69.1192   75.9106   89.0891 C   0  0  0  0  0  0  0  0  0  0  0  0
   69.3636   77.1412   89.7061 C   0  0  0  0  0  0  0  0  0  0  0  0
   68.2641   77.9489   90.0150 C   0  0  0  0  0  0  0  0  0  0  0  0
   67.0104   77.5460   89.6836 N   0  0  0  0  0  0  0  0  0  0  0  0
   70.7655   77.5837   90.0307 C   0  0  0  0  0  0  0  0  0  0  0  0
   71.2085   78.5818   89.1099 O   0  0  0  0  0  0  0  0  0  0  0  0
   70.3727   79.4461   88.3824 C   0  0  0  0  0  0  0  0  0  0  0  0
   70.6122   80.8192   88.4685 C   0  0  0  0  0  0  0  0  0  0  0  0
   69.8041   81.7245   87.7812 C   0  0  0  0  0  0  0  0  0  0  0  0
   68.7418   81.2744   86.9910 C   0  0  0  0  0  0  0  0  0  0  0  0
   68.0119   82.2261   86.2764 O   0  0  0  0  0  0  0  0  0  0  0  0
   68.4660   79.8884   86.9125 C   0  0  0  0  0  0  0  0  0  0  0  0
   69.3060   78.9841   87.5882 C   0  0  0  0  0  0  0  0  0  0  0  0
   68.2246   83.1353   86.3545 H   0  0  0  0  0  0  0  0  0  0  0  0
   67.2975   79.3590   86.1783 C   0  0  0  0  0  0  0  0  0  0  0  0
   66.6759   80.0954   85.3665 O   0  0  0  0  0  0  0  0  0  0  0  0
   66.9096   78.0316   86.3312 O   0  0  0  0  0  0  0  0  0  0  0  0
   67.3660   77.4765   86.9325 H   0  0  0  0  0  0  0  0  0  0  0  0
   62.4845   75.7679   91.8616 O   0  0  0  0  0  0  0  0  0  0  0  0
   62.2112   74.5882   91.5120 C   0  0  0  0  0  0  0  0  0  0  0  0
   62.5166   74.1229   90.1874 N   0  0  0  0  0  0  0  0  0  0  0  0
   62.1656   73.2446   89.9140 H   0  0  0  0  0  0  0  0  0  0  0  0
   61.6423   73.6350   92.5249 C   0  0  0  0  0  0  0  0  0  0  0  0
   62.4429   72.3264   92.5860 C   0  0  0  0  0  0  0  0  0  0  0  0
   63.8635   72.4936   92.1297 C   0  0  0  0  0  0  0  0  0  0  0  0
   64.4216   71.7364   91.1616 N   0  0  0  0  0  0  0  0  0  0  0  0
   65.6787   72.2111   91.0756 C   0  0  0  0  0  0  0  0  0  0  0  0
   65.8343   73.2368   91.9886 C   0  0  0  0  0  0  0  0  0  0  0  0
   64.6925   73.3913   92.6135 O   0  0  0  0  0  0  0  0  0  0  0  0
   67.0493   74.0369   92.2614 C   0  0  0  0  0  0  0  0  0  0  0  0
   68.3314   73.4569   92.2296 C   0  0  0  0  0  0  0  0  0  0  0  0
   69.4649   74.2324   92.4905 C   0  0  0  0  0  0  0  0  0  0  0  0
   69.3329   75.5912   92.7901 C   0  0  0  0  0  0  0  0  0  0  0  0
   70.7587   76.5568   93.1218 Cl  0  0  0  0  0  0  0  0  0  0  0  0
   68.0640   76.1750   92.8328 C   0  0  0  0  0  0  0  0  0  0  0  0
   66.9279   75.4044   92.5663 C   0  0  0  0  0  0  0  0  0  0  0  0
 27 28  2  0  0  0
 28 31  1  0  0  0
 31 32  1  0  0  0
 32 33  1  0  0  0
 33 34  2  0  0  0
 34 35  2  0  0  0
 35 36  2  0  0  0
 36 38  1  0  0  0
 38 39  2  0  0  0
 39 40  1  0  0  0
 40 41  2  0  0  0
 41 42  1  0  0  0
 41 43  1  0  0  0
 43 44  2  0  0  0
 36 37  1  0  0  0
 28 29  1  0  0  0
 29  1  1  0  0  0
  1  2  2  0  0  0
  2  3  1  0  0  0
  3  4  2  0  0  0
  4  5  1  0  0  0
  5  7  1  0  0  0
  7  8  2  0  0  0
  8  9  2  0  0  0
  9 10  2  0  0  0
 10 13  1  0  0  0
 13 14  1  0  0  0
 14 15  1  0  0  0
 15 16  2  0  0  0
 16 17  1  0  0  0
 17 18  2  0  0  0
 18 19  1  0  0  0
 18 20  1  0  0  0
 20 23  1  0  0  0
 23 24  2  0  0  0
 23 25  1  0  0  0
 20 21  2  0  0  0
 10 11  1  0  0  0
 11 12  2  0  0  0
  5  6  2  0  0  0
 37 33  1  0  0  0
  6  1  1  0  0  0
 44 38  1  0  0  0
 12  7  2  0  0  0
 21 15  1  0  0  0
 29 30  1  0  0  0
 19 22  1  0  0  0
 25 26  1  0  0  0
M  END
> <Activity>
11.5

> <minimizedAffinity>
-6.33865

$$$$
HIPS7772


 44 48  0  0  0  0  0  0  0  0999 V2000
   69.0401   76.3408   89.8973 C   0  0  0  0  0  0  0  0  0  0  0  0
   69.6749   75.1548   90.2977 C   0  0  0  0  0  0  0  0  0  0  0  0
   70.1476   75.0192   91.6045 C   0  0  0  0  0  0  0  0  0  0  0  0
   69.9809   76.0566   92.5256 C   0  0  0  0  0  0  0  0  0  0  0  0
   69.3320   77.2468   92.1488 C   0  0  0  0  0  0  0  0  0  0  0  0
   68.8608   77.3733   90.8293 C   0  0  0  0  0  0  0  0  0  0  0  0
   69.1300   78.3436   93.1268 C   0  0  0  0  0  0  0  0  0  0  0  0
   69.2514   78.1040   94.4617 N   0  0  0  0  0  0  0  0  0  0  0  0
   69.0959   79.0966   95.3739 C   0  0  0  0  0  0  0  0  0  0  0  0
   68.8215   80.4004   94.9504 C   0  0  0  0  0  0  0  0  0  0  0  0
   68.6758   80.6261   93.5776 C   0  0  0  0  0  0  0  0  0  0  0  0
   68.8362   79.6026   92.6997 N   0  0  0  0  0  0  0  0  0  0  0  0
   68.6846   81.5270   95.9396 C   0  0  0  0  0  0  0  0  0  0  0  0
   67.3865   81.5236   96.5359 O   0  0  0  0  0  0  0  0  0  0  0  0
   66.4921   82.6073   96.5443 C   0  0  0  0  0  0  0  0  0  0  0  0
   65.1909   82.3825   96.9987 C   0  0  0  0  0  0  0  0  0  0  0  0
   64.2561   83.4174   97.0135 C   0  0  0  0  0  0  0  0  0  0  0  0
   64.6049   84.6993   96.5771 C   0  0  0  0  0  0  0  0  0  0  0  0
   63.6437   85.7067   96.6788 O   0  0  0  0  0  0  0  0  0  0  0  0
   65.9107   84.9409   96.0874 C   0  0  0  0  0  0  0  0  0  0  0  0
   66.8522   83.8952   96.1041 C   0  0  0  0  0  0  0  0  0  0  0  0
   62.7894   85.5076   97.0081 H   0  0  0  0  0  0  0  0  0  0  0  0
   66.3086   86.2454   95.5176 C   0  0  0  0  0  0  0  0  0  0  0  0
   67.5092   86.4542   95.1973 O   0  0  0  0  0  0  0  0  0  0  0  0
   65.3561   87.2303   95.2758 O   0  0  0  0  0  0  0  0  0  0  0  0
   64.4609   87.0840   95.5107 H   0  0  0  0  0  0  0  0  0  0  0  0
   69.3350   78.6667   88.1997 O   0  0  0  0  0  0  0  0  0  0  0  0
   68.6163   77.7099   87.8039 C   0  0  0  0  0  0  0  0  0  0  0  0
   68.5136   76.4993   88.5709 N   0  0  0  0  0  0  0  0  0  0  0  0
   68.0538   75.7309   88.1616 H   0  0  0  0  0  0  0  0  0  0  0  0
   67.7887   77.8782   86.5609 C   0  0  0  0  0  0  0  0  0  0  0  0
   66.5407   76.9843   86.5840 C   0  0  0  0  0  0  0  0  0  0  0  0
   65.9224   76.8864   87.9487 C   0  0  0  0  0  0  0  0  0  0  0  0
   65.9719   77.8858   88.8547 N   0  0  0  0  0  0  0  0  0  0  0  0
   65.3109   77.3833   89.9147 C   0  0  0  0  0  0  0  0  0  0  0  0
   64.8837   76.1043   89.6118 C   0  0  0  0  0  0  0  0  0  0  0  0
   65.2684   75.8345   88.3882 O   0  0  0  0  0  0  0  0  0  0  0  0
   64.1381   75.1640   90.4781 C   0  0  0  0  0  0  0  0  0  0  0  0
   62.7403   75.2494   90.6203 C   0  0  0  0  0  0  0  0  0  0  0  0
   62.0572   74.3502   91.4442 C   0  0  0  0  0  0  0  0  0  0  0  0
   62.7589   73.3605   92.1381 C   0  0  0  0  0  0  0  0  0  0  0  0
   61.8962   72.2391   93.1743 Cl  0  0  0  0  0  0  0  0  0  0  0  0
   64.1478   73.2722   92.0107 C   0  0  0  0  0  0  0  0  0  0  0  0
   64.8345   74.1658   91.1827 C   0  0  0  0  0  0  0  0  0  0  0  0
 27 28  2  0  0  0
 28 31  1  0  0  0
 31 32  1  0  0  0
 32 33  1  0  0  0
 33 34  2  0  0  0
 34 35  2  0  0  0
 35 36  2  0  0  0
 36 38  1  0  0  0
 38 39  2  0  0  0
 39 40  1  0  0  0
 40 41  2  0  0  0
 41 42  1  0  0  0
 41 43  1  0  0  0
 43 44  2  0  0  0
 36 37  1  0  0  0
 28 29  1  0  0  0
 29  1  1  0  0  0
  1  2  2  0  0  0
  2  3  1  0  0  0
  3  4  2  0  0  0
  4  5  1  0  0  0
  5  7  1  0  0  0
  7  8  2  0  0  0
  8  9  2  0  0  0
  9 10  2  0  0  0
 10 13  1  0  0  0
 13 14  1  0  0  0
 14 15  1  0  0  0
 15 16  2  0  0  0
 16 17  1  0  0  0
 17 18  2  0  0  0
 18 19  1  0  0  0
 18 20  1  0  0  0
 20 23  1  0  0  0
 23 24  2  0  0  0
 23 25  1  0  0  0
 20 21  2  0  0  0
 10 11  1  0  0  0
 11 12  2  0  0  0
  5  6  2  0  0  0
 37 33  1  0  0  0
  6  1  1  0  0  0
 44 38  1  0  0  0
 12  7  2  0  0  0
 21 15  1  0  0  0
 29 30  1  0  0  0
 19 22  1  0  0  0
 25 26  1  0  0  0
M  END
> <Activity>
11.5

> <minimizedAffinity>
-6.15258

$$$$
HIPS6990


 35 38  0  0  0  0  0  0  0  0999 V2000
   67.0601   74.2354   91.4262 C   0  0  0  0  0  0  0  0  0  0  0  0
   67.1442   72.8366   91.3095 C   0  0  0  0  0  0  0  0  0  0  0  0
   65.9843   72.0644   91.2096 C   0  0  0  0  0  0  0  0  0  0  0  0
   64.7295   72.6766   91.2190 C   0  0  0  0  0  0  0  0  0  0  0  0
   64.6246   74.0708   91.3273 C   0  0  0  0  0  0  0  0  0  0  0  0
   65.7913   74.8431   91.4458 C   0  0  0  0  0  0  0  0  0  0  0  0
   70.0524   76.3715   90.4500 C   0  0  0  0  0  0  0  0  0  0  0  0
   70.6004   76.6505   91.7060 C   0  0  0  0  0  0  0  0  0  0  0  0
   69.9986   76.1561   92.8648 C   0  0  0  0  0  0  0  0  0  0  0  0
   68.8461   75.3716   92.7780 C   0  0  0  0  0  0  0  0  0  0  0  0
   68.2889   75.0626   91.5245 C   0  0  0  0  0  0  0  0  0  0  0  0
   68.9107   75.5546   90.3618 C   0  0  0  0  0  0  0  0  0  0  0  0
   70.6903   76.8820   89.3094 O   0  0  0  0  0  0  0  0  0  0  0  0
   72.0641   80.8446   88.8318 C   0  0  0  0  0  0  0  0  0  0  0  0
   72.9852   79.7948   88.9212 C   0  0  0  0  0  0  0  0  0  0  0  0
   72.5474   78.4765   89.0752 C   0  0  0  0  0  0  0  0  0  0  0  0
   71.1728   78.1913   89.1602 C   0  0  0  0  0  0  0  0  0  0  0  0
   70.2503   79.2369   89.0465 C   0  0  0  0  0  0  0  0  0  0  0  0
   70.6872   80.5557   88.8885 C   0  0  0  0  0  0  0  0  0  0  0  0
   73.9186   82.5203   88.8531 C   0  0  0  0  0  0  0  0  0  0  0  0
   72.5538   82.1508   88.6860 O   0  0  0  0  0  0  0  0  0  0  0  0
   63.2691   74.7278   91.3269 C   0  0  0  0  0  0  0  0  0  0  0  0
   63.2188   75.7873   90.3703 O   0  0  0  0  0  0  0  0  0  0  0  0
   64.3050   76.5934   89.9905 C   0  0  0  0  0  0  0  0  0  0  0  0
   64.6165   77.6960   90.7884 C   0  0  0  0  0  0  0  0  0  0  0  0
   65.6832   78.5315   90.4578 C   0  0  0  0  0  0  0  0  0  0  0  0
   66.4603   78.2820   89.3219 C   0  0  0  0  0  0  0  0  0  0  0  0
   67.5569   79.1153   89.0906 O   0  0  0  0  0  0  0  0  0  0  0  0
   66.1361   77.1900   88.4780 C   0  0  0  0  0  0  0  0  0  0  0  0
   65.0779   76.3377   88.8424 C   0  0  0  0  0  0  0  0  0  0  0  0
   67.7359   79.8267   89.6735 H   0  0  0  0  0  0  0  0  0  0  0  0
   66.8373   76.9292   87.2008 C   0  0  0  0  0  0  0  0  0  0  0  0
   68.0832   76.7432   87.1752 O   0  0  0  0  0  0  0  0  0  0  0  0
   66.1287   76.9555   86.0028 O   0  0  0  0  0  0  0  0  0  0  0  0
   65.2019   77.0930   86.0097 H   0  0  0  0  0  0  0  0  0  0  0  0
 20 21  1  0  0  0
 21 14  1  0  0  0
 14 15  2  0  0  0
 15 16  1  0  0  0
 16 17  2  0  0  0
 17 13  1  0  0  0
 13  7  1  0  0  0
  7  8  2  0  0  0
  8  9  1  0  0  0
  9 10  2  0  0  0
 10 11  1  0  0  0
 11  1  1  0  0  0
  1  2  2  0  0  0
  2  3  1  0  0  0
  3  4  2  0  0  0
  4  5  1  0  0  0
  5 22  1  0  0  0
 22 23  1  0  0  0
 23 24  1  0  0  0
 24 25  2  0  0  0
 25 26  1  0  0  0
 26 27  2  0  0  0
 27 28  1  0  0  0
 27 29  1  0  0  0
 29 32  1  0  0  0
 32 33  2  0  0  0
 32 34  1  0  0  0
 29 30  2  0  0  0
  5  6  2  0  0  0
 11 12  2  0  0  0
 17 18  1  0  0  0
 18 19  2  0  0  0
 19 14  1  0  0  0
 12  7  1  0  0  0
  6  1  1  0  0  0
 30 24  1  0  0  0
 28 31  1  0  0  0
 34 35  1  0  0  0
M  END
> <Activity>
13.0

> <minimizedAffinity>
-9.69198

$$$$
HIPS6990


 35 38  0  0  0  0  0  0  0  0999 V2000
   69.0948   75.5018   91.0585 C   0  0  0  0  0  0  0  0  0  0  0  0
   69.8626   75.2995   92.2191 C   0  0  0  0  0  0  0  0  0  0  0  0
   69.5298   74.2841   93.1191 C   0  0  0  0  0  0  0  0  0  0  0  0
   68.4333   73.4563   92.8704 C   0  0  0  0  0  0  0  0  0  0  0  0
   67.6594   73.6371   91.7150 C   0  0  0  0  0  0  0  0  0  0  0  0
   67.9852   74.6699   90.8213 C   0  0  0  0  0  0  0  0  0  0  0  0
   71.1223   78.0230   89.0579 C   0  0  0  0  0  0  0  0  0  0  0  0
   70.1270   78.5838   88.2514 C   0  0  0  0  0  0  0  0  0  0  0  0
   68.8063   78.1415   88.3490 C   0  0  0  0  0  0  0  0  0  0  0  0
   68.4669   77.1381   89.2596 C   0  0  0  0  0  0  0  0  0  0  0  0
   69.4480   76.5736   90.0939 C   0  0  0  0  0  0  0  0  0  0  0  0
   70.7737   77.0357   89.9972 C   0  0  0  0  0  0  0  0  0  0  0  0
   72.4362   78.4991   88.9337 O   0  0  0  0  0  0  0  0  0  0  0  0
   73.4972   82.5809   88.7604 C   0  0  0  0  0  0  0  0  0  0  0  0
   74.4970   81.6048   88.8373 C   0  0  0  0  0  0  0  0  0  0  0  0
   74.1635   80.2486   88.8912 C   0  0  0  0  0  0  0  0  0  0  0  0
   72.8149   79.8496   88.8866 C   0  0  0  0  0  0  0  0  0  0  0  0
   71.8152   80.8230   88.7851 C   0  0  0  0  0  0  0  0  0  0  0  0
   72.1480   82.1798   88.7273 C   0  0  0  0  0  0  0  0  0  0  0  0
   74.5121   84.5485   87.6000 C   0  0  0  0  0  0  0  0  0  0  0  0
   73.8832   83.9288   88.7168 O   0  0  0  0  0  0  0  0  0  0  0  0
   66.4834   72.7352   91.4458 C   0  0  0  0  0  0  0  0  0  0  0  0
   65.2583   73.3799   91.7973 O   0  0  0  0  0  0  0  0  0  0  0  0
   64.7175   74.5062   91.1548 C   0  0  0  0  0  0  0  0  0  0  0  0
   63.7064   74.3042   90.2134 C   0  0  0  0  0  0  0  0  0  0  0  0
   63.1349   75.3860   89.5439 C   0  0  0  0  0  0  0  0  0  0  0  0
   63.5629   76.6923   89.8016 C   0  0  0  0  0  0  0  0  0  0  0  0
   62.8977   77.7332   89.1500 O   0  0  0  0  0  0  0  0  0  0  0  0
   64.6148   76.9149   90.7256 C   0  0  0  0  0  0  0  0  0  0  0  0
   65.1586   75.8168   91.4166 C   0  0  0  0  0  0  0  0  0  0  0  0
   62.2072   77.5424   88.5460 H   0  0  0  0  0  0  0  0  0  0  0  0
   65.1996   78.2532   90.9664 C   0  0  0  0  0  0  0  0  0  0  0  0
   65.6303   78.9506   90.0094 O   0  0  0  0  0  0  0  0  0  0  0  0
   65.3404   78.7242   92.2687 O   0  0  0  0  0  0  0  0  0  0  0  0
   65.0239   78.2142   92.9882 H   0  0  0  0  0  0  0  0  0  0  0  0
 20 21  1  0  0  0
 21 14  1  0  0  0
 14 15  2  0  0  0
 15 16  1  0  0  0
 16 17  2  0  0  0
 17 13  1  0  0  0
 13  7  1  0  0  0
  7  8  2  0  0  0
  8  9  1  0  0  0
  9 10  2  0  0  0
 10 11  1  0  0  0
 11  1  1  0  0  0
  1  2  2  0  0  0
  2  3  1  0  0  0
  3  4  2  0  0  0
  4  5  1  0  0  0
  5 22  1  0  0  0
 22 23  1  0  0  0
 23 24  1  0  0  0
 24 25  2  0  0  0
 25 26  1  0  0  0
 26 27  2  0  0  0
 27 28  1  0  0  0
 27 29  1  0  0  0
 29 32  1  0  0  0
 32 33  2  0  0  0
 32 34  1  0  0  0
 29 30  2  0  0  0
  5  6  2  0  0  0
 11 12  2  0  0  0
 17 18  1  0  0  0
 18 19  2  0  0  0
 19 14  1  0  0  0
 12  7  1  0  0  0
  6  1  1  0  0  0
 30 24  1  0  0  0
 28 31  1  0  0  0
 34 35  1  0  0  0
M  END
> <Activity>
13.0

> <minimizedAffinity>
-9.60414

$$$$
HIPS6990


 35 38  0  0  0  0  0  0  0  0999 V2000
   66.3232   73.7124   91.4647 C   0  0  0  0  0  0  0  0  0  0  0  0
   66.4464   72.3477   91.1488 C   0  0  0  0  0  0  0  0  0  0  0  0
   65.3105   71.5416   91.0405 C   0  0  0  0  0  0  0  0  0  0  0  0
   64.0406   72.0866   91.2397 C   0  0  0  0  0  0  0  0  0  0  0  0
   63.8961   73.4469   91.5482 C   0  0  0  0  0  0  0  0  0  0  0  0
   65.0404   74.2508   91.6743 C   0  0  0  0  0  0  0  0  0  0  0  0
   69.3068   75.8702   90.5097 C   0  0  0  0  0  0  0  0  0  0  0  0
   69.7866   76.2333   91.7720 C   0  0  0  0  0  0  0  0  0  0  0  0
   69.1417   75.7882   92.9276 C   0  0  0  0  0  0  0  0  0  0  0  0
   68.0140   74.9695   92.8317 C   0  0  0  0  0  0  0  0  0  0  0  0
   67.5256   74.5763   91.5731 C   0  0  0  0  0  0  0  0  0  0  0  0
   68.1907   75.0193   90.4147 C   0  0  0  0  0  0  0  0  0  0  0  0
   69.9865   76.3332   89.3730 O   0  0  0  0  0  0  0  0  0  0  0  0
   71.5842   80.2072   88.8661 C   0  0  0  0  0  0  0  0  0  0  0  0
   72.4391   79.1309   89.1287 C   0  0  0  0  0  0  0  0  0  0  0  0
   71.9273   77.8410   89.2951 C   0  0  0  0  0  0  0  0  0  0  0  0
   70.5417   77.6128   89.2178 C   0  0  0  0  0  0  0  0  0  0  0  0
   69.6883   78.6835   88.9310 C   0  0  0  0  0  0  0  0  0  0  0  0
   70.1997   79.9737   88.7607 C   0  0  0  0  0  0  0  0  0  0  0  0
   73.5341   81.7710   88.8472 C   0  0  0  0  0  0  0  0  0  0  0  0
   72.1460   81.4836   88.7152 O   0  0  0  0  0  0  0  0  0  0  0  0
   62.5234   74.0326   91.7523 C   0  0  0  0  0  0  0  0  0  0  0  0
   62.3606   75.2246   90.9824 O   0  0  0  0  0  0  0  0  0  0  0  0
   63.4001   75.9536   90.3809 C   0  0  0  0  0  0  0  0  0  0  0  0
   63.7914   75.5973   89.0889 C   0  0  0  0  0  0  0  0  0  0  0  0
   64.8191   76.2856   88.4444 C   0  0  0  0  0  0  0  0  0  0  0  0
   65.4772   77.3442   89.0788 C   0  0  0  0  0  0  0  0  0  0  0  0
   66.4462   78.0361   88.3489 O   0  0  0  0  0  0  0  0  0  0  0  0
   65.1206   77.6960   90.4051 C   0  0  0  0  0  0  0  0  0  0  0  0
   64.0605   77.0139   91.0294 C   0  0  0  0  0  0  0  0  0  0  0  0
   66.6521   77.7706   87.4742 H   0  0  0  0  0  0  0  0  0  0  0  0
   65.8455   78.7257   91.1830 C   0  0  0  0  0  0  0  0  0  0  0  0
   67.0863   78.8897   91.0371 O   0  0  0  0  0  0  0  0  0  0  0  0
   65.1674   79.4788   92.1373 O   0  0  0  0  0  0  0  0  0  0  0  0
   64.2447   79.3653   92.2546 H   0  0  0  0  0  0  0  0  0  0  0  0
 20 21  1  0  0  0
 21 14  1  0  0  0
 14 15  2  0  0  0
 15 16  1  0  0  0
 16 17  2  0  0  0
 17 13  1  0  0  0
 13  7  1  0  0  0
  7  8  2  0  0  0
  8  9  1  0  0  0
  9 10  2  0  0  0
 10 11  1  0  0  0
 11  1  1  0  0  0
  1  2  2  0  0  0
  2  3  1  0  0  0
  3  4  2  0  0  0
  4  5  1  0  0  0
  5 22  1  0  0  0
 22 23  1  0  0  0
 23 24  1  0  0  0
 24 25  2  0  0  0
 25 26  1  0  0  0
 26 27  2  0  0  0
 27 28  1  0  0  0
 27 29  1  0  0  0
 29 32  1  0  0  0
 32 33  2  0  0  0
 32 34  1  0  0  0
 29 30  2  0  0  0
  5  6  2  0  0  0
 11 12  2  0  0  0
 17 18  1  0  0  0
 18 19  2  0  0  0
 19 14  1  0  0  0
 12  7  1  0  0  0
  6  1  1  0  0  0
 30 24  1  0  0  0
 28 31  1  0  0  0
 34 35  1  0  0  0
M  END
> <Activity>
13.0

> <minimizedAffinity>
-9.28178

$$$$
HIPS6990


 35 38  0  0  0  0  0  0  0  0999 V2000
   70.9517   77.8589   90.0251 C   0  0  0  0  0  0  0  0  0  0  0  0
   72.2505   77.7382   89.4998 C   0  0  0  0  0  0  0  0  0  0  0  0
   72.8165   78.7837   88.7663 C   0  0  0  0  0  0  0  0  0  0  0  0
   72.0983   79.9619   88.5530 C   0  0  0  0  0  0  0  0  0  0  0  0
   70.8046   80.1047   89.0748 C   0  0  0  0  0  0  0  0  0  0  0  0
   70.2310   79.0454   89.7963 C   0  0  0  0  0  0  0  0  0  0  0  0
   68.4251   75.7853   91.9711 C   0  0  0  0  0  0  0  0  0  0  0  0
   69.1905   74.6567   92.2809 C   0  0  0  0  0  0  0  0  0  0  0  0
   70.5166   74.5637   91.8541 C   0  0  0  0  0  0  0  0  0  0  0  0
   71.0925   75.6024   91.1188 C   0  0  0  0  0  0  0  0  0  0  0  0
   70.3474   76.7549   90.8125 C   0  0  0  0  0  0  0  0  0  0  0  0
   69.0157   76.8447   91.2587 C   0  0  0  0  0  0  0  0  0  0  0  0
   67.0983   75.8431   92.4232 O   0  0  0  0  0  0  0  0  0  0  0  0
   63.6861   74.5062   90.3287 C   0  0  0  0  0  0  0  0  0  0  0  0
   64.5487   73.5759   90.9193 C   0  0  0  0  0  0  0  0  0  0  0  0
   65.6807   74.0015   91.6200 C   0  0  0  0  0  0  0  0  0  0  0  0
   65.9758   75.3726   91.7245 C   0  0  0  0  0  0  0  0  0  0  0  0
   65.1012   76.3045   91.1556 C   0  0  0  0  0  0  0  0  0  0  0  0
   63.9664   75.8800   90.4576 C   0  0  0  0  0  0  0  0  0  0  0  0
   62.1656   74.4921   88.3448 C   0  0  0  0  0  0  0  0  0  0  0  0
   62.5680   74.0284   89.6293 O   0  0  0  0  0  0  0  0  0  0  0  0
   70.0373   81.3815   88.8508 C   0  0  0  0  0  0  0  0  0  0  0  0
   69.4071   81.3768   87.5691 O   0  0  0  0  0  0  0  0  0  0  0  0
   68.5942   80.3475   87.0654 C   0  0  0  0  0  0  0  0  0  0  0  0
   67.7869   80.6276   85.9613 C   0  0  0  0  0  0  0  0  0  0  0  0
   66.9588   79.6440   85.4210 C   0  0  0  0  0  0  0  0  0  0  0  0
   66.9204   78.3599   85.9740 C   0  0  0  0  0  0  0  0  0  0  0  0
   66.1246   77.4039   85.3391 O   0  0  0  0  0  0  0  0  0  0  0  0
   67.7037   78.0671   87.1188 C   0  0  0  0  0  0  0  0  0  0  0  0
   68.5581   79.0597   87.6321 C   0  0  0  0  0  0  0  0  0  0  0  0
   65.6218   77.6393   84.5843 H   0  0  0  0  0  0  0  0  0  0  0  0
   67.6311   76.7701   87.8285 C   0  0  0  0  0  0  0  0  0  0  0  0
   66.5463   76.3675   88.3272 O   0  0  0  0  0  0  0  0  0  0  0  0
   68.7854   76.0134   88.0096 O   0  0  0  0  0  0  0  0  0  0  0  0
   69.5977   76.3030   87.6433 H   0  0  0  0  0  0  0  0  0  0  0  0
 20 21  1  0  0  0
 21 14  1  0  0  0
 14 15  2  0  0  0
 15 16  1  0  0  0
 16 17  2  0  0  0
 17 13  1  0  0  0
 13  7  1  0  0  0
  7  8  2  0  0  0
  8  9  1  0  0  0
  9 10  2  0  0  0
 10 11  1  0  0  0
 11  1  1  0  0  0
  1  2  2  0  0  0
  2  3  1  0  0  0
  3  4  2  0  0  0
  4  5  1  0  0  0
  5 22  1  0  0  0
 22 23  1  0  0  0
 23 24  1  0  0  0
 24 25  2  0  0  0
 25 26  1  0  0  0
 26 27  2  0  0  0
 27 28  1  0  0  0
 27 29  1  0  0  0
 29 32  1  0  0  0
 32 33  2  0  0  0
 32 34  1  0  0  0
 29 30  2  0  0  0
  5  6  2  0  0  0
 11 12  2  0  0  0
 17 18  1  0  0  0
 18 19  2  0  0  0
 19 14  1  0  0  0
 12  7  1  0  0  0
  6  1  1  0  0  0
 30 24  1  0  0  0
 28 31  1  0  0  0
 34 35  1  0  0  0
M  END
> <Activity>
13.0

> <minimizedAffinity>
-9.12685

$$$$
HIPS6990


 35 38  0  0  0  0  0  0  0  0999 V2000
   66.5370   75.8411   89.3078 C   0  0  0  0  0  0  0  0  0  0  0  0
   65.2546   75.2957   89.4963 C   0  0  0  0  0  0  0  0  0  0  0  0
   65.0167   74.3902   90.5331 C   0  0  0  0  0  0  0  0  0  0  0  0
   66.0508   74.0228   91.3963 C   0  0  0  0  0  0  0  0  0  0  0  0
   67.3349   74.5611   91.2296 C   0  0  0  0  0  0  0  0  0  0  0  0
   67.5757   75.4571   90.1756 C   0  0  0  0  0  0  0  0  0  0  0  0
   67.7364   78.9291   87.4382 C   0  0  0  0  0  0  0  0  0  0  0  0
   67.3080   78.6363   86.1397 C   0  0  0  0  0  0  0  0  0  0  0  0
   66.6409   77.4399   85.8689 C   0  0  0  0  0  0  0  0  0  0  0  0
   66.3897   76.5275   86.8964 C   0  0  0  0  0  0  0  0  0  0  0  0
   66.7946   76.8101   88.2130 C   0  0  0  0  0  0  0  0  0  0  0  0
   67.4543   78.0246   88.4779 C   0  0  0  0  0  0  0  0  0  0  0  0
   68.3980   80.1444   87.6702 O   0  0  0  0  0  0  0  0  0  0  0  0
   72.3754   80.6354   88.9959 C   0  0  0  0  0  0  0  0  0  0  0  0
   71.8111   79.3557   88.9473 C   0  0  0  0  0  0  0  0  0  0  0  0
   70.4971   79.1747   88.5070 C   0  0  0  0  0  0  0  0  0  0  0  0
   69.7191   80.2818   88.1236 C   0  0  0  0  0  0  0  0  0  0  0  0
   70.2898   81.5588   88.1484 C   0  0  0  0  0  0  0  0  0  0  0  0
   71.6056   81.7405   88.5852 C   0  0  0  0  0  0  0  0  0  0  0  0
   74.4155   81.9928   89.4889 C   0  0  0  0  0  0  0  0  0  0  0  0
   73.6951   80.7653   89.4530 O   0  0  0  0  0  0  0  0  0  0  0  0
   68.4450   74.1696   92.1695 C   0  0  0  0  0  0  0  0  0  0  0  0
   68.5739   75.1209   93.2271 O   0  0  0  0  0  0  0  0  0  0  0  0
   68.2799   76.4913   93.1297 C   0  0  0  0  0  0  0  0  0  0  0  0
   69.0941   77.3895   93.8223 C   0  0  0  0  0  0  0  0  0  0  0  0
   68.8472   78.7609   93.7627 C   0  0  0  0  0  0  0  0  0  0  0  0
   67.7807   79.2625   93.0096 C   0  0  0  0  0  0  0  0  0  0  0  0
   67.6353   80.6495   92.9349 O   0  0  0  0  0  0  0  0  0  0  0  0
   66.9196   78.3641   92.3306 C   0  0  0  0  0  0  0  0  0  0  0  0
   67.2009   76.9864   92.3737 C   0  0  0  0  0  0  0  0  0  0  0  0
   68.2267   81.2083   93.3997 H   0  0  0  0  0  0  0  0  0  0  0  0
   65.7060   78.8087   91.6091 C   0  0  0  0  0  0  0  0  0  0  0  0
   65.7964   79.5010   90.5602 O   0  0  0  0  0  0  0  0  0  0  0  0
   64.4466   78.5199   92.1270 O   0  0  0  0  0  0  0  0  0  0  0  0
   64.3672   78.0059   92.9065 H   0  0  0  0  0  0  0  0  0  0  0  0
 20 21  1  0  0  0
 21 14  1  0  0  0
 14 15  2  0  0  0
 15 16  1  0  0  0
 16 17  2  0  0  0
 17 13  1  0  0  0
 13  7  1  0  0  0
  7  8  2  0  0  0
  8  9  1  0  0  0
  9 10  2  0  0  0
 10 11  1  0  0  0
 11  1  1  0  0  0
  1  2  2  0  0  0
  2  3  1  0  0  0
  3  4  2  0  0  0
  4  5  1  0  0  0
  5 22  1  0  0  0
 22 23  1  0  0  0
 23 24  1  0  0  0
 24 25  2  0  0  0
 25 26  1  0  0  0
 26 27  2  0  0  0
 27 28  1  0  0  0
 27 29  1  0  0  0
 29 32  1  0  0  0
 32 33  2  0  0  0
 32 34  1  0  0  0
 29 30  2  0  0  0
  5  6  2  0  0  0
 11 12  2  0  0  0
 17 18  1  0  0  0
 18 19  2  0  0  0
 19 14  1  0  0  0
 12  7  1  0  0  0
  6  1  1  0  0  0
 30 24  1  0  0  0
 28 31  1  0  0  0
 34 35  1  0  0  0
M  END
> <Activity>
13.0

> <minimizedAffinity>
-9.02501

$$$$
HIPS6990


 35 38  0  0  0  0  0  0  0  0999 V2000
   65.1715   75.9718   88.9021 C   0  0  0  0  0  0  0  0  0  0  0  0
   63.8883   75.9343   88.3281 C   0  0  0  0  0  0  0  0  0  0  0  0
   62.9022   75.0969   88.8552 C   0  0  0  0  0  0  0  0  0  0  0  0
   63.1810   74.2930   89.9622 C   0  0  0  0  0  0  0  0  0  0  0  0
   64.4522   74.3215   90.5536 C   0  0  0  0  0  0  0  0  0  0  0  0
   65.4470   75.1505   90.0107 C   0  0  0  0  0  0  0  0  0  0  0  0
   68.0129   78.4928   88.6992 C   0  0  0  0  0  0  0  0  0  0  0  0
   68.2282   78.5394   87.3183 C   0  0  0  0  0  0  0  0  0  0  0  0
   67.4623   77.7514   86.4570 C   0  0  0  0  0  0  0  0  0  0  0  0
   66.4683   76.9138   86.9685 C   0  0  0  0  0  0  0  0  0  0  0  0
   66.2216   76.8655   88.3520 C   0  0  0  0  0  0  0  0  0  0  0  0
   66.9901   77.6736   89.2104 C   0  0  0  0  0  0  0  0  0  0  0  0
   68.7996   79.3043   89.5304 O   0  0  0  0  0  0  0  0  0  0  0  0
   72.7413   80.5777   88.7183 C   0  0  0  0  0  0  0  0  0  0  0  0
   72.4734   79.2162   88.9002 C   0  0  0  0  0  0  0  0  0  0  0  0
   71.1734   78.7770   89.1656 C   0  0  0  0  0  0  0  0  0  0  0  0
   70.1200   79.7028   89.2708 C   0  0  0  0  0  0  0  0  0  0  0  0
   70.3820   81.0615   89.0649 C   0  0  0  0  0  0  0  0  0  0  0  0
   71.6816   81.5015   88.7956 C   0  0  0  0  0  0  0  0  0  0  0  0
   74.5104   82.3203   88.4328 C   0  0  0  0  0  0  0  0  0  0  0  0
   74.0638   80.9687   88.4622 O   0  0  0  0  0  0  0  0  0  0  0  0
   64.7454   73.4599   91.7539 C   0  0  0  0  0  0  0  0  0  0  0  0
   66.1227   73.0828   91.7837 O   0  0  0  0  0  0  0  0  0  0  0  0
   67.2046   73.9637   91.9499 C   0  0  0  0  0  0  0  0  0  0  0  0
   67.3006   74.6680   93.1516 C   0  0  0  0  0  0  0  0  0  0  0  0
   68.3528   75.5571   93.3699 C   0  0  0  0  0  0  0  0  0  0  0  0
   69.3306   75.7606   92.3907 C   0  0  0  0  0  0  0  0  0  0  0  0
   70.3950   76.6090   92.7036 O   0  0  0  0  0  0  0  0  0  0  0  0
   69.2294   75.0840   91.1490 C   0  0  0  0  0  0  0  0  0  0  0  0
   68.1808   74.1662   90.9565 C   0  0  0  0  0  0  0  0  0  0  0  0
   70.4235   77.0372   93.5365 H   0  0  0  0  0  0  0  0  0  0  0  0
   70.1580   75.3325   90.0235 C   0  0  0  0  0  0  0  0  0  0  0  0
   71.3828   75.5419   90.2320 O   0  0  0  0  0  0  0  0  0  0  0  0
   69.6673   75.4045   88.7228 O   0  0  0  0  0  0  0  0  0  0  0  0
   68.7582   75.2507   88.5558 H   0  0  0  0  0  0  0  0  0  0  0  0
 20 21  1  0  0  0
 21 14  1  0  0  0
 14 15  2  0  0  0
 15 16  1  0  0  0
 16 17  2  0  0  0
 17 13  1  0  0  0
 13  7  1  0  0  0
  7  8  2  0  0  0
  8  9  1  0  0  0
  9 10  2  0  0  0
 10 11  1  0  0  0
 11  1  1  0  0  0
  1  2  2  0  0  0
  2  3  1  0  0  0
  3  4  2  0  0  0
  4  5  1  0  0  0
  5 22  1  0  0  0
 22 23  1  0  0  0
 23 24  1  0  0  0
 24 25  2  0  0  0
 25 26  1  0  0  0
 26 27  2  0  0  0
 27 28  1  0  0  0
 27 29  1  0  0  0
 29 32  1  0  0  0
 32 33  2  0  0  0
 32 34  1  0  0  0
 29 30  2  0  0  0
  5  6  2  0  0  0
 11 12  2  0  0  0
 17 18  1  0  0  0
 18 19  2  0  0  0
 19 14  1  0  0  0
 12  7  1  0  0  0
  6  1  1  0  0  0
 30 24  1  0  0  0
 28 31  1  0  0  0
 34 35  1  0  0  0
M  END
> <Activity>
13.0

> <minimizedAffinity>
-8.82448

$$$$
HIPS6990


 35 38  0  0  0  0  0  0  0  0999 V2000
   66.1161   73.8732   91.6392 C   0  0  0  0  0  0  0  0  0  0  0  0
   65.9320   72.4991   91.4038 C   0  0  0  0  0  0  0  0  0  0  0  0
   64.6695   72.0015   91.0718 C   0  0  0  0  0  0  0  0  0  0  0  0
   63.5789   72.8668   90.9651 C   0  0  0  0  0  0  0  0  0  0  0  0
   63.7433   74.2413   91.1888 C   0  0  0  0  0  0  0  0  0  0  0  0
   65.0095   74.7364   91.5400 C   0  0  0  0  0  0  0  0  0  0  0  0
   68.9783   76.3069   92.2353 C   0  0  0  0  0  0  0  0  0  0  0  0
   69.9845   75.4340   92.6610 C   0  0  0  0  0  0  0  0  0  0  0  0
   69.7346   74.0641   92.7628 C   0  0  0  0  0  0  0  0  0  0  0  0
   68.4773   73.5528   92.4329 C   0  0  0  0  0  0  0  0  0  0  0  0
   67.4566   74.4097   91.9842 C   0  0  0  0  0  0  0  0  0  0  0  0
   67.7226   75.7871   91.8724 C   0  0  0  0  0  0  0  0  0  0  0  0
   69.2709   77.6757   92.1407 O   0  0  0  0  0  0  0  0  0  0  0  0
   68.3080   80.6612   94.9651 C   0  0  0  0  0  0  0  0  0  0  0  0
   68.7924   79.4224   95.3999 C   0  0  0  0  0  0  0  0  0  0  0  0
   69.1200   78.4243   94.4781 C   0  0  0  0  0  0  0  0  0  0  0  0
   68.9492   78.6482   93.1002 C   0  0  0  0  0  0  0  0  0  0  0  0
   68.4883   79.8946   92.6629 C   0  0  0  0  0  0  0  0  0  0  0  0
   68.1638   80.8951   93.5842 C   0  0  0  0  0  0  0  0  0  0  0  0
   66.9204   82.5633   95.8046 C   0  0  0  0  0  0  0  0  0  0  0  0
   67.9856   81.6270   95.9299 O   0  0  0  0  0  0  0  0  0  0  0  0
   62.5659   75.1724   91.0626 C   0  0  0  0  0  0  0  0  0  0  0  0
   62.8318   76.2003   90.1071 O   0  0  0  0  0  0  0  0  0  0  0  0
   64.0786   76.8122   89.8953 C   0  0  0  0  0  0  0  0  0  0  0  0
   64.4765   77.8176   90.7787 C   0  0  0  0  0  0  0  0  0  0  0  0
   65.7033   78.4603   90.6149 C   0  0  0  0  0  0  0  0  0  0  0  0
   66.5577   78.1113   89.5639 C   0  0  0  0  0  0  0  0  0  0  0  0
   67.8015   78.7436   89.5020 O   0  0  0  0  0  0  0  0  0  0  0  0
   66.1549   77.1200   88.6340 C   0  0  0  0  0  0  0  0  0  0  0  0
   64.9293   76.4581   88.8315 C   0  0  0  0  0  0  0  0  0  0  0  0
   68.0285   79.3941   90.1370 H   0  0  0  0  0  0  0  0  0  0  0  0
   66.9502   76.7775   87.4336 C   0  0  0  0  0  0  0  0  0  0  0  0
   68.1478   76.4003   87.5393 O   0  0  0  0  0  0  0  0  0  0  0  0
   66.3965   76.9366   86.1664 O   0  0  0  0  0  0  0  0  0  0  0  0
   65.5070   77.2166   86.0756 H   0  0  0  0  0  0  0  0  0  0  0  0
 20 21  1  0  0  0
 21 14  1  0  0  0
 14 15  2  0  0  0
 15 16  1  0  0  0
 16 17  2  0  0  0
 17 13  1  0  0  0
 13  7  1  0  0  0
  7  8  2  0  0  0
  8  9  1  0  0  0
  9 10  2  0  0  0
 10 11  1  0  0  0
 11  1  1  0  0  0
  1  2  2  0  0  0
  2  3  1  0  0  0
  3  4  2  0  0  0
  4  5  1  0  0  0
  5 22  1  0  0  0
 22 23  1  0  0  0
 23 24  1  0  0  0
 24 25  2  0  0  0
 25 26  1  0  0  0
 26 27  2  0  0  0
 27 28  1  0  0  0
 27 29  1  0  0  0
 29 32  1  0  0  0
 32 33  2  0  0  0
 32 34  1  0  0  0
 29 30  2  0  0  0
  5  6  2  0  0  0
 11 12  2  0  0  0
 17 18  1  0  0  0
 18 19  2  0  0  0
 19 14  1  0  0  0
 12  7  1  0  0  0
  6  1  1  0  0  0
 30 24  1  0  0  0
 28 31  1  0  0  0
 34 35  1  0  0  0
M  END
> <Activity>
13.0

> <minimizedAffinity>
-8.44397

$$$$
HIPS6990


 35 38  0  0  0  0  0  0  0  0999 V2000
   66.6972   74.1225   91.5872 C   0  0  0  0  0  0  0  0  0  0  0  0
   66.6704   72.7450   91.3057 C   0  0  0  0  0  0  0  0  0  0  0  0
   65.4526   72.0805   91.1415 C   0  0  0  0  0  0  0  0  0  0  0  0
   64.2496   72.7809   91.2498 C   0  0  0  0  0  0  0  0  0  0  0  0
   64.2553   74.1564   91.5226 C   0  0  0  0  0  0  0  0  0  0  0  0
   65.4801   74.8183   91.7052 C   0  0  0  0  0  0  0  0  0  0  0  0
   69.3800   76.4393   92.9673 C   0  0  0  0  0  0  0  0  0  0  0  0
   70.4376   76.1715   92.0926 C   0  0  0  0  0  0  0  0  0  0  0  0
   70.2855   75.2383   91.0652 C   0  0  0  0  0  0  0  0  0  0  0  0
   69.0710   74.5686   90.8986 C   0  0  0  0  0  0  0  0  0  0  0  0
   67.9880   74.8364   91.7547 C   0  0  0  0  0  0  0  0  0  0  0  0
   68.1473   75.7885   92.7787 C   0  0  0  0  0  0  0  0  0  0  0  0
   69.5710   77.3881   93.9831 O   0  0  0  0  0  0  0  0  0  0  0  0
   67.7344   81.1774   94.2766 C   0  0  0  0  0  0  0  0  0  0  0  0
   67.3648   80.3028   93.2486 C   0  0  0  0  0  0  0  0  0  0  0  0
   67.9598   79.0428   93.1392 C   0  0  0  0  0  0  0  0  0  0  0  0
   68.9522   78.6458   94.0532 C   0  0  0  0  0  0  0  0  0  0  0  0
   69.3051   79.5093   95.0958 C   0  0  0  0  0  0  0  0  0  0  0  0
   68.7077   80.7685   95.2084 C   0  0  0  0  0  0  0  0  0  0  0  0
   66.4287   82.9359   95.4811 C   0  0  0  0  0  0  0  0  0  0  0  0
   67.1139   82.4338   94.3385 O   0  0  0  0  0  0  0  0  0  0  0  0
   62.9553   74.9099   91.6286 C   0  0  0  0  0  0  0  0  0  0  0  0
   62.9672   76.0636   90.7865 O   0  0  0  0  0  0  0  0  0  0  0  0
   63.8802   76.3023   89.7457 C   0  0  0  0  0  0  0  0  0  0  0  0
   63.7107   75.6036   88.5489 C   0  0  0  0  0  0  0  0  0  0  0  0
   64.5885   75.8000   87.4831 C   0  0  0  0  0  0  0  0  0  0  0  0
   65.6545   76.6989   87.5922 C   0  0  0  0  0  0  0  0  0  0  0  0
   66.4507   76.9010   86.4626 O   0  0  0  0  0  0  0  0  0  0  0  0
   65.8662   77.3891   88.8123 C   0  0  0  0  0  0  0  0  0  0  0  0
   64.9534   77.2048   89.8667 C   0  0  0  0  0  0  0  0  0  0  0  0
   66.2765   76.4238   85.6752 H   0  0  0  0  0  0  0  0  0  0  0  0
   67.0350   78.2674   89.0433 C   0  0  0  0  0  0  0  0  0  0  0  0
   67.1525   79.3601   88.4271 O   0  0  0  0  0  0  0  0  0  0  0  0
   68.0531   77.8560   89.8989 O   0  0  0  0  0  0  0  0  0  0  0  0
   67.9766   77.0452   90.3624 H   0  0  0  0  0  0  0  0  0  0  0  0
 20 21  1  0  0  0
 21 14  1  0  0  0
 14 15  2  0  0  0
 15 16  1  0  0  0
 16 17  2  0  0  0
 17 13  1  0  0  0
 13  7  1  0  0  0
  7  8  2  0  0  0
  8  9  1  0  0  0
  9 10  2  0  0  0
 10 11  1  0  0  0
 11  1  1  0  0  0
  1  2  2  0  0  0
  2  3  1  0  0  0
  3  4  2  0  0  0
  4  5  1  0  0  0
  5 22  1  0  0  0
 22 23  1  0  0  0
 23 24  1  0  0  0
 24 25  2  0  0  0
 25 26  1  0  0  0
 26 27  2  0  0  0
 27 28  1  0  0  0
 27 29  1  0  0  0
 29 32  1  0  0  0
 32 33  2  0  0  0
 32 34  1  0  0  0
 29 30  2  0  0  0
  5  6  2  0  0  0
 11 12  2  0  0  0
 17 18  1  0  0  0
 18 19  2  0  0  0
 19 14  1  0  0  0
 12  7  1  0  0  0
  6  1  1  0  0  0
 30 24  1  0  0  0
 28 31  1  0  0  0
 34 35  1  0  0  0
M  END
> <Activity>
13.0

> <minimizedAffinity>
-7.93659

$$$$
HIPS6990


 35 38  0  0  0  0  0  0  0  0999 V2000
   68.6388   75.4635   92.4330 C   0  0  0  0  0  0  0  0  0  0  0  0
   69.7137   74.7243   92.9579 C   0  0  0  0  0  0  0  0  0  0  0  0
   69.6838   73.3276   92.9467 C   0  0  0  0  0  0  0  0  0  0  0  0
   68.5868   72.6526   92.4078 C   0  0  0  0  0  0  0  0  0  0  0  0
   67.5082   73.3715   91.8728 C   0  0  0  0  0  0  0  0  0  0  0  0
   67.5327   74.7752   91.9018 C   0  0  0  0  0  0  0  0  0  0  0  0
   68.9452   79.0596   93.6348 C   0  0  0  0  0  0  0  0  0  0  0  0
   68.7501   79.7568   92.4384 C   0  0  0  0  0  0  0  0  0  0  0  0
   68.5288   79.0651   91.2459 C   0  0  0  0  0  0  0  0  0  0  0  0
   68.4935   77.6687   91.2398 C   0  0  0  0  0  0  0  0  0  0  0  0
   68.6679   76.9477   92.4344 C   0  0  0  0  0  0  0  0  0  0  0  0
   68.8771   77.6546   93.6332 C   0  0  0  0  0  0  0  0  0  0  0  0
   69.1588   79.7914   94.8126 O   0  0  0  0  0  0  0  0  0  0  0  0
   66.7617   83.0173   96.1030 C   0  0  0  0  0  0  0  0  0  0  0  0
   67.6126   82.3762   97.0104 C   0  0  0  0  0  0  0  0  0  0  0  0
   68.4162   81.3092   96.5990 C   0  0  0  0  0  0  0  0  0  0  0  0
   68.3652   80.8552   95.2688 C   0  0  0  0  0  0  0  0  0  0  0  0
   67.5333   81.5108   94.3550 C   0  0  0  0  0  0  0  0  0  0  0  0
   66.7318   82.5808   94.7647 C   0  0  0  0  0  0  0  0  0  0  0  0
   65.7105   85.2687   95.8311 C   0  0  0  0  0  0  0  0  0  0  0  0
   65.9693   84.0776   96.5669 O   0  0  0  0  0  0  0  0  0  0  0  0
   66.3313   72.6390   91.2834 C   0  0  0  0  0  0  0  0  0  0  0  0
   65.1049   73.2780   91.6408 O   0  0  0  0  0  0  0  0  0  0  0  0
   64.5614   74.4085   91.0079 C   0  0  0  0  0  0  0  0  0  0  0  0
   63.6022   74.2080   90.0133 C   0  0  0  0  0  0  0  0  0  0  0  0
   63.0306   75.2940   89.3507 C   0  0  0  0  0  0  0  0  0  0  0  0
   63.4066   76.6031   89.6686 C   0  0  0  0  0  0  0  0  0  0  0  0
   62.7418   77.6449   89.0181 O   0  0  0  0  0  0  0  0  0  0  0  0
   64.4068   76.8258   90.6483 C   0  0  0  0  0  0  0  0  0  0  0  0
   64.9502   75.7221   91.3306 C   0  0  0  0  0  0  0  0  0  0  0  0
   62.0865   77.4539   88.3761 H   0  0  0  0  0  0  0  0  0  0  0  0
   64.9392   78.1718   90.9578 C   0  0  0  0  0  0  0  0  0  0  0  0
   65.1572   79.0061   90.0391 O   0  0  0  0  0  0  0  0  0  0  0  0
   65.2688   78.5024   92.2692 O   0  0  0  0  0  0  0  0  0  0  0  0
   65.1112   77.8898   92.9605 H   0  0  0  0  0  0  0  0  0  0  0  0
 20 21  1  0  0  0
 21 14  1  0  0  0
 14 15  2  0  0  0
 15 16  1  0  0  0
 16 17  2  0  0  0
 17 13  1  0  0  0
 13  7  1  0  0  0
  7  8  2  0  0  0
  8  9  1  0  0  0
  9 10  2  0  0  0
 10 11  1  0  0  0
 11  1  1  0  0  0
  1  2  2  0  0  0
  2  3  1  0  0  0
  3  4  2  0  0  0
  4  5  1  0  0  0
  5 22  1  0  0  0
 22 23  1  0  0  0
 23 24  1  0  0  0
 24 25  2  0  0  0
 25 26  1  0  0  0
 26 27  2  0  0  0
 27 28  1  0  0  0
 27 29  1  0  0  0
 29 32  1  0  0  0
 32 33  2  0  0  0
 32 34  1  0  0  0
 29 30  2  0  0  0
  5  6  2  0  0  0
 11 12  2  0  0  0
 17 18  1  0  0  0
 18 19  2  0  0  0
 19 14  1  0  0  0
 12  7  1  0  0  0
  6  1  1  0  0  0
 30 24  1  0  0  0
 28 31  1  0  0  0
 34 35  1  0  0  0
M  END
> <Activity>
13.0

> <minimizedAffinity>
-7.78344

$$$$
HIPS6990


 35 38  0  0  0  0  0  0  0  0999 V2000
   68.5223   77.2467   88.8599 C   0  0  0  0  0  0  0  0  0  0  0  0
   68.9146   78.3597   88.0952 C   0  0  0  0  0  0  0  0  0  0  0  0
   68.1606   78.7587   86.9890 C   0  0  0  0  0  0  0  0  0  0  0  0
   67.0057   78.0580   86.6360 C   0  0  0  0  0  0  0  0  0  0  0  0
   66.5936   76.9499   87.3901 C   0  0  0  0  0  0  0  0  0  0  0  0
   67.3632   76.5399   88.4907 C   0  0  0  0  0  0  0  0  0  0  0  0
   69.7634   76.9357   92.4422 C   0  0  0  0  0  0  0  0  0  0  0  0
   70.7936   76.0031   92.2862 C   0  0  0  0  0  0  0  0  0  0  0  0
   71.0798   75.4707   91.0275 C   0  0  0  0  0  0  0  0  0  0  0  0
   70.3422   75.8714   89.9110 C   0  0  0  0  0  0  0  0  0  0  0  0
   69.3145   76.8223   90.0415 C   0  0  0  0  0  0  0  0  0  0  0  0
   69.0428   77.3628   91.3122 C   0  0  0  0  0  0  0  0  0  0  0  0
   69.5111   77.4513   93.7224 O   0  0  0  0  0  0  0  0  0  0  0  0
   67.7021   81.1893   94.4789 C   0  0  0  0  0  0  0  0  0  0  0  0
   68.7021   80.7143   95.3349 C   0  0  0  0  0  0  0  0  0  0  0  0
   69.3144   79.4808   95.0968 C   0  0  0  0  0  0  0  0  0  0  0  0
   68.9189   78.6928   94.0011 C   0  0  0  0  0  0  0  0  0  0  0  0
   67.9367   79.1774   93.1307 C   0  0  0  0  0  0  0  0  0  0  0  0
   67.3261   80.4131   93.3660 C   0  0  0  0  0  0  0  0  0  0  0  0
   66.8077   82.8897   96.0778 C   0  0  0  0  0  0  0  0  0  0  0  0
   67.1126   82.4294   94.7655 O   0  0  0  0  0  0  0  0  0  0  0  0
   65.3414   76.2031   87.0116 C   0  0  0  0  0  0  0  0  0  0  0  0
   64.3289   76.3736   88.0045 O   0  0  0  0  0  0  0  0  0  0  0  0
   64.1985   75.6064   89.1743 C   0  0  0  0  0  0  0  0  0  0  0  0
   62.9127   75.3602   89.6595 C   0  0  0  0  0  0  0  0  0  0  0  0
   62.7245   74.6063   90.8177 C   0  0  0  0  0  0  0  0  0  0  0  0
   63.8183   74.0834   91.5151 C   0  0  0  0  0  0  0  0  0  0  0  0
   63.5548   73.2773   92.6247 O   0  0  0  0  0  0  0  0  0  0  0  0
   65.1333   74.3548   91.0601 C   0  0  0  0  0  0  0  0  0  0  0  0
   65.3056   75.0890   89.8725 C   0  0  0  0  0  0  0  0  0  0  0  0
   62.6701   73.1232   92.8922 H   0  0  0  0  0  0  0  0  0  0  0  0
   66.3413   73.9346   91.8052 C   0  0  0  0  0  0  0  0  0  0  0  0
   66.9280   72.8550   91.5264 O   0  0  0  0  0  0  0  0  0  0  0  0
   66.8001   74.7025   92.8717 O   0  0  0  0  0  0  0  0  0  0  0  0
   66.3716   75.5072   93.0882 H   0  0  0  0  0  0  0  0  0  0  0  0
 20 21  1  0  0  0
 21 14  1  0  0  0
 14 15  2  0  0  0
 15 16  1  0  0  0
 16 17  2  0  0  0
 17 13  1  0  0  0
 13  7  1  0  0  0
  7  8  2  0  0  0
  8  9  1  0  0  0
  9 10  2  0  0  0
 10 11  1  0  0  0
 11  1  1  0  0  0
  1  2  2  0  0  0
  2  3  1  0  0  0
  3  4  2  0  0  0
  4  5  1  0  0  0
  5 22  1  0  0  0
 22 23  1  0  0  0
 23 24  1  0  0  0
 24 25  2  0  0  0
 25 26  1  0  0  0
 26 27  2  0  0  0
 27 28  1  0  0  0
 27 29  1  0  0  0
 29 32  1  0  0  0
 32 33  2  0  0  0
 32 34  1  0  0  0
 29 30  2  0  0  0
  5  6  2  0  0  0
 11 12  2  0  0  0
 17 18  1  0  0  0
 18 19  2  0  0  0
 19 14  1  0  0  0
 12  7  1  0  0  0
  6  1  1  0  0  0
 30 24  1  0  0  0
 28 31  1  0  0  0
 34 35  1  0  0  0
M  END
> <Activity>
13.0

> <minimizedAffinity>
-7.62266

$$$$
HIPS6985


 32 35  0  0  0  0  0  0  0  0999 V2000
   68.1475   74.7704   92.0475 C   0  0  0  0  0  0  0  0  0  0  0  0
   68.7199   75.2309   93.2421 C   0  0  0  0  0  0  0  0  0  0  0  0
   69.3007   76.4763   93.2957 C   0  0  0  0  0  0  0  0  0  0  0  0
   69.3337   77.2950   92.1851 C   0  0  0  0  0  0  0  0  0  0  0  0
   68.7768   76.8697   90.9884 C   0  0  0  0  0  0  0  0  0  0  0  0
   68.2074   75.6213   90.9760 C   0  0  0  0  0  0  0  0  0  0  0  0
   68.8176   77.7442   89.8218 C   0  0  0  0  0  0  0  0  0  0  0  0
   68.0108   77.5320   88.7158 C   0  0  0  0  0  0  0  0  0  0  0  0
   68.0703   78.3773   87.6238 C   0  0  0  0  0  0  0  0  0  0  0  0
   68.9268   79.4680   87.5744 C   0  0  0  0  0  0  0  0  0  0  0  0
   69.7323   79.6888   88.6662 C   0  0  0  0  0  0  0  0  0  0  0  0
   69.6648   78.8259   89.7688 C   0  0  0  0  0  0  0  0  0  0  0  0
   70.5983   80.7379   88.6917 O   0  0  0  0  0  0  0  0  0  0  0  0
   71.9408   80.7173   88.3742 C   0  0  0  0  0  0  0  0  0  0  0  0
   72.6401   81.9644   88.8987 C   0  0  0  0  0  0  0  0  0  0  0  0
   74.0927   81.5784   88.8272 C   0  0  0  0  0  0  0  0  0  0  0  0
   74.1536   80.0780   88.8509 C   0  0  0  0  0  0  0  0  0  0  0  0
   72.7139   79.6443   89.1358 C   0  0  0  0  0  0  0  0  0  0  0  0
   67.5432   73.4022   91.9954 C   0  0  0  0  0  0  0  0  0  0  0  0
   66.4889   73.2793   91.1716 O   0  0  0  0  0  0  0  0  0  0  0  0
   63.6439   75.3251   90.2178 C   0  0  0  0  0  0  0  0  0  0  0  0
   64.9173   74.8751   90.4007 C   0  0  0  0  0  0  0  0  0  0  0  0
   65.2156   73.6436   91.0323 C   0  0  0  0  0  0  0  0  0  0  0  0
   64.1698   72.8769   91.4766 C   0  0  0  0  0  0  0  0  0  0  0  0
   62.8815   73.3215   91.2969 C   0  0  0  0  0  0  0  0  0  0  0  0
   62.6112   74.5348   90.6736 C   0  0  0  0  0  0  0  0  0  0  0  0
   61.2923   74.9355   90.5183 O   0  0  0  0  0  0  0  0  0  0  0  0
   60.5972   74.3909   90.8316 H   0  0  0  0  0  0  0  0  0  0  0  0
   63.7604   77.6698   89.9595 O   0  0  0  0  0  0  0  0  0  0  0  0
   63.3119   76.5826   89.5738 C   0  0  0  0  0  0  0  0  0  0  0  0
   62.4602   76.5629   88.4854 O   0  0  0  0  0  0  0  0  0  0  0  0
   62.1105   75.7495   88.1788 H   0  0  0  0  0  0  0  0  0  0  0  0
 29 30  2  0  0  0
 30 31  1  0  0  0
 30 21  1  0  0  0
 21 22  2  0  0  0
 22 23  1  0  0  0
 23 20  1  0  0  0
 20 19  1  0  0  0
 19  1  1  0  0  0
  1  2  2  0  0  0
  2  3  1  0  0  0
  3  4  2  0  0  0
  4  5  1  0  0  0
  5  7  1  0  0  0
  7  8  2  0  0  0
  8  9  1  0  0  0
  9 10  2  0  0  0
 10 11  1  0  0  0
 11 13  1  0  0  0
 13 14  1  0  0  0
 14 15  1  0  0  0
 15 16  1  0  0  0
 16 17  1  0  0  0
 17 18  1  0  0  0
 11 12  2  0  0  0
  5  6  2  0  0  0
 23 24  2  0  0  0
 24 25  1  0  0  0
 25 26  2  0  0  0
 26 27  1  0  0  0
 26 21  1  0  0  0
  6  1  1  0  0  0
 12  7  1  0  0  0
 18 14  1  0  0  0
 31 32  1  0  0  0
 27 28  1  0  0  0
M  END
> <Activity>
13.3

> <minimizedAffinity>
-10.33662

$$$$
HIPS6985


 32 35  0  0  0  0  0  0  0  0999 V2000
   67.6966   74.6474   91.6265 C   0  0  0  0  0  0  0  0  0  0  0  0
   68.8230   74.4820   92.4455 C   0  0  0  0  0  0  0  0  0  0  0  0
   69.9154   75.3032   92.2933 C   0  0  0  0  0  0  0  0  0  0  0  0
   69.9290   76.3007   91.3395 C   0  0  0  0  0  0  0  0  0  0  0  0
   68.8315   76.4908   90.5135 C   0  0  0  0  0  0  0  0  0  0  0  0
   67.7619   75.6510   90.6967 C   0  0  0  0  0  0  0  0  0  0  0  0
   68.8578   77.5485   89.5096 C   0  0  0  0  0  0  0  0  0  0  0  0
   68.0128   77.5410   88.4119 C   0  0  0  0  0  0  0  0  0  0  0  0
   68.0593   78.5571   87.4760 C   0  0  0  0  0  0  0  0  0  0  0  0
   68.9400   79.6244   87.5813 C   0  0  0  0  0  0  0  0  0  0  0  0
   69.7835   79.6428   88.6665 C   0  0  0  0  0  0  0  0  0  0  0  0
   69.7288   78.6077   89.6102 C   0  0  0  0  0  0  0  0  0  0  0  0
   70.6749   80.6563   88.8384 O   0  0  0  0  0  0  0  0  0  0  0  0
   71.9997   80.6740   88.4537 C   0  0  0  0  0  0  0  0  0  0  0  0
   72.6868   81.9440   88.9379 C   0  0  0  0  0  0  0  0  0  0  0  0
   74.1450   81.6010   88.7946 C   0  0  0  0  0  0  0  0  0  0  0  0
   74.2519   80.1032   88.8204 C   0  0  0  0  0  0  0  0  0  0  0  0
   72.8420   79.6283   89.1790 C   0  0  0  0  0  0  0  0  0  0  0  0
   66.5253   73.7292   91.7841 C   0  0  0  0  0  0  0  0  0  0  0  0
   65.3237   74.3266   91.7167 O   0  0  0  0  0  0  0  0  0  0  0  0
   62.7449   74.9405   89.2343 C   0  0  0  0  0  0  0  0  0  0  0  0
   63.5884   74.3168   90.1044 C   0  0  0  0  0  0  0  0  0  0  0  0
   64.5363   75.0142   90.8916 C   0  0  0  0  0  0  0  0  0  0  0  0
   64.6011   76.3775   90.7655 C   0  0  0  0  0  0  0  0  0  0  0  0
   63.7546   77.0165   89.8908 C   0  0  0  0  0  0  0  0  0  0  0  0
   62.8307   76.3116   89.1272 C   0  0  0  0  0  0  0  0  0  0  0  0
   62.0006   77.0064   88.2598 O   0  0  0  0  0  0  0  0  0  0  0  0
   62.0668   77.9388   88.1942 H   0  0  0  0  0  0  0  0  0  0  0  0
   60.5467   74.4297   88.5379 O   0  0  0  0  0  0  0  0  0  0  0  0
   61.7651   74.2490   88.4169 C   0  0  0  0  0  0  0  0  0  0  0  0
   62.2133   73.3526   87.4650 O   0  0  0  0  0  0  0  0  0  0  0  0
   63.1321   73.2025   87.3586 H   0  0  0  0  0  0  0  0  0  0  0  0
 29 30  2  0  0  0
 30 31  1  0  0  0
 30 21  1  0  0  0
 21 22  2  0  0  0
 22 23  1  0  0  0
 23 20  1  0  0  0
 20 19  1  0  0  0
 19  1  1  0  0  0
  1  2  2  0  0  0
  2  3  1  0  0  0
  3  4  2  0  0  0
  4  5  1  0  0  0
  5  7  1  0  0  0
  7  8  2  0  0  0
  8  9  1  0  0  0
  9 10  2  0  0  0
 10 11  1  0  0  0
 11 13  1  0  0  0
 13 14  1  0  0  0
 14 15  1  0  0  0
 15 16  1  0  0  0
 16 17  1  0  0  0
 17 18  1  0  0  0
 11 12  2  0  0  0
  5  6  2  0  0  0
 23 24  2  0  0  0
 24 25  1  0  0  0
 25 26  2  0  0  0
 26 27  1  0  0  0
 26 21  1  0  0  0
  6  1  1  0  0  0
 12  7  1  0  0  0
 18 14  1  0  0  0
 31 32  1  0  0  0
 27 28  1  0  0  0
M  END
> <Activity>
13.3

> <minimizedAffinity>
-10.06531

$$$$
HIPS6985


 32 35  0  0  0  0  0  0  0  0999 V2000
   70.1641   76.0043   90.5682 C   0  0  0  0  0  0  0  0  0  0  0  0
   70.9828   75.5462   91.6107 C   0  0  0  0  0  0  0  0  0  0  0  0
   70.4855   74.6697   92.5465 C   0  0  0  0  0  0  0  0  0  0  0  0
   69.1808   74.2242   92.4824 C   0  0  0  0  0  0  0  0  0  0  0  0
   68.3450   74.6580   91.4644 C   0  0  0  0  0  0  0  0  0  0  0  0
   68.8787   75.5320   90.5510 C   0  0  0  0  0  0  0  0  0  0  0  0
   66.9683   74.1798   91.4072 C   0  0  0  0  0  0  0  0  0  0  0  0
   66.6611   72.8305   91.3436 C   0  0  0  0  0  0  0  0  0  0  0  0
   65.3469   72.4056   91.2905 C   0  0  0  0  0  0  0  0  0  0  0  0
   64.2788   73.2916   91.2980 C   0  0  0  0  0  0  0  0  0  0  0  0
   64.5712   74.6332   91.3609 C   0  0  0  0  0  0  0  0  0  0  0  0
   65.9072   75.0542   91.4143 C   0  0  0  0  0  0  0  0  0  0  0  0
   63.5775   75.5626   91.3721 O   0  0  0  0  0  0  0  0  0  0  0  0
   62.6492   75.8008   90.3795 C   0  0  0  0  0  0  0  0  0  0  0  0
   63.3299   75.9398   89.0242 C   0  0  0  0  0  0  0  0  0  0  0  0
   62.1814   75.7824   88.0647 C   0  0  0  0  0  0  0  0  0  0  0  0
   61.1030   75.0256   88.7855 C   0  0  0  0  0  0  0  0  0  0  0  0
   61.7560   74.5952   90.1010 C   0  0  0  0  0  0  0  0  0  0  0  0
   70.7096   76.9792   89.5723 C   0  0  0  0  0  0  0  0  0  0  0  0
   69.8557   77.9479   89.2013 O   0  0  0  0  0  0  0  0  0  0  0  0
   67.9747   80.0514   86.9151 C   0  0  0  0  0  0  0  0  0  0  0  0
   68.8432   79.6315   87.8779 C   0  0  0  0  0  0  0  0  0  0  0  0
   68.9834   78.2723   88.2487 C   0  0  0  0  0  0  0  0  0  0  0  0
   68.2061   77.3448   87.6050 C   0  0  0  0  0  0  0  0  0  0  0  0
   67.3270   77.7578   86.6322 C   0  0  0  0  0  0  0  0  0  0  0  0
   67.2055   79.0984   86.2835 C   0  0  0  0  0  0  0  0  0  0  0  0
   66.3024   79.4602   85.2947 O   0  0  0  0  0  0  0  0  0  0  0  0
   65.7840   78.8046   84.8711 H   0  0  0  0  0  0  0  0  0  0  0  0
   68.3049   81.8965   85.4783 O   0  0  0  0  0  0  0  0  0  0  0  0
   67.8125   81.4375   86.5168 C   0  0  0  0  0  0  0  0  0  0  0  0
   67.0775   82.2775   87.3322 O   0  0  0  0  0  0  0  0  0  0  0  0
   66.6969   81.9483   88.1226 H   0  0  0  0  0  0  0  0  0  0  0  0
 29 30  2  0  0  0
 30 31  1  0  0  0
 30 21  1  0  0  0
 21 22  2  0  0  0
 22 23  1  0  0  0
 23 20  1  0  0  0
 20 19  1  0  0  0
 19  1  1  0  0  0
  1  2  2  0  0  0
  2  3  1  0  0  0
  3  4  2  0  0  0
  4  5  1  0  0  0
  5  7  1  0  0  0
  7  8  2  0  0  0
  8  9  1  0  0  0
  9 10  2  0  0  0
 10 11  1  0  0  0
 11 13  1  0  0  0
 13 14  1  0  0  0
 14 15  1  0  0  0
 15 16  1  0  0  0
 16 17  1  0  0  0
 17 18  1  0  0  0
 11 12  2  0  0  0
  5  6  2  0  0  0
 23 24  2  0  0  0
 24 25  1  0  0  0
 25 26  2  0  0  0
 26 27  1  0  0  0
 26 21  1  0  0  0
  6  1  1  0  0  0
 12  7  1  0  0  0
 18 14  1  0  0  0
 31 32  1  0  0  0
 27 28  1  0  0  0
M  END
> <Activity>
13.3

> <minimizedAffinity>
-10.00348

$$$$
HIPS6985


 32 35  0  0  0  0  0  0  0  0999 V2000
   67.7054   73.8828   91.8625 C   0  0  0  0  0  0  0  0  0  0  0  0
   68.5486   73.3550   92.8511 C   0  0  0  0  0  0  0  0  0  0  0  0
   69.8104   73.8711   93.0315 C   0  0  0  0  0  0  0  0  0  0  0  0
   70.2726   74.9113   92.2511 C   0  0  0  0  0  0  0  0  0  0  0  0
   69.4642   75.4558   91.2647 C   0  0  0  0  0  0  0  0  0  0  0  0
   68.2126   74.9131   91.1162 C   0  0  0  0  0  0  0  0  0  0  0  0
   69.9638   76.5551   90.4467 C   0  0  0  0  0  0  0  0  0  0  0  0
   71.3186   76.7722   90.2557 C   0  0  0  0  0  0  0  0  0  0  0  0
   71.7638   77.8221   89.4747 C   0  0  0  0  0  0  0  0  0  0  0  0
   70.8938   78.7032   88.8483 C   0  0  0  0  0  0  0  0  0  0  0  0
   69.5469   78.4978   89.0305 C   0  0  0  0  0  0  0  0  0  0  0  0
   69.1051   77.4303   89.8243 C   0  0  0  0  0  0  0  0  0  0  0  0
   68.6322   79.3199   88.4484 O   0  0  0  0  0  0  0  0  0  0  0  0
   68.5943   79.7214   87.1290 C   0  0  0  0  0  0  0  0  0  0  0  0
   67.2055   79.5133   86.5398 C   0  0  0  0  0  0  0  0  0  0  0  0
   67.2503   80.3552   85.2933 C   0  0  0  0  0  0  0  0  0  0  0  0
   68.3149   81.3942   85.4991 C   0  0  0  0  0  0  0  0  0  0  0  0
   68.7240   81.2331   86.9650 C   0  0  0  0  0  0  0  0  0  0  0  0
   66.3448   73.2937   91.6582 C   0  0  0  0  0  0  0  0  0  0  0  0
   65.3352   74.1800   91.6755 O   0  0  0  0  0  0  0  0  0  0  0  0
   62.7417   74.9247   89.2447 C   0  0  0  0  0  0  0  0  0  0  0  0
   63.5746   74.2578   90.0927 C   0  0  0  0  0  0  0  0  0  0  0  0
   64.5614   74.9080   90.8724 C   0  0  0  0  0  0  0  0  0  0  0  0
   64.6766   76.2694   90.7622 C   0  0  0  0  0  0  0  0  0  0  0  0
   63.8413   76.9517   89.9099 C   0  0  0  0  0  0  0  0  0  0  0  0
   62.8785   76.2928   89.1532 C   0  0  0  0  0  0  0  0  0  0  0  0
   62.0618   77.0302   88.3087 O   0  0  0  0  0  0  0  0  0  0  0  0
   62.1627   77.9601   88.2536 H   0  0  0  0  0  0  0  0  0  0  0  0
   60.5239   74.5802   88.5094 O   0  0  0  0  0  0  0  0  0  0  0  0
   61.7228   74.2820   88.4353 C   0  0  0  0  0  0  0  0  0  0  0  0
   62.1095   73.2971   87.5460 O   0  0  0  0  0  0  0  0  0  0  0  0
   63.0126   73.0576   87.4757 H   0  0  0  0  0  0  0  0  0  0  0  0
 29 30  2  0  0  0
 30 31  1  0  0  0
 30 21  1  0  0  0
 21 22  2  0  0  0
 22 23  1  0  0  0
 23 20  1  0  0  0
 20 19  1  0  0  0
 19  1  1  0  0  0
  1  2  2  0  0  0
  2  3  1  0  0  0
  3  4  2  0  0  0
  4  5  1  0  0  0
  5  7  1  0  0  0
  7  8  2  0  0  0
  8  9  1  0  0  0
  9 10  2  0  0  0
 10 11  1  0  0  0
 11 13  1  0  0  0
 13 14  1  0  0  0
 14 15  1  0  0  0
 15 16  1  0  0  0
 16 17  1  0  0  0
 17 18  1  0  0  0
 11 12  2  0  0  0
  5  6  2  0  0  0
 23 24  2  0  0  0
 24 25  1  0  0  0
 25 26  2  0  0  0
 26 27  1  0  0  0
 26 21  1  0  0  0
  6  1  1  0  0  0
 12  7  1  0  0  0
 18 14  1  0  0  0
 31 32  1  0  0  0
 27 28  1  0  0  0
M  END
> <Activity>
13.3

> <minimizedAffinity>
-9.98220

$$$$
HIPS6985


 32 35  0  0  0  0  0  0  0  0999 V2000
   68.8822   74.8046   91.4296 C   0  0  0  0  0  0  0  0  0  0  0  0
   70.2099   74.6398   91.8505 C   0  0  0  0  0  0  0  0  0  0  0  0
   71.1909   75.4877   91.3924 C   0  0  0  0  0  0  0  0  0  0  0  0
   70.8948   76.5114   90.5155 C   0  0  0  0  0  0  0  0  0  0  0  0
   69.5921   76.7016   90.0797 C   0  0  0  0  0  0  0  0  0  0  0  0
   68.6427   75.8348   90.5596 C   0  0  0  0  0  0  0  0  0  0  0  0
   69.2917   77.7872   89.1533 C   0  0  0  0  0  0  0  0  0  0  0  0
   68.1798   77.7621   88.3274 C   0  0  0  0  0  0  0  0  0  0  0  0
   67.9194   78.8055   87.4590 C   0  0  0  0  0  0  0  0  0  0  0  0
   68.7431   79.9185   87.3669 C   0  0  0  0  0  0  0  0  0  0  0  0
   69.8497   79.9548   88.1816 C   0  0  0  0  0  0  0  0  0  0  0  0
   70.1052   78.8918   89.0589 C   0  0  0  0  0  0  0  0  0  0  0  0
   70.7044   81.0129   88.1482 O   0  0  0  0  0  0  0  0  0  0  0  0
   71.8533   81.1789   88.8938 C   0  0  0  0  0  0  0  0  0  0  0  0
   72.9609   80.2616   88.3926 C   0  0  0  0  0  0  0  0  0  0  0  0
   74.1897   80.8592   89.0227 C   0  0  0  0  0  0  0  0  0  0  0  0
   73.8774   82.2967   89.3251 C   0  0  0  0  0  0  0  0  0  0  0  0
   72.5156   82.5353   88.6690 C   0  0  0  0  0  0  0  0  0  0  0  0
   67.8291   73.8580   91.9143 C   0  0  0  0  0  0  0  0  0  0  0  0
   66.7723   73.7189   91.0963 O   0  0  0  0  0  0  0  0  0  0  0  0
   63.2032   74.0968   91.6514 C   0  0  0  0  0  0  0  0  0  0  0  0
   64.5031   73.7064   91.7757 C   0  0  0  0  0  0  0  0  0  0  0  0
   65.5272   74.1507   90.9047 C   0  0  0  0  0  0  0  0  0  0  0  0
   65.1857   75.0115   89.8942 C   0  0  0  0  0  0  0  0  0  0  0  0
   63.8773   75.4116   89.7601 C   0  0  0  0  0  0  0  0  0  0  0  0
   62.8873   74.9629   90.6273 C   0  0  0  0  0  0  0  0  0  0  0  0
   61.5827   75.3982   90.4465 O   0  0  0  0  0  0  0  0  0  0  0  0
   61.3781   75.9872   89.7470 H   0  0  0  0  0  0  0  0  0  0  0  0
   60.9424   73.6963   92.2049 O   0  0  0  0  0  0  0  0  0  0  0  0
   62.1358   73.6563   92.5305 C   0  0  0  0  0  0  0  0  0  0  0  0
   62.4679   73.1725   93.7820 O   0  0  0  0  0  0  0  0  0  0  0  0
   63.3660   73.1345   94.0465 H   0  0  0  0  0  0  0  0  0  0  0  0
 29 30  2  0  0  0
 30 31  1  0  0  0
 30 21  1  0  0  0
 21 22  2  0  0  0
 22 23  1  0  0  0
 23 20  1  0  0  0
 20 19  1  0  0  0
 19  1  1  0  0  0
  1  2  2  0  0  0
  2  3  1  0  0  0
  3  4  2  0  0  0
  4  5  1  0  0  0
  5  7  1  0  0  0
  7  8  2  0  0  0
  8  9  1  0  0  0
  9 10  2  0  0  0
 10 11  1  0  0  0
 11 13  1  0  0  0
 13 14  1  0  0  0
 14 15  1  0  0  0
 15 16  1  0  0  0
 16 17  1  0  0  0
 17 18  1  0  0  0
 11 12  2  0  0  0
  5  6  2  0  0  0
 23 24  2  0  0  0
 24 25  1  0  0  0
 25 26  2  0  0  0
 26 27  1  0  0  0
 26 21  1  0  0  0
  6  1  1  0  0  0
 12  7  1  0  0  0
 18 14  1  0  0  0
 31 32  1  0  0  0
 27 28  1  0  0  0
M  END
> <Activity>
13.3

> <minimizedAffinity>
-9.75513

$$$$
HIPS6985


 32 35  0  0  0  0  0  0  0  0999 V2000
   67.9548   73.7434   91.8275 C   0  0  0  0  0  0  0  0  0  0  0  0
   68.9111   73.4556   92.8122 C   0  0  0  0  0  0  0  0  0  0  0  0
   70.0606   74.2054   92.9001 C   0  0  0  0  0  0  0  0  0  0  0  0
   70.2981   75.2494   92.0292 C   0  0  0  0  0  0  0  0  0  0  0  0
   69.3730   75.5601   91.0440 C   0  0  0  0  0  0  0  0  0  0  0  0
   68.2395   74.7885   90.9893 C   0  0  0  0  0  0  0  0  0  0  0  0
   69.6352   76.6659   90.1299 C   0  0  0  0  0  0  0  0  0  0  0  0
   68.6273   77.2628   89.3903 C   0  0  0  0  0  0  0  0  0  0  0  0
   68.9047   78.3097   88.5316 C   0  0  0  0  0  0  0  0  0  0  0  0
   70.1868   78.8138   88.3645 C   0  0  0  0  0  0  0  0  0  0  0  0
   71.1953   78.2295   89.0932 C   0  0  0  0  0  0  0  0  0  0  0  0
   70.9040   77.1682   89.9614 C   0  0  0  0  0  0  0  0  0  0  0  0
   72.4784   78.6688   88.9830 O   0  0  0  0  0  0  0  0  0  0  0  0
   72.9005   79.8985   88.5212 C   0  0  0  0  0  0  0  0  0  0  0  0
   71.9548   81.0016   88.9775 C   0  0  0  0  0  0  0  0  0  0  0  0
   72.7686   82.2458   88.7449 C   0  0  0  0  0  0  0  0  0  0  0  0
   74.2136   81.8367   88.7486 C   0  0  0  0  0  0  0  0  0  0  0  0
   74.1915   80.3699   89.1846 C   0  0  0  0  0  0  0  0  0  0  0  0
   66.7212   72.9023   91.7253 C   0  0  0  0  0  0  0  0  0  0  0  0
   65.5652   73.5867   91.7476 O   0  0  0  0  0  0  0  0  0  0  0  0
   64.6961   76.9596   90.7192 C   0  0  0  0  0  0  0  0  0  0  0  0
   65.3128   75.9027   91.3195 C   0  0  0  0  0  0  0  0  0  0  0  0
   64.9078   74.5607   91.1209 C   0  0  0  0  0  0  0  0  0  0  0  0
   63.8467   74.3242   90.2860 C   0  0  0  0  0  0  0  0  0  0  0  0
   63.2178   75.3831   89.6754 C   0  0  0  0  0  0  0  0  0  0  0  0
   63.6324   76.6939   89.8846 C   0  0  0  0  0  0  0  0  0  0  0  0
   62.9619   77.7250   89.2432 O   0  0  0  0  0  0  0  0  0  0  0  0
   62.2398   77.5339   88.6776 H   0  0  0  0  0  0  0  0  0  0  0  0
   65.6403   79.0075   90.0172 O   0  0  0  0  0  0  0  0  0  0  0  0
   65.0918   78.3434   90.9060 C   0  0  0  0  0  0  0  0  0  0  0  0
   64.8449   78.9421   92.1272 O   0  0  0  0  0  0  0  0  0  0  0  0
   64.4306   78.4554   92.8123 H   0  0  0  0  0  0  0  0  0  0  0  0
 29 30  2  0  0  0
 30 31  1  0  0  0
 30 21  1  0  0  0
 21 22  2  0  0  0
 22 23  1  0  0  0
 23 20  1  0  0  0
 20 19  1  0  0  0
 19  1  1  0  0  0
  1  2  2  0  0  0
  2  3  1  0  0  0
  3  4  2  0  0  0
  4  5  1  0  0  0
  5  7  1  0  0  0
  7  8  2  0  0  0
  8  9  1  0  0  0
  9 10  2  0  0  0
 10 11  1  0  0  0
 11 13  1  0  0  0
 13 14  1  0  0  0
 14 15  1  0  0  0
 15 16  1  0  0  0
 16 17  1  0  0  0
 17 18  1  0  0  0
 11 12  2  0  0  0
  5  6  2  0  0  0
 23 24  2  0  0  0
 24 25  1  0  0  0
 25 26  2  0  0  0
 26 27  1  0  0  0
 26 21  1  0  0  0
  6  1  1  0  0  0
 12  7  1  0  0  0
 18 14  1  0  0  0
 31 32  1  0  0  0
 27 28  1  0  0  0
M  END
> <Activity>
13.3

> <minimizedAffinity>
-9.66761

$$$$
HIPS6985


 32 35  0  0  0  0  0  0  0  0999 V2000
   68.5692   75.8602   89.7689 C   0  0  0  0  0  0  0  0  0  0  0  0
   67.8158   75.4948   88.6437 C   0  0  0  0  0  0  0  0  0  0  0  0
   67.7796   76.3141   87.5398 C   0  0  0  0  0  0  0  0  0  0  0  0
   68.4774   77.5045   87.5133 C   0  0  0  0  0  0  0  0  0  0  0  0
   69.2318   77.8952   88.6093 C   0  0  0  0  0  0  0  0  0  0  0  0
   69.2420   77.0505   89.6907 C   0  0  0  0  0  0  0  0  0  0  0  0
   69.9652   79.1552   88.5691 C   0  0  0  0  0  0  0  0  0  0  0  0
   69.3851   80.3291   88.1167 C   0  0  0  0  0  0  0  0  0  0  0  0
   70.1040   81.5093   88.0899 C   0  0  0  0  0  0  0  0  0  0  0  0
   71.4253   81.5840   88.5077 C   0  0  0  0  0  0  0  0  0  0  0  0
   72.0118   80.4255   88.9587 C   0  0  0  0  0  0  0  0  0  0  0  0
   71.2744   79.2336   88.9820 C   0  0  0  0  0  0  0  0  0  0  0  0
   73.3039   80.4194   89.3848 O   0  0  0  0  0  0  0  0  0  0  0  0
   74.2164   81.4501   89.2907 C   0  0  0  0  0  0  0  0  0  0  0  0
   75.2052   81.1958   88.1607 C   0  0  0  0  0  0  0  0  0  0  0  0
   75.8223   82.5528   87.9556 C   0  0  0  0  0  0  0  0  0  0  0  0
   74.8468   83.5666   88.4811 C   0  0  0  0  0  0  0  0  0  0  0  0
   73.5907   82.7535   88.8023 C   0  0  0  0  0  0  0  0  0  0  0  0
   68.5779   74.9728   90.9740 C   0  0  0  0  0  0  0  0  0  0  0  0
   67.4902   74.1967   91.1142 O   0  0  0  0  0  0  0  0  0  0  0  0
   64.1588   75.6391   91.0107 C   0  0  0  0  0  0  0  0  0  0  0  0
   65.5135   75.4946   90.9746 C   0  0  0  0  0  0  0  0  0  0  0  0
   66.1604   74.2495   91.1641 C   0  0  0  0  0  0  0  0  0  0  0  0
   65.3804   73.1460   91.3940 C   0  0  0  0  0  0  0  0  0  0  0  0
   64.0129   73.2809   91.4321 C   0  0  0  0  0  0  0  0  0  0  0  0
   63.3982   74.5138   91.2431 C   0  0  0  0  0  0  0  0  0  0  0  0
   62.0143   74.5934   91.2920 O   0  0  0  0  0  0  0  0  0  0  0  0
   61.5060   73.8223   91.4506 H   0  0  0  0  0  0  0  0  0  0  0  0
   63.2022   77.6657   91.7563 O   0  0  0  0  0  0  0  0  0  0  0  0
   63.4719   76.9032   90.8195 C   0  0  0  0  0  0  0  0  0  0  0  0
   63.1052   77.2686   89.5378 O   0  0  0  0  0  0  0  0  0  0  0  0
   63.3008   76.7045   88.8158 H   0  0  0  0  0  0  0  0  0  0  0  0
 29 30  2  0  0  0
 30 31  1  0  0  0
 30 21  1  0  0  0
 21 22  2  0  0  0
 22 23  1  0  0  0
 23 20  1  0  0  0
 20 19  1  0  0  0
 19  1  1  0  0  0
  1  2  2  0  0  0
  2  3  1  0  0  0
  3  4  2  0  0  0
  4  5  1  0  0  0
  5  7  1  0  0  0
  7  8  2  0  0  0
  8  9  1  0  0  0
  9 10  2  0  0  0
 10 11  1  0  0  0
 11 13  1  0  0  0
 13 14  1  0  0  0
 14 15  1  0  0  0
 15 16  1  0  0  0
 16 17  1  0  0  0
 17 18  1  0  0  0
 11 12  2  0  0  0
  5  6  2  0  0  0
 23 24  2  0  0  0
 24 25  1  0  0  0
 25 26  2  0  0  0
 26 27  1  0  0  0
 26 21  1  0  0  0
  6  1  1  0  0  0
 12  7  1  0  0  0
 18 14  1  0  0  0
 31 32  1  0  0  0
 27 28  1  0  0  0
M  END
> <Activity>
13.3

> <minimizedAffinity>
-9.57002

$$$$
HIPS6985


 32 35  0  0  0  0  0  0  0  0999 V2000
   68.2674   74.5719   92.1047 C   0  0  0  0  0  0  0  0  0  0  0  0
   68.1365   75.0721   93.4084 C   0  0  0  0  0  0  0  0  0  0  0  0
   68.6408   76.3110   93.7277 C   0  0  0  0  0  0  0  0  0  0  0  0
   69.2819   77.0844   92.7814 C   0  0  0  0  0  0  0  0  0  0  0  0
   69.4283   76.6191   91.4832 C   0  0  0  0  0  0  0  0  0  0  0  0
   68.9117   75.3787   91.2049 C   0  0  0  0  0  0  0  0  0  0  0  0
   70.1074   77.4459   90.4920 C   0  0  0  0  0  0  0  0  0  0  0  0
   71.3611   77.1221   89.9996 C   0  0  0  0  0  0  0  0  0  0  0  0
   71.9811   77.9241   89.0600 C   0  0  0  0  0  0  0  0  0  0  0  0
   71.3928   79.0794   88.5650 C   0  0  0  0  0  0  0  0  0  0  0  0
   70.1486   79.4110   89.0462 C   0  0  0  0  0  0  0  0  0  0  0  0
   69.5280   78.5913   89.9990 C   0  0  0  0  0  0  0  0  0  0  0  0
   69.5081   80.5288   88.6086 O   0  0  0  0  0  0  0  0  0  0  0  0
   68.4938   80.5958   87.6757 C   0  0  0  0  0  0  0  0  0  0  0  0
   69.0014   81.1837   86.3657 C   0  0  0  0  0  0  0  0  0  0  0  0
   67.9159   80.8038   85.3953 C   0  0  0  0  0  0  0  0  0  0  0  0
   67.2035   79.6140   85.9716 C   0  0  0  0  0  0  0  0  0  0  0  0
   68.0443   79.2211   87.1886 C   0  0  0  0  0  0  0  0  0  0  0  0
   67.7384   73.2107   91.7775 C   0  0  0  0  0  0  0  0  0  0  0  0
   66.6364   73.2007   91.0089 O   0  0  0  0  0  0  0  0  0  0  0  0
   63.8365   75.4056   90.3101 C   0  0  0  0  0  0  0  0  0  0  0  0
   65.0955   74.8893   90.3886 C   0  0  0  0  0  0  0  0  0  0  0  0
   65.3764   73.6302   90.9721 C   0  0  0  0  0  0  0  0  0  0  0  0
   64.3286   72.9059   91.4781 C   0  0  0  0  0  0  0  0  0  0  0  0
   63.0547   73.4174   91.4038 C   0  0  0  0  0  0  0  0  0  0  0  0
   62.8014   74.6566   90.8261 C   0  0  0  0  0  0  0  0  0  0  0  0
   61.4967   75.1253   90.7775 O   0  0  0  0  0  0  0  0  0  0  0  0
   60.7998   74.6084   91.1312 H   0  0  0  0  0  0  0  0  0  0  0  0
   64.0763   77.7426   90.0672 O   0  0  0  0  0  0  0  0  0  0  0  0
   63.5224   76.6925   89.7173 C   0  0  0  0  0  0  0  0  0  0  0  0
   62.5655   76.7452   88.7213 O   0  0  0  0  0  0  0  0  0  0  0  0
   62.1352   75.9608   88.4430 H   0  0  0  0  0  0  0  0  0  0  0  0
 29 30  2  0  0  0
 30 31  1  0  0  0
 30 21  1  0  0  0
 21 22  2  0  0  0
 22 23  1  0  0  0
 23 20  1  0  0  0
 20 19  1  0  0  0
 19  1  1  0  0  0
  1  2  2  0  0  0
  2  3  1  0  0  0
  3  4  2  0  0  0
  4  5  1  0  0  0
  5  7  1  0  0  0
  7  8  2  0  0  0
  8  9  1  0  0  0
  9 10  2  0  0  0
 10 11  1  0  0  0
 11 13  1  0  0  0
 13 14  1  0  0  0
 14 15  1  0  0  0
 15 16  1  0  0  0
 16 17  1  0  0  0
 17 18  1  0  0  0
 11 12  2  0  0  0
  5  6  2  0  0  0
 23 24  2  0  0  0
 24 25  1  0  0  0
 25 26  2  0  0  0
 26 27  1  0  0  0
 26 21  1  0  0  0
  6  1  1  0  0  0
 12  7  1  0  0  0
 18 14  1  0  0  0
 31 32  1  0  0  0
 27 28  1  0  0  0
M  END
> <Activity>
13.3

> <minimizedAffinity>
-9.50774

$$$$
HIPS6985


 32 35  0  0  0  0  0  0  0  0999 V2000
   70.0883   75.4971   91.4440 C   0  0  0  0  0  0  0  0  0  0  0  0
   70.0761   74.6422   92.5557 C   0  0  0  0  0  0  0  0  0  0  0  0
   68.8830   74.2724   93.1307 C   0  0  0  0  0  0  0  0  0  0  0  0
   67.6801   74.7296   92.6318 C   0  0  0  0  0  0  0  0  0  0  0  0
   67.6572   75.5763   91.5338 C   0  0  0  0  0  0  0  0  0  0  0  0
   68.8683   75.9219   90.9891 C   0  0  0  0  0  0  0  0  0  0  0  0
   66.3797   76.0525   91.0155 C   0  0  0  0  0  0  0  0  0  0  0  0
   66.1138   77.4008   90.8418 C   0  0  0  0  0  0  0  0  0  0  0  0
   64.8939   77.8237   90.3482 C   0  0  0  0  0  0  0  0  0  0  0  0
   63.8836   76.9366   90.0045 C   0  0  0  0  0  0  0  0  0  0  0  0
   64.1359   75.5959   90.1726 C   0  0  0  0  0  0  0  0  0  0  0  0
   65.3761   75.1769   90.6739 C   0  0  0  0  0  0  0  0  0  0  0  0
   63.1943   74.6655   89.8578 O   0  0  0  0  0  0  0  0  0  0  0  0
   62.6346   73.7287   90.7022 C   0  0  0  0  0  0  0  0  0  0  0  0
   63.7092   72.8349   91.3070 C   0  0  0  0  0  0  0  0  0  0  0  0
   62.9869   72.1899   92.4588 C   0  0  0  0  0  0  0  0  0  0  0  0
   61.8408   73.0898   92.8221 C   0  0  0  0  0  0  0  0  0  0  0  0
   62.0606   74.3451   91.9747 C   0  0  0  0  0  0  0  0  0  0  0  0
   71.3950   75.9138   90.8448 C   0  0  0  0  0  0  0  0  0  0  0  0
   71.2964   76.6284   89.7113 O   0  0  0  0  0  0  0  0  0  0  0  0
   69.0466   79.0507   88.2078 C   0  0  0  0  0  0  0  0  0  0  0  0
   69.5614   77.8934   88.7110 C   0  0  0  0  0  0  0  0  0  0  0  0
   70.8712   77.7993   89.2403 C   0  0  0  0  0  0  0  0  0  0  0  0
   71.6487   78.9282   89.2418 C   0  0  0  0  0  0  0  0  0  0  0  0
   71.1390   80.1007   88.7367 C   0  0  0  0  0  0  0  0  0  0  0  0
   69.8492   80.1707   88.2217 C   0  0  0  0  0  0  0  0  0  0  0  0
   69.3850   81.3795   87.7243 O   0  0  0  0  0  0  0  0  0  0  0  0
   69.9385   82.1354   87.7383 H   0  0  0  0  0  0  0  0  0  0  0  0
   67.0533   80.2215   87.7242 O   0  0  0  0  0  0  0  0  0  0  0  0
   67.7082   79.1732   87.6602 C   0  0  0  0  0  0  0  0  0  0  0  0
   67.1438   78.0730   87.0424 O   0  0  0  0  0  0  0  0  0  0  0  0
   67.6242   77.2707   86.9842 H   0  0  0  0  0  0  0  0  0  0  0  0
 29 30  2  0  0  0
 30 31  1  0  0  0
 30 21  1  0  0  0
 21 22  2  0  0  0
 22 23  1  0  0  0
 23 20  1  0  0  0
 20 19  1  0  0  0
 19  1  1  0  0  0
  1  2  2  0  0  0
  2  3  1  0  0  0
  3  4  2  0  0  0
  4  5  1  0  0  0
  5  7  1  0  0  0
  7  8  2  0  0  0
  8  9  1  0  0  0
  9 10  2  0  0  0
 10 11  1  0  0  0
 11 13  1  0  0  0
 13 14  1  0  0  0
 14 15  1  0  0  0
 15 16  1  0  0  0
 16 17  1  0  0  0
 17 18  1  0  0  0
 11 12  2  0  0  0
  5  6  2  0  0  0
 23 24  2  0  0  0
 24 25  1  0  0  0
 25 26  2  0  0  0
 26 27  1  0  0  0
 26 21  1  0  0  0
  6  1  1  0  0  0
 12  7  1  0  0  0
 18 14  1  0  0  0
 31 32  1  0  0  0
 27 28  1  0  0  0
M  END
> <Activity>
13.3

> <minimizedAffinity>
-9.38906

$$$$
HIPS6985


 32 35  0  0  0  0  0  0  0  0999 V2000
   68.9585   75.7924   92.1715 C   0  0  0  0  0  0  0  0  0  0  0  0
   69.7593   74.6410   92.1679 C   0  0  0  0  0  0  0  0  0  0  0  0
   70.9131   74.6034   91.4206 C   0  0  0  0  0  0  0  0  0  0  0  0
   71.3068   75.6880   90.6635 C   0  0  0  0  0  0  0  0  0  0  0  0
   70.5376   76.8417   90.6449 C   0  0  0  0  0  0  0  0  0  0  0  0
   69.3941   76.8394   91.4035 C   0  0  0  0  0  0  0  0  0  0  0  0
   70.9644   77.9815   89.8412 C   0  0  0  0  0  0  0  0  0  0  0  0
   72.2728   78.1283   89.4105 C   0  0  0  0  0  0  0  0  0  0  0  0
   72.6492   79.2189   88.6493 C   0  0  0  0  0  0  0  0  0  0  0  0
   71.7529   80.2117   88.2796 C   0  0  0  0  0  0  0  0  0  0  0  0
   70.4515   80.0769   88.7010 C   0  0  0  0  0  0  0  0  0  0  0  0
   70.0795   78.9673   89.4727 C   0  0  0  0  0  0  0  0  0  0  0  0
   69.5150   81.0097   88.3783 O   0  0  0  0  0  0  0  0  0  0  0  0
   68.4654   80.8646   87.4946 C   0  0  0  0  0  0  0  0  0  0  0  0
   68.8708   81.3086   86.0954 C   0  0  0  0  0  0  0  0  0  0  0  0
   67.7886   80.7114   85.2372 C   0  0  0  0  0  0  0  0  0  0  0  0
   67.2061   79.5562   85.9997 C   0  0  0  0  0  0  0  0  0  0  0  0
   68.1222   79.4039   87.2162 C   0  0  0  0  0  0  0  0  0  0  0  0
   67.6912   75.8102   92.9673 C   0  0  0  0  0  0  0  0  0  0  0  0
   66.5962   75.4123   92.2982 O   0  0  0  0  0  0  0  0  0  0  0  0
   63.5540   75.3907   90.3147 C   0  0  0  0  0  0  0  0  0  0  0  0
   64.5482   75.0255   91.1725 C   0  0  0  0  0  0  0  0  0  0  0  0
   65.6686   75.8465   91.4470 C   0  0  0  0  0  0  0  0  0  0  0  0
   65.7478   77.0610   90.8166 C   0  0  0  0  0  0  0  0  0  0  0  0
   64.7502   77.4391   89.9496 C   0  0  0  0  0  0  0  0  0  0  0  0
   63.6581   76.6168   89.6947 C   0  0  0  0  0  0  0  0  0  0  0  0
   62.6799   77.0475   88.8106 O   0  0  0  0  0  0  0  0  0  0  0  0
   62.7599   77.8830   88.3941 H   0  0  0  0  0  0  0  0  0  0  0  0
   61.4262   74.4775   90.7803 O   0  0  0  0  0  0  0  0  0  0  0  0
   62.3961   74.5680   90.0168 C   0  0  0  0  0  0  0  0  0  0  0  0
   62.3778   73.8575   88.8313 O   0  0  0  0  0  0  0  0  0  0  0  0
   63.1029   73.9133   88.2404 H   0  0  0  0  0  0  0  0  0  0  0  0
 29 30  2  0  0  0
 30 31  1  0  0  0
 30 21  1  0  0  0
 21 22  2  0  0  0
 22 23  1  0  0  0
 23 20  1  0  0  0
 20 19  1  0  0  0
 19  1  1  0  0  0
  1  2  2  0  0  0
  2  3  1  0  0  0
  3  4  2  0  0  0
  4  5  1  0  0  0
  5  7  1  0  0  0
  7  8  2  0  0  0
  8  9  1  0  0  0
  9 10  2  0  0  0
 10 11  1  0  0  0
 11 13  1  0  0  0
 13 14  1  0  0  0
 14 15  1  0  0  0
 15 16  1  0  0  0
 16 17  1  0  0  0
 17 18  1  0  0  0
 11 12  2  0  0  0
  5  6  2  0  0  0
 23 24  2  0  0  0
 24 25  1  0  0  0
 25 26  2  0  0  0
 26 27  1  0  0  0
 26 21  1  0  0  0
  6  1  1  0  0  0
 12  7  1  0  0  0
 18 14  1  0  0  0
 31 32  1  0  0  0
 27 28  1  0  0  0
M  END
> <Activity>
13.3

> <minimizedAffinity>
-9.34926

$$$$
HIPS7779


 38 40  0  0  0  0  0  0  0  0999 V2000
   69.8480   76.6925   90.7004 C   0  0  0  0  0  0  0  0  0  0  0  0
   69.2885   77.9107   90.9411 N   0  0  0  0  0  0  0  0  0  0  0  0
   69.7638   79.0371   90.3498 C   0  0  0  0  0  0  0  0  0  0  0  0
   70.8479   78.9583   89.4676 C   0  0  0  0  0  0  0  0  0  0  0  0
   71.4180   77.7015   89.2380 C   0  0  0  0  0  0  0  0  0  0  0  0
   70.9104   76.6027   89.8530 N   0  0  0  0  0  0  0  0  0  0  0  0
   67.5782   73.7655   91.5802 C   0  0  0  0  0  0  0  0  0  0  0  0
   68.2994   73.1767   92.6267 C   0  0  0  0  0  0  0  0  0  0  0  0
   69.5261   73.7105   93.0256 C   0  0  0  0  0  0  0  0  0  0  0  0
   70.0354   74.8488   92.3955 C   0  0  0  0  0  0  0  0  0  0  0  0
   69.3130   75.4774   91.3636 C   0  0  0  0  0  0  0  0  0  0  0  0
   68.0781   74.9288   90.9683 C   0  0  0  0  0  0  0  0  0  0  0  0
   65.0533   73.8198   91.4311 C   0  0  0  0  0  0  0  0  0  0  0  0
   64.9951   75.0093   91.8475 O   0  0  0  0  0  0  0  0  0  0  0  0
   66.3225   73.1948   91.1805 N   0  0  0  0  0  0  0  0  0  0  0  0
   66.3318   72.3300   90.7101 H   0  0  0  0  0  0  0  0  0  0  0  0
   63.7819   73.0587   91.2080 C   0  0  0  0  0  0  0  0  0  0  0  0
   62.5753   73.9097   91.6140 C   0  0  0  0  0  0  0  0  0  0  0  0
   62.2649   74.9707   90.5512 C   0  0  0  0  0  0  0  0  0  0  0  0
   62.1545   74.3507   89.1390 C   0  0  0  0  0  0  0  0  0  0  0  0
   60.9724   74.9217   88.3346 C   0  0  0  0  0  0  0  0  0  0  0  0
   60.2806   73.8576   87.4519 C   0  0  0  0  0  0  0  0  0  0  0  0
   60.5044   71.6472   86.1901 C   0  0  0  0  0  0  0  0  0  0  0  0
   61.2175   72.7221   87.0070 C   0  0  0  0  0  0  0  0  0  0  0  0
   71.4051   80.1850   88.8071 C   0  0  0  0  0  0  0  0  0  0  0  0
   70.3345   81.0360   88.4067 O   0  0  0  0  0  0  0  0  0  0  0  0
   69.3043   80.6555   87.5316 C   0  0  0  0  0  0  0  0  0  0  0  0
   68.7853   81.5265   86.5592 C   0  0  0  0  0  0  0  0  0  0  0  0
   67.7500   81.1104   85.7233 C   0  0  0  0  0  0  0  0  0  0  0  0
   67.2085   79.8261   85.8419 C   0  0  0  0  0  0  0  0  0  0  0  0
   66.1220   79.5002   85.0283 O   0  0  0  0  0  0  0  0  0  0  0  0
   67.7485   78.9247   86.7918 C   0  0  0  0  0  0  0  0  0  0  0  0
   68.7830   79.3617   87.6367 C   0  0  0  0  0  0  0  0  0  0  0  0
   65.7942   80.1250   84.4118 H   0  0  0  0  0  0  0  0  0  0  0  0
   67.2836   77.5269   86.9151 C   0  0  0  0  0  0  0  0  0  0  0  0
   67.8256   76.7403   87.7371 O   0  0  0  0  0  0  0  0  0  0  0  0
   66.2074   77.0850   86.1510 O   0  0  0  0  0  0  0  0  0  0  0  0
   65.7992   77.6640   85.5377 H   0  0  0  0  0  0  0  0  0  0  0  0
 23 24  1  0  0  0
 24 22  1  0  0  0
 22 21  1  0  0  0
 21 20  1  0  0  0
 20 19  1  0  0  0
 19 18  1  0  0  0
 18 17  1  0  0  0
 17 13  1  0  0  0
 13 14  2  0  0  0
 13 15  1  0  0  0
 15  7  1  0  0  0
  7  8  2  0  0  0
  8  9  1  0  0  0
  9 10  2  0  0  0
 10 11  1  0  0  0
 11  1  1  0  0  0
  1  2  2  0  0  0
  2  3  2  0  0  0
  3  4  2  0  0  0
  4 25  1  0  0  0
 25 26  1  0  0  0
 26 27  1  0  0  0
 27 28  2  0  0  0
 28 29  1  0  0  0
 29 30  2  0  0  0
 30 31  1  0  0  0
 30 32  1  0  0  0
 32 35  1  0  0  0
 35 36  2  0  0  0
 35 37  1  0  0  0
 32 33  2  0  0  0
  4  5  1  0  0  0
  5  6  2  0  0  0
 11 12  2  0  0  0
 12  7  1  0  0  0
  6  1  2  0  0  0
 33 27  1  0  0  0
 15 16  1  0  0  0
 31 34  1  0  0  0
 37 38  1  0  0  0
M  END
> <Activity>
14.3

> <minimizedAffinity>
-8.99236

$$$$
HIPS7779


 38 40  0  0  0  0  0  0  0  0999 V2000
   69.9632   76.7089   90.6899 C   0  0  0  0  0  0  0  0  0  0  0  0
   71.0228   76.6686   89.8353 N   0  0  0  0  0  0  0  0  0  0  0  0
   71.4826   77.7911   89.2246 C   0  0  0  0  0  0  0  0  0  0  0  0
   70.8673   79.0235   89.4740 C   0  0  0  0  0  0  0  0  0  0  0  0
   69.7740   79.0473   90.3467 C   0  0  0  0  0  0  0  0  0  0  0  0
   69.3479   77.8993   90.9331 N   0  0  0  0  0  0  0  0  0  0  0  0
   67.7938   73.7046   91.5627 C   0  0  0  0  0  0  0  0  0  0  0  0
   68.5555   73.1147   92.5794 C   0  0  0  0  0  0  0  0  0  0  0  0
   69.7769   73.6734   92.9601 C   0  0  0  0  0  0  0  0  0  0  0  0
   70.2404   74.8375   92.3418 C   0  0  0  0  0  0  0  0  0  0  0  0
   69.4768   75.4668   91.3404 C   0  0  0  0  0  0  0  0  0  0  0  0
   68.2477   74.8930   90.9632 C   0  0  0  0  0  0  0  0  0  0  0  0
   65.2651   73.6291   91.5765 C   0  0  0  0  0  0  0  0  0  0  0  0
   65.1751   74.7624   92.1236 O   0  0  0  0  0  0  0  0  0  0  0  0
   66.5444   73.1083   91.1811 N   0  0  0  0  0  0  0  0  0  0  0  0
   66.5656   72.3003   90.6191 H   0  0  0  0  0  0  0  0  0  0  0  0
   64.0216   72.8241   91.3503 C   0  0  0  0  0  0  0  0  0  0  0  0
   62.8143   73.5228   91.9823 C   0  0  0  0  0  0  0  0  0  0  0  0
   62.1947   74.5382   91.0145 C   0  0  0  0  0  0  0  0  0  0  0  0
   62.5272   74.2021   89.5423 C   0  0  0  0  0  0  0  0  0  0  0  0
   62.8892   75.4518   88.7190 C   0  0  0  0  0  0  0  0  0  0  0  0
   64.3088   75.9803   89.0278 C   0  0  0  0  0  0  0  0  0  0  0  0
   65.7267   77.6783   90.3064 C   0  0  0  0  0  0  0  0  0  0  0  0
   64.3190   77.2424   89.9067 C   0  0  0  0  0  0  0  0  0  0  0  0
   71.3426   80.2805   88.8065 C   0  0  0  0  0  0  0  0  0  0  0  0
   70.2188   81.0714   88.4292 O   0  0  0  0  0  0  0  0  0  0  0  0
   69.2124   80.6482   87.5462 C   0  0  0  0  0  0  0  0  0  0  0  0
   68.6849   81.4880   86.5511 C   0  0  0  0  0  0  0  0  0  0  0  0
   67.6736   81.0297   85.7079 C   0  0  0  0  0  0  0  0  0  0  0  0
   67.1650   79.7335   85.8412 C   0  0  0  0  0  0  0  0  0  0  0  0
   66.0998   79.3643   85.0179 O   0  0  0  0  0  0  0  0  0  0  0  0
   67.7146   78.8636   86.8146 C   0  0  0  0  0  0  0  0  0  0  0  0
   68.7243   79.3428   87.6666 C   0  0  0  0  0  0  0  0  0  0  0  0
   65.7647   79.9694   84.3858 H   0  0  0  0  0  0  0  0  0  0  0  0
   67.2855   77.4560   86.9559 C   0  0  0  0  0  0  0  0  0  0  0  0
   67.8566   76.6902   87.7778 O   0  0  0  0  0  0  0  0  0  0  0  0
   66.2109   76.9814   86.2093 O   0  0  0  0  0  0  0  0  0  0  0  0
   65.7811   77.5448   85.5962 H   0  0  0  0  0  0  0  0  0  0  0  0
 23 24  1  0  0  0
 24 22  1  0  0  0
 22 21  1  0  0  0
 21 20  1  0  0  0
 20 19  1  0  0  0
 19 18  1  0  0  0
 18 17  1  0  0  0
 17 13  1  0  0  0
 13 14  2  0  0  0
 13 15  1  0  0  0
 15  7  1  0  0  0
  7  8  2  0  0  0
  8  9  1  0  0  0
  9 10  2  0  0  0
 10 11  1  0  0  0
 11  1  1  0  0  0
  1  2  2  0  0  0
  2  3  2  0  0  0
  3  4  2  0  0  0
  4 25  1  0  0  0
 25 26  1  0  0  0
 26 27  1  0  0  0
 27 28  2  0  0  0
 28 29  1  0  0  0
 29 30  2  0  0  0
 30 31  1  0  0  0
 30 32  1  0  0  0
 32 35  1  0  0  0
 35 36  2  0  0  0
 35 37  1  0  0  0
 32 33  2  0  0  0
  4  5  1  0  0  0
  5  6  2  0  0  0
 11 12  2  0  0  0
 12  7  1  0  0  0
  6  1  2  0  0  0
 33 27  1  0  0  0
 15 16  1  0  0  0
 31 34  1  0  0  0
 37 38  1  0  0  0
M  END
> <Activity>
14.3

> <minimizedAffinity>
-8.65633

$$$$
HIPS7779


 38 40  0  0  0  0  0  0  0  0999 V2000
   68.8071   77.4604   89.8316 C   0  0  0  0  0  0  0  0  0  0  0  0
   68.3439   77.6013   91.1046 N   0  0  0  0  0  0  0  0  0  0  0  0
   67.9944   76.5238   91.8537 C   0  0  0  0  0  0  0  0  0  0  0  0
   68.1129   75.2348   91.3208 C   0  0  0  0  0  0  0  0  0  0  0  0
   68.5810   75.1069   90.0086 C   0  0  0  0  0  0  0  0  0  0  0  0
   68.9169   76.2129   89.2964 N   0  0  0  0  0  0  0  0  0  0  0  0
   70.7470   80.4573   88.5090 C   0  0  0  0  0  0  0  0  0  0  0  0
   69.8734   80.9212   87.5173 C   0  0  0  0  0  0  0  0  0  0  0  0
   68.6760   80.2504   87.2622 C   0  0  0  0  0  0  0  0  0  0  0  0
   68.3309   79.1204   88.0079 C   0  0  0  0  0  0  0  0  0  0  0  0
   69.1773   78.6546   89.0319 C   0  0  0  0  0  0  0  0  0  0  0  0
   70.3832   79.3380   89.2787 C   0  0  0  0  0  0  0  0  0  0  0  0
   73.2504   80.5029   88.8714 C   0  0  0  0  0  0  0  0  0  0  0  0
   73.3751   79.2827   88.5757 O   0  0  0  0  0  0  0  0  0  0  0  0
   71.9774   81.1578   88.7489 N   0  0  0  0  0  0  0  0  0  0  0  0
   71.9471   82.1381   88.8340 H   0  0  0  0  0  0  0  0  0  0  0  0
   74.4447   81.2636   89.3618 C   0  0  0  0  0  0  0  0  0  0  0  0
   74.8928   82.2836   88.3112 C   0  0  0  0  0  0  0  0  0  0  0  0
   76.3117   81.9789   87.8155 C   0  0  0  0  0  0  0  0  0  0  0  0
   76.7601   82.9720   86.7184 C   0  0  0  0  0  0  0  0  0  0  0  0
   75.6242   83.9105   86.2720 C   0  0  0  0  0  0  0  0  0  0  0  0
   75.3984   85.0842   87.2525 C   0  0  0  0  0  0  0  0  0  0  0  0
   76.7633   85.8440   89.2744 C   0  0  0  0  0  0  0  0  0  0  0  0
   76.7021   85.7285   87.7532 C   0  0  0  0  0  0  0  0  0  0  0  0
   67.7240   74.0241   92.1173 C   0  0  0  0  0  0  0  0  0  0  0  0
   66.7413   73.2808   91.4013 O   0  0  0  0  0  0  0  0  0  0  0  0
   65.4250   73.7161   91.1784 C   0  0  0  0  0  0  0  0  0  0  0  0
   64.3251   72.8443   91.2412 C   0  0  0  0  0  0  0  0  0  0  0  0
   63.0373   73.3184   90.9954 C   0  0  0  0  0  0  0  0  0  0  0  0
   62.8197   74.6631   90.6777 C   0  0  0  0  0  0  0  0  0  0  0  0
   61.5168   75.0557   90.3659 O   0  0  0  0  0  0  0  0  0  0  0  0
   63.9149   75.5609   90.6492 C   0  0  0  0  0  0  0  0  0  0  0  0
   65.2092   75.0669   90.8859 C   0  0  0  0  0  0  0  0  0  0  0  0
   60.8192   74.4309   90.3966 H   0  0  0  0  0  0  0  0  0  0  0  0
   63.7496   77.0093   90.4043 C   0  0  0  0  0  0  0  0  0  0  0  0
   64.3199   77.8548   91.1446 O   0  0  0  0  0  0  0  0  0  0  0  0
   62.9954   77.4465   89.3192 O   0  0  0  0  0  0  0  0  0  0  0  0
   62.5684   76.8240   88.7642 H   0  0  0  0  0  0  0  0  0  0  0  0
 23 24  1  0  0  0
 24 22  1  0  0  0
 22 21  1  0  0  0
 21 20  1  0  0  0
 20 19  1  0  0  0
 19 18  1  0  0  0
 18 17  1  0  0  0
 17 13  1  0  0  0
 13 14  2  0  0  0
 13 15  1  0  0  0
 15  7  1  0  0  0
  7  8  2  0  0  0
  8  9  1  0  0  0
  9 10  2  0  0  0
 10 11  1  0  0  0
 11  1  1  0  0  0
  1  2  2  0  0  0
  2  3  2  0  0  0
  3  4  2  0  0  0
  4 25  1  0  0  0
 25 26  1  0  0  0
 26 27  1  0  0  0
 27 28  2  0  0  0
 28 29  1  0  0  0
 29 30  2  0  0  0
 30 31  1  0  0  0
 30 32  1  0  0  0
 32 35  1  0  0  0
 35 36  2  0  0  0
 35 37  1  0  0  0
 32 33  2  0  0  0
  4  5  1  0  0  0
  5  6  2  0  0  0
 11 12  2  0  0  0
 12  7  1  0  0  0
  6  1  2  0  0  0
 33 27  1  0  0  0
 15 16  1  0  0  0
 31 34  1  0  0  0
 37 38  1  0  0  0
M  END
> <Activity>
14.3

> <minimizedAffinity>
-8.54649

$$$$
HIPS7779


 38 40  0  0  0  0  0  0  0  0999 V2000
   69.5741   77.1302   90.5187 C   0  0  0  0  0  0  0  0  0  0  0  0
   70.7843   77.2999   89.9174 N   0  0  0  0  0  0  0  0  0  0  0  0
   71.1015   78.4559   89.2793 C   0  0  0  0  0  0  0  0  0  0  0  0
   70.1767   79.5059   89.2357 C   0  0  0  0  0  0  0  0  0  0  0  0
   68.9344   79.3130   89.8495 C   0  0  0  0  0  0  0  0  0  0  0  0
   68.6604   78.1393   90.4744 N   0  0  0  0  0  0  0  0  0  0  0  0
   67.7776   73.9258   91.5176 C   0  0  0  0  0  0  0  0  0  0  0  0
   68.6363   73.4400   92.5118 C   0  0  0  0  0  0  0  0  0  0  0  0
   69.8033   74.1340   92.8365 C   0  0  0  0  0  0  0  0  0  0  0  0
   70.1143   75.3298   92.1843 C   0  0  0  0  0  0  0  0  0  0  0  0
   69.2500   75.8549   91.2050 C   0  0  0  0  0  0  0  0  0  0  0  0
   68.0771   75.1451   90.8843 C   0  0  0  0  0  0  0  0  0  0  0  0
   65.2668   73.6192   91.5661 C   0  0  0  0  0  0  0  0  0  0  0  0
   65.0751   74.7756   92.0328 O   0  0  0  0  0  0  0  0  0  0  0  0
   66.5869   73.1914   91.1936 N   0  0  0  0  0  0  0  0  0  0  0  0
   66.6799   72.3507   90.6898 H   0  0  0  0  0  0  0  0  0  0  0  0
   64.1020   72.6892   91.4117 C   0  0  0  0  0  0  0  0  0  0  0  0
   62.8561   73.2839   92.0744 C   0  0  0  0  0  0  0  0  0  0  0  0
   62.5389   74.6730   91.5076 C   0  0  0  0  0  0  0  0  0  0  0  0
   62.0163   74.5924   90.0545 C   0  0  0  0  0  0  0  0  0  0  0  0
   62.9072   75.3635   89.0634 C   0  0  0  0  0  0  0  0  0  0  0  0
   63.3516   76.7411   89.6062 C   0  0  0  0  0  0  0  0  0  0  0  0
   65.6174   76.2292   88.5420 C   0  0  0  0  0  0  0  0  0  0  0  0
   64.8782   76.9058   89.6940 C   0  0  0  0  0  0  0  0  0  0  0  0
   70.4909   80.7916   88.5287 C   0  0  0  0  0  0  0  0  0  0  0  0
   71.4401   81.5324   89.2909 O   0  0  0  0  0  0  0  0  0  0  0  0
   72.7668   81.7654   88.8941 C   0  0  0  0  0  0  0  0  0  0  0  0
   73.7216   80.7371   88.8257 C   0  0  0  0  0  0  0  0  0  0  0  0
   75.0322   81.0190   88.4428 C   0  0  0  0  0  0  0  0  0  0  0  0
   75.4188   82.3257   88.1271 C   0  0  0  0  0  0  0  0  0  0  0  0
   76.7634   82.5524   87.8282 O   0  0  0  0  0  0  0  0  0  0  0  0
   74.4571   83.3652   88.1544 C   0  0  0  0  0  0  0  0  0  0  0  0
   73.1428   83.0694   88.5549 C   0  0  0  0  0  0  0  0  0  0  0  0
   77.3687   81.8372   87.8205 H   0  0  0  0  0  0  0  0  0  0  0  0
   74.7737   84.7521   87.7524 C   0  0  0  0  0  0  0  0  0  0  0  0
   75.7664   85.3524   88.2447 O   0  0  0  0  0  0  0  0  0  0  0  0
   73.9977   85.3877   86.7874 O   0  0  0  0  0  0  0  0  0  0  0  0
   73.2581   84.9479   86.4167 H   0  0  0  0  0  0  0  0  0  0  0  0
 23 24  1  0  0  0
 24 22  1  0  0  0
 22 21  1  0  0  0
 21 20  1  0  0  0
 20 19  1  0  0  0
 19 18  1  0  0  0
 18 17  1  0  0  0
 17 13  1  0  0  0
 13 14  2  0  0  0
 13 15  1  0  0  0
 15  7  1  0  0  0
  7  8  2  0  0  0
  8  9  1  0  0  0
  9 10  2  0  0  0
 10 11  1  0  0  0
 11  1  1  0  0  0
  1  2  2  0  0  0
  2  3  2  0  0  0
  3  4  2  0  0  0
  4 25  1  0  0  0
 25 26  1  0  0  0
 26 27  1  0  0  0
 27 28  2  0  0  0
 28 29  1  0  0  0
 29 30  2  0  0  0
 30 31  1  0  0  0
 30 32  1  0  0  0
 32 35  1  0  0  0
 35 36  2  0  0  0
 35 37  1  0  0  0
 32 33  2  0  0  0
  4  5  1  0  0  0
  5  6  2  0  0  0
 11 12  2  0  0  0
 12  7  1  0  0  0
  6  1  2  0  0  0
 33 27  1  0  0  0
 15 16  1  0  0  0
 31 34  1  0  0  0
 37 38  1  0  0  0
M  END
> <Activity>
14.3

> <minimizedAffinity>
-8.46474

$$$$
HIPS7779


 38 40  0  0  0  0  0  0  0  0999 V2000
   66.8783   78.2080   88.5016 C   0  0  0  0  0  0  0  0  0  0  0  0
   66.8977   76.8953   88.1393 N   0  0  0  0  0  0  0  0  0  0  0  0
   66.1464   75.9702   88.7905 C   0  0  0  0  0  0  0  0  0  0  0  0
   65.3257   76.3612   89.8550 C   0  0  0  0  0  0  0  0  0  0  0  0
   65.3239   77.7114   90.2217 C   0  0  0  0  0  0  0  0  0  0  0  0
   66.0930   78.6006   89.5428 N   0  0  0  0  0  0  0  0  0  0  0  0
   69.8253   80.4036   87.5076 C   0  0  0  0  0  0  0  0  0  0  0  0
   69.2907   81.0801   86.4037 C   0  0  0  0  0  0  0  0  0  0  0  0
   67.9926   80.8060   85.9695 C   0  0  0  0  0  0  0  0  0  0  0  0
   67.2092   79.8669   86.6452 C   0  0  0  0  0  0  0  0  0  0  0  0
   67.7131   79.1983   87.7770 C   0  0  0  0  0  0  0  0  0  0  0  0
   69.0243   79.4814   88.2044 C   0  0  0  0  0  0  0  0  0  0  0  0
   71.4846   81.6818   88.9265 C   0  0  0  0  0  0  0  0  0  0  0  0
   70.5737   82.2081   89.6229 O   0  0  0  0  0  0  0  0  0  0  0  0
   71.1659   80.6951   87.9319 N   0  0  0  0  0  0  0  0  0  0  0  0
   71.9054   80.1925   87.5198 H   0  0  0  0  0  0  0  0  0  0  0  0
   72.9066   82.1033   89.1407 C   0  0  0  0  0  0  0  0  0  0  0  0
   73.8109   80.8744   89.2711 C   0  0  0  0  0  0  0  0  0  0  0  0
   75.1072   81.0553   88.4719 C   0  0  0  0  0  0  0  0  0  0  0  0
   75.4487   82.5493   88.2660 C   0  0  0  0  0  0  0  0  0  0  0  0
   76.6716   82.7548   87.3535 C   0  0  0  0  0  0  0  0  0  0  0  0
   76.7625   84.1917   86.7905 C   0  0  0  0  0  0  0  0  0  0  0  0
   74.4760   85.2103   87.3030 C   0  0  0  0  0  0  0  0  0  0  0  0
   75.9717   85.2258   87.6095 C   0  0  0  0  0  0  0  0  0  0  0  0
   64.4924   75.3626   90.6034 C   0  0  0  0  0  0  0  0  0  0  0  0
   65.0992   75.0876   91.8631 O   0  0  0  0  0  0  0  0  0  0  0  0
   66.4462   74.7291   92.0326 C   0  0  0  0  0  0  0  0  0  0  0  0
   66.9032   73.4146   91.8400 C   0  0  0  0  0  0  0  0  0  0  0  0
   68.2475   73.1017   92.0368 C   0  0  0  0  0  0  0  0  0  0  0  0
   69.1593   74.0855   92.4333 C   0  0  0  0  0  0  0  0  0  0  0  0
   70.4733   73.6900   92.6893 O   0  0  0  0  0  0  0  0  0  0  0  0
   68.7196   75.4225   92.5934 C   0  0  0  0  0  0  0  0  0  0  0  0
   67.3593   75.7213   92.4046 C   0  0  0  0  0  0  0  0  0  0  0  0
   70.7247   72.7951   92.5712 H   0  0  0  0  0  0  0  0  0  0  0  0
   69.6420   76.5282   92.9280 C   0  0  0  0  0  0  0  0  0  0  0  0
   70.8038   76.5646   92.4412 O   0  0  0  0  0  0  0  0  0  0  0  0
   69.2110   77.5644   93.7514 O   0  0  0  0  0  0  0  0  0  0  0  0
   68.3485   77.5444   94.1171 H   0  0  0  0  0  0  0  0  0  0  0  0
 23 24  1  0  0  0
 24 22  1  0  0  0
 22 21  1  0  0  0
 21 20  1  0  0  0
 20 19  1  0  0  0
 19 18  1  0  0  0
 18 17  1  0  0  0
 17 13  1  0  0  0
 13 14  2  0  0  0
 13 15  1  0  0  0
 15  7  1  0  0  0
  7  8  2  0  0  0
  8  9  1  0  0  0
  9 10  2  0  0  0
 10 11  1  0  0  0
 11  1  1  0  0  0
  1  2  2  0  0  0
  2  3  2  0  0  0
  3  4  2  0  0  0
  4 25  1  0  0  0
 25 26  1  0  0  0
 26 27  1  0  0  0
 27 28  2  0  0  0
 28 29  1  0  0  0
 29 30  2  0  0  0
 30 31  1  0  0  0
 30 32  1  0  0  0
 32 35  1  0  0  0
 35 36  2  0  0  0
 35 37  1  0  0  0
 32 33  2  0  0  0
  4  5  1  0  0  0
  5  6  2  0  0  0
 11 12  2  0  0  0
 12  7  1  0  0  0
  6  1  2  0  0  0
 33 27  1  0  0  0
 15 16  1  0  0  0
 31 34  1  0  0  0
 37 38  1  0  0  0
M  END
> <Activity>
14.3

> <minimizedAffinity>
-8.24882

$$$$
HIPS7779


 38 40  0  0  0  0  0  0  0  0999 V2000
   67.8568   78.5797   92.1549 C   0  0  0  0  0  0  0  0  0  0  0  0
   68.4608   77.3622   92.0667 N   0  0  0  0  0  0  0  0  0  0  0  0
   68.2476   76.5418   91.0057 C   0  0  0  0  0  0  0  0  0  0  0  0
   67.3959   76.9456   89.9708 C   0  0  0  0  0  0  0  0  0  0  0  0
   66.7753   78.1947   90.0803 C   0  0  0  0  0  0  0  0  0  0  0  0
   67.0169   78.9808   91.1607 N   0  0  0  0  0  0  0  0  0  0  0  0
   67.5307   81.4219   94.6668 C   0  0  0  0  0  0  0  0  0  0  0  0
   68.5743   81.1158   95.5495 C   0  0  0  0  0  0  0  0  0  0  0  0
   69.3607   79.9807   95.3453 C   0  0  0  0  0  0  0  0  0  0  0  0
   69.1242   79.1503   94.2467 C   0  0  0  0  0  0  0  0  0  0  0  0
   68.1024   79.4554   93.3277 C   0  0  0  0  0  0  0  0  0  0  0  0
   67.3143   80.6016   93.5452 C   0  0  0  0  0  0  0  0  0  0  0  0
   66.2268   82.9594   96.1952 C   0  0  0  0  0  0  0  0  0  0  0  0
   66.6360   82.3713   97.2337 O   0  0  0  0  0  0  0  0  0  0  0  0
   66.7288   82.5900   94.9007 N   0  0  0  0  0  0  0  0  0  0  0  0
   66.5116   83.1679   94.1338 H   0  0  0  0  0  0  0  0  0  0  0  0
   65.2017   84.0449   96.3239 C   0  0  0  0  0  0  0  0  0  0  0  0
   64.7592   84.1872   97.7830 C   0  0  0  0  0  0  0  0  0  0  0  0
   63.2563   84.4768   97.8786 C   0  0  0  0  0  0  0  0  0  0  0  0
   62.4386   83.5792   96.9213 C   0  0  0  0  0  0  0  0  0  0  0  0
   61.1483   84.2612   96.4309 C   0  0  0  0  0  0  0  0  0  0  0  0
   59.9438   83.2936   96.3781 C   0  0  0  0  0  0  0  0  0  0  0  0
   60.1393   80.7928   95.8923 C   0  0  0  0  0  0  0  0  0  0  0  0
   60.2507   81.8960   96.9419 C   0  0  0  0  0  0  0  0  0  0  0  0
   67.1293   76.0583   88.7905 C   0  0  0  0  0  0  0  0  0  0  0  0
   65.7959   76.2658   88.3325 O   0  0  0  0  0  0  0  0  0  0  0  0
   64.6508   75.7678   88.9746 C   0  0  0  0  0  0  0  0  0  0  0  0
   63.3567   76.2081   88.6501 C   0  0  0  0  0  0  0  0  0  0  0  0
   62.2499   75.6975   89.3269 C   0  0  0  0  0  0  0  0  0  0  0  0
   62.4086   74.7463   90.3402 C   0  0  0  0  0  0  0  0  0  0  0  0
   61.2676   74.3350   91.0313 O   0  0  0  0  0  0  0  0  0  0  0  0
   63.7041   74.2651   90.6507 C   0  0  0  0  0  0  0  0  0  0  0  0
   64.8120   74.7981   89.9699 C   0  0  0  0  0  0  0  0  0  0  0  0
   60.4279   74.6772   90.7950 H   0  0  0  0  0  0  0  0  0  0  0  0
   63.9387   73.2008   91.6495 C   0  0  0  0  0  0  0  0  0  0  0  0
   64.7978   72.3027   91.4409 O   0  0  0  0  0  0  0  0  0  0  0  0
   63.2389   73.2138   92.8527 O   0  0  0  0  0  0  0  0  0  0  0  0
   62.5986   73.8783   93.0151 H   0  0  0  0  0  0  0  0  0  0  0  0
 23 24  1  0  0  0
 24 22  1  0  0  0
 22 21  1  0  0  0
 21 20  1  0  0  0
 20 19  1  0  0  0
 19 18  1  0  0  0
 18 17  1  0  0  0
 17 13  1  0  0  0
 13 14  2  0  0  0
 13 15  1  0  0  0
 15  7  1  0  0  0
  7  8  2  0  0  0
  8  9  1  0  0  0
  9 10  2  0  0  0
 10 11  1  0  0  0
 11  1  1  0  0  0
  1  2  2  0  0  0
  2  3  2  0  0  0
  3  4  2  0  0  0
  4 25  1  0  0  0
 25 26  1  0  0  0
 26 27  1  0  0  0
 27 28  2  0  0  0
 28 29  1  0  0  0
 29 30  2  0  0  0
 30 31  1  0  0  0
 30 32  1  0  0  0
 32 35  1  0  0  0
 35 36  2  0  0  0
 35 37  1  0  0  0
 32 33  2  0  0  0
  4  5  1  0  0  0
  5  6  2  0  0  0
 11 12  2  0  0  0
 12  7  1  0  0  0
  6  1  2  0  0  0
 33 27  1  0  0  0
 15 16  1  0  0  0
 31 34  1  0  0  0
 37 38  1  0  0  0
M  END
> <Activity>
14.3

> <minimizedAffinity>
-8.06834

$$$$
HIPS7779


 38 40  0  0  0  0  0  0  0  0999 V2000
   68.0685   77.2472   89.2141 C   0  0  0  0  0  0  0  0  0  0  0  0
   68.2684   75.9924   88.7236 N   0  0  0  0  0  0  0  0  0  0  0  0
   68.1225   74.8941   89.5089 C   0  0  0  0  0  0  0  0  0  0  0  0
   67.7537   75.0397   90.8514 C   0  0  0  0  0  0  0  0  0  0  0  0
   67.5613   76.3353   91.3431 C   0  0  0  0  0  0  0  0  0  0  0  0
   67.7203   77.4043   90.5213 N   0  0  0  0  0  0  0  0  0  0  0  0
   69.5761   80.3335   87.5722 C   0  0  0  0  0  0  0  0  0  0  0  0
   68.5584   80.6790   86.6739 C   0  0  0  0  0  0  0  0  0  0  0  0
   67.4033   79.9004   86.5833 C   0  0  0  0  0  0  0  0  0  0  0  0
   67.2453   78.7796   87.4025 C   0  0  0  0  0  0  0  0  0  0  0  0
   68.2397   78.4315   88.3362 C   0  0  0  0  0  0  0  0  0  0  0  0
   69.4013   79.2229   88.4170 C   0  0  0  0  0  0  0  0  0  0  0  0
   71.1683   81.8467   88.8273 C   0  0  0  0  0  0  0  0  0  0  0  0
   70.6020   81.6245   89.9326 O   0  0  0  0  0  0  0  0  0  0  0  0
   70.7596   81.1437   87.6428 N   0  0  0  0  0  0  0  0  0  0  0  0
   71.3203   81.2216   86.8373 H   0  0  0  0  0  0  0  0  0  0  0  0
   72.2693   82.8609   88.7591 C   0  0  0  0  0  0  0  0  0  0  0  0
   73.5640   82.2787   89.3334 C   0  0  0  0  0  0  0  0  0  0  0  0
   74.0666   81.1053   88.4835 C   0  0  0  0  0  0  0  0  0  0  0  0
   74.0311   79.7736   89.2686 C   0  0  0  0  0  0  0  0  0  0  0  0
   73.0858   78.7384   88.6322 C   0  0  0  0  0  0  0  0  0  0  0  0
   71.9277   78.3298   89.5713 C   0  0  0  0  0  0  0  0  0  0  0  0
   71.2331   76.3058   90.9675 C   0  0  0  0  0  0  0  0  0  0  0  0
   71.6555   76.8162   89.5919 C   0  0  0  0  0  0  0  0  0  0  0  0
   67.5958   73.8479   91.7493 C   0  0  0  0  0  0  0  0  0  0  0  0
   66.4963   73.0593   91.3020 O   0  0  0  0  0  0  0  0  0  0  0  0
   65.1714   73.5180   91.2250 C   0  0  0  0  0  0  0  0  0  0  0  0
   64.0698   72.6543   91.3449 C   0  0  0  0  0  0  0  0  0  0  0  0
   62.7715   73.1526   91.2445 C   0  0  0  0  0  0  0  0  0  0  0  0
   62.5445   74.5141   91.0179 C   0  0  0  0  0  0  0  0  0  0  0  0
   61.2242   74.9346   90.8490 O   0  0  0  0  0  0  0  0  0  0  0  0
   63.6451   75.4019   90.9338 C   0  0  0  0  0  0  0  0  0  0  0  0
   64.9486   74.8842   91.0235 C   0  0  0  0  0  0  0  0  0  0  0  0
   60.5236   74.3156   90.9123 H   0  0  0  0  0  0  0  0  0  0  0  0
   63.4783   76.8626   90.7799 C   0  0  0  0  0  0  0  0  0  0  0  0
   63.0690   77.5669   91.7415 O   0  0  0  0  0  0  0  0  0  0  0  0
   63.8195   77.4758   89.5778 O   0  0  0  0  0  0  0  0  0  0  0  0
   64.1247   76.9590   88.8583 H   0  0  0  0  0  0  0  0  0  0  0  0
 23 24  1  0  0  0
 24 22  1  0  0  0
 22 21  1  0  0  0
 21 20  1  0  0  0
 20 19  1  0  0  0
 19 18  1  0  0  0
 18 17  1  0  0  0
 17 13  1  0  0  0
 13 14  2  0  0  0
 13 15  1  0  0  0
 15  7  1  0  0  0
  7  8  2  0  0  0
  8  9  1  0  0  0
  9 10  2  0  0  0
 10 11  1  0  0  0
 11  1  1  0  0  0
  1  2  2  0  0  0
  2  3  2  0  0  0
  3  4  2  0  0  0
  4 25  1  0  0  0
 25 26  1  0  0  0
 26 27  1  0  0  0
 27 28  2  0  0  0
 28 29  1  0  0  0
 29 30  2  0  0  0
 30 31  1  0  0  0
 30 32  1  0  0  0
 32 35  1  0  0  0
 35 36  2  0  0  0
 35 37  1  0  0  0
 32 33  2  0  0  0
  4  5  1  0  0  0
  5  6  2  0  0  0
 11 12  2  0  0  0
 12  7  1  0  0  0
  6  1  2  0  0  0
 33 27  1  0  0  0
 15 16  1  0  0  0
 31 34  1  0  0  0
 37 38  1  0  0  0
M  END
> <Activity>
14.3

> <minimizedAffinity>
-7.90575

$$$$
HIPS7779


 38 40  0  0  0  0  0  0  0  0999 V2000
   66.9232   78.3473   88.3181 C   0  0  0  0  0  0  0  0  0  0  0  0
   66.9108   77.0628   87.8655 N   0  0  0  0  0  0  0  0  0  0  0  0
   66.1945   76.0970   88.4967 C   0  0  0  0  0  0  0  0  0  0  0  0
   65.4440   76.4155   89.6347 C   0  0  0  0  0  0  0  0  0  0  0  0
   65.4744   77.7370   90.0930 C   0  0  0  0  0  0  0  0  0  0  0  0
   66.2065   78.6690   89.4306 N   0  0  0  0  0  0  0  0  0  0  0  0
   69.7800   80.6790   87.3719 C   0  0  0  0  0  0  0  0  0  0  0  0
   69.2216   81.3509   86.2771 C   0  0  0  0  0  0  0  0  0  0  0  0
   67.9374   81.0305   85.8332 C   0  0  0  0  0  0  0  0  0  0  0  0
   67.1913   80.0488   86.4903 C   0  0  0  0  0  0  0  0  0  0  0  0
   67.7186   79.3831   87.6131 C   0  0  0  0  0  0  0  0  0  0  0  0
   69.0156   79.7130   88.0503 C   0  0  0  0  0  0  0  0  0  0  0  0
   71.3765   81.8898   88.9163 C   0  0  0  0  0  0  0  0  0  0  0  0
   70.4483   82.2468   89.6927 O   0  0  0  0  0  0  0  0  0  0  0  0
   71.1060   81.0186   87.8063 N   0  0  0  0  0  0  0  0  0  0  0  0
   71.8696   80.6344   87.3180 H   0  0  0  0  0  0  0  0  0  0  0  0
   72.7676   82.3918   89.1582 C   0  0  0  0  0  0  0  0  0  0  0  0
   73.7939   81.4042   88.5956 C   0  0  0  0  0  0  0  0  0  0  0  0
   73.9394   80.1797   89.5073 C   0  0  0  0  0  0  0  0  0  0  0  0
   73.9253   78.8607   88.7004 C   0  0  0  0  0  0  0  0  0  0  0  0
   72.4982   78.3525   88.4253 C   0  0  0  0  0  0  0  0  0  0  0  0
   71.8259   77.7503   89.6804 C   0  0  0  0  0  0  0  0  0  0  0  0
   70.7134   75.4501   89.6820 C   0  0  0  0  0  0  0  0  0  0  0  0
   70.5581   76.9367   89.3702 C   0  0  0  0  0  0  0  0  0  0  0  0
   64.6514   75.3699   90.3627 C   0  0  0  0  0  0  0  0  0  0  0  0
   65.1487   75.2374   91.6915 O   0  0  0  0  0  0  0  0  0  0  0  0
   66.4515   74.8233   92.0126 C   0  0  0  0  0  0  0  0  0  0  0  0
   66.8610   73.4836   91.9064 C   0  0  0  0  0  0  0  0  0  0  0  0
   68.1604   73.1160   92.2531 C   0  0  0  0  0  0  0  0  0  0  0  0
   69.0731   74.0697   92.7160 C   0  0  0  0  0  0  0  0  0  0  0  0
   70.3322   73.6230   93.1206 O   0  0  0  0  0  0  0  0  0  0  0  0
   68.6852   75.4299   92.7910 C   0  0  0  0  0  0  0  0  0  0  0  0
   67.3684   75.7844   92.4510 C   0  0  0  0  0  0  0  0  0  0  0  0
   70.5503   72.7141   93.0550 H   0  0  0  0  0  0  0  0  0  0  0  0
   69.6208   76.5026   93.1901 C   0  0  0  0  0  0  0  0  0  0  0  0
   70.8349   76.4528   92.8558 O   0  0  0  0  0  0  0  0  0  0  0  0
   69.1505   77.6023   93.9021 O   0  0  0  0  0  0  0  0  0  0  0  0
   68.2491   77.6465   94.1542 H   0  0  0  0  0  0  0  0  0  0  0  0
 23 24  1  0  0  0
 24 22  1  0  0  0
 22 21  1  0  0  0
 21 20  1  0  0  0
 20 19  1  0  0  0
 19 18  1  0  0  0
 18 17  1  0  0  0
 17 13  1  0  0  0
 13 14  2  0  0  0
 13 15  1  0  0  0
 15  7  1  0  0  0
  7  8  2  0  0  0
  8  9  1  0  0  0
  9 10  2  0  0  0
 10 11  1  0  0  0
 11  1  1  0  0  0
  1  2  2  0  0  0
  2  3  2  0  0  0
  3  4  2  0  0  0
  4 25  1  0  0  0
 25 26  1  0  0  0
 26 27  1  0  0  0
 27 28  2  0  0  0
 28 29  1  0  0  0
 29 30  2  0  0  0
 30 31  1  0  0  0
 30 32  1  0  0  0
 32 35  1  0  0  0
 35 36  2  0  0  0
 35 37  1  0  0  0
 32 33  2  0  0  0
  4  5  1  0  0  0
  5  6  2  0  0  0
 11 12  2  0  0  0
 12  7  1  0  0  0
  6  1  2  0  0  0
 33 27  1  0  0  0
 15 16  1  0  0  0
 31 34  1  0  0  0
 37 38  1  0  0  0
M  END
> <Activity>
14.3

> <minimizedAffinity>
-7.88586

$$$$
HIPS7779


 38 40  0  0  0  0  0  0  0  0999 V2000
   67.9833   78.5494   91.3125 C   0  0  0  0  0  0  0  0  0  0  0  0
   68.8641   77.9942   90.4345 N   0  0  0  0  0  0  0  0  0  0  0  0
   68.4993   77.6927   89.1616 C   0  0  0  0  0  0  0  0  0  0  0  0
   67.1951   77.9579   88.7276 C   0  0  0  0  0  0  0  0  0  0  0  0
   66.2992   78.5194   89.6438 C   0  0  0  0  0  0  0  0  0  0  0  0
   66.7080   78.8025   90.9072 N   0  0  0  0  0  0  0  0  0  0  0  0
   68.5320   80.4276   94.5783 C   0  0  0  0  0  0  0  0  0  0  0  0
   69.2124   79.4602   95.3287 C   0  0  0  0  0  0  0  0  0  0  0  0
   69.4675   78.1988   94.7877 C   0  0  0  0  0  0  0  0  0  0  0  0
   69.0619   77.8978   93.4850 C   0  0  0  0  0  0  0  0  0  0  0  0
   68.4057   78.8646   92.6999 C   0  0  0  0  0  0  0  0  0  0  0  0
   68.1519   80.1325   93.2569 C   0  0  0  0  0  0  0  0  0  0  0  0
   67.5740   81.8991   96.3995 C   0  0  0  0  0  0  0  0  0  0  0  0
   67.3231   80.9135   97.1461 O   0  0  0  0  0  0  0  0  0  0  0  0
   68.2726   81.7157   95.1576 N   0  0  0  0  0  0  0  0  0  0  0  0
   68.5902   82.5151   94.6786 H   0  0  0  0  0  0  0  0  0  0  0  0
   67.1268   83.2670   96.8173 C   0  0  0  0  0  0  0  0  0  0  0  0
   65.6504   83.2422   97.2232 C   0  0  0  0  0  0  0  0  0  0  0  0
   65.1986   84.6108   97.7472 C   0  0  0  0  0  0  0  0  0  0  0  0
   64.4974   85.4414   96.6474 C   0  0  0  0  0  0  0  0  0  0  0  0
   63.2657   84.7262   96.0629 C   0  0  0  0  0  0  0  0  0  0  0  0
   62.1976   84.4043   97.1332 C   0  0  0  0  0  0  0  0  0  0  0  0
   59.9812   83.5023   96.2373 C   0  0  0  0  0  0  0  0  0  0  0  0
   61.3551   83.1593   96.8083 C   0  0  0  0  0  0  0  0  0  0  0  0
   66.7562   77.6258   87.3316 C   0  0  0  0  0  0  0  0  0  0  0  0
   66.0002   76.4179   87.3468 O   0  0  0  0  0  0  0  0  0  0  0  0
   65.3549   75.9009   88.4817 C   0  0  0  0  0  0  0  0  0  0  0  0
   63.9594   75.9456   88.6374 C   0  0  0  0  0  0  0  0  0  0  0  0
   63.3639   75.4350   89.7900 C   0  0  0  0  0  0  0  0  0  0  0  0
   64.1426   74.8772   90.8093 C   0  0  0  0  0  0  0  0  0  0  0  0
   63.4911   74.4563   91.9700 O   0  0  0  0  0  0  0  0  0  0  0  0
   65.5472   74.7907   90.6482 C   0  0  0  0  0  0  0  0  0  0  0  0
   66.1355   75.3211   89.4873 C   0  0  0  0  0  0  0  0  0  0  0  0
   62.5595   74.5305   92.0374 H   0  0  0  0  0  0  0  0  0  0  0  0
   66.4232   74.1390   91.6449 C   0  0  0  0  0  0  0  0  0  0  0  0
   66.6918   74.7111   92.7351 O   0  0  0  0  0  0  0  0  0  0  0  0
   66.9202   72.8621   91.4002 O   0  0  0  0  0  0  0  0  0  0  0  0
   66.7248   72.4302   90.5920 H   0  0  0  0  0  0  0  0  0  0  0  0
 23 24  1  0  0  0
 24 22  1  0  0  0
 22 21  1  0  0  0
 21 20  1  0  0  0
 20 19  1  0  0  0
 19 18  1  0  0  0
 18 17  1  0  0  0
 17 13  1  0  0  0
 13 14  2  0  0  0
 13 15  1  0  0  0
 15  7  1  0  0  0
  7  8  2  0  0  0
  8  9  1  0  0  0
  9 10  2  0  0  0
 10 11  1  0  0  0
 11  1  1  0  0  0
  1  2  2  0  0  0
  2  3  2  0  0  0
  3  4  2  0  0  0
  4 25  1  0  0  0
 25 26  1  0  0  0
 26 27  1  0  0  0
 27 28  2  0  0  0
 28 29  1  0  0  0
 29 30  2  0  0  0
 30 31  1  0  0  0
 30 32  1  0  0  0
 32 35  1  0  0  0
 35 36  2  0  0  0
 35 37  1  0  0  0
 32 33  2  0  0  0
  4  5  1  0  0  0
  5  6  2  0  0  0
 11 12  2  0  0  0
 12  7  1  0  0  0
  6  1  2  0  0  0
 33 27  1  0  0  0
 15 16  1  0  0  0
 31 34  1  0  0  0
 37 38  1  0  0  0
M  END
> <Activity>
14.3

> <minimizedAffinity>
-7.84012

$$$$
HIPS7779


 38 40  0  0  0  0  0  0  0  0999 V2000
   69.4906   77.1741   90.4659 C   0  0  0  0  0  0  0  0  0  0  0  0
   70.6815   77.3534   89.8298 N   0  0  0  0  0  0  0  0  0  0  0  0
   70.9689   78.5098   89.1784 C   0  0  0  0  0  0  0  0  0  0  0  0
   70.0326   79.5502   89.1569 C   0  0  0  0  0  0  0  0  0  0  0  0
   68.8102   79.3476   89.8065 C   0  0  0  0  0  0  0  0  0  0  0  0
   68.5659   78.1738   90.4435 N   0  0  0  0  0  0  0  0  0  0  0  0
   67.7533   73.9586   91.5316 C   0  0  0  0  0  0  0  0  0  0  0  0
   68.6472   73.4832   92.4995 C   0  0  0  0  0  0  0  0  0  0  0  0
   69.8181   74.1878   92.7847 C   0  0  0  0  0  0  0  0  0  0  0  0
   70.0983   75.3839   92.1192 C   0  0  0  0  0  0  0  0  0  0  0  0
   69.1991   75.8985   91.1662 C   0  0  0  0  0  0  0  0  0  0  0  0
   68.0224   75.1782   90.8852 C   0  0  0  0  0  0  0  0  0  0  0  0
   65.2414   73.6652   91.6007 C   0  0  0  0  0  0  0  0  0  0  0  0
   65.0553   74.8447   92.0079 O   0  0  0  0  0  0  0  0  0  0  0  0
   66.5589   73.2134   91.2480 N   0  0  0  0  0  0  0  0  0  0  0  0
   66.6475   72.3477   90.7878 H   0  0  0  0  0  0  0  0  0  0  0  0
   64.0726   72.7332   91.4964 C   0  0  0  0  0  0  0  0  0  0  0  0
   62.8198   73.3842   92.0895 C   0  0  0  0  0  0  0  0  0  0  0  0
   62.4071   74.6225   91.2846 C   0  0  0  0  0  0  0  0  0  0  0  0
   62.1896   74.2876   89.7907 C   0  0  0  0  0  0  0  0  0  0  0  0
   63.1404   75.0697   88.8662 C   0  0  0  0  0  0  0  0  0  0  0  0
   63.3388   76.5357   89.3151 C   0  0  0  0  0  0  0  0  0  0  0  0
   65.7953   76.5484   88.6124 C   0  0  0  0  0  0  0  0  0  0  0  0
   64.7868   76.8678   89.7133 C   0  0  0  0  0  0  0  0  0  0  0  0
   70.3136   80.8360   88.4361 C   0  0  0  0  0  0  0  0  0  0  0  0
   71.2129   81.6263   89.2090 O   0  0  0  0  0  0  0  0  0  0  0  0
   72.5881   81.7435   88.9504 C   0  0  0  0  0  0  0  0  0  0  0  0
   73.1990   82.9802   88.6834 C   0  0  0  0  0  0  0  0  0  0  0  0
   74.5656   83.0458   88.4149 C   0  0  0  0  0  0  0  0  0  0  0  0
   75.3473   81.8860   88.4011 C   0  0  0  0  0  0  0  0  0  0  0  0
   76.6920   82.0115   88.0479 O   0  0  0  0  0  0  0  0  0  0  0  0
   74.7517   80.6377   88.7067 C   0  0  0  0  0  0  0  0  0  0  0  0
   73.3708   80.5842   88.9625 C   0  0  0  0  0  0  0  0  0  0  0  0
   77.0483   82.8559   87.8528 H   0  0  0  0  0  0  0  0  0  0  0  0
   75.5313   79.3847   88.7934 C   0  0  0  0  0  0  0  0  0  0  0  0
   76.7634   79.3756   88.5288 O   0  0  0  0  0  0  0  0  0  0  0  0
   74.9122   78.2116   89.2153 O   0  0  0  0  0  0  0  0  0  0  0  0
   73.9964   78.2104   89.4138 H   0  0  0  0  0  0  0  0  0  0  0  0
 23 24  1  0  0  0
 24 22  1  0  0  0
 22 21  1  0  0  0
 21 20  1  0  0  0
 20 19  1  0  0  0
 19 18  1  0  0  0
 18 17  1  0  0  0
 17 13  1  0  0  0
 13 14  2  0  0  0
 13 15  1  0  0  0
 15  7  1  0  0  0
  7  8  2  0  0  0
  8  9  1  0  0  0
  9 10  2  0  0  0
 10 11  1  0  0  0
 11  1  1  0  0  0
  1  2  2  0  0  0
  2  3  2  0  0  0
  3  4  2  0  0  0
  4 25  1  0  0  0
 25 26  1  0  0  0
 26 27  1  0  0  0
 27 28  2  0  0  0
 28 29  1  0  0  0
 29 30  2  0  0  0
 30 31  1  0  0  0
 30 32  1  0  0  0
 32 35  1  0  0  0
 35 36  2  0  0  0
 35 37  1  0  0  0
 32 33  2  0  0  0
  4  5  1  0  0  0
  5  6  2  0  0  0
 11 12  2  0  0  0
 12  7  1  0  0  0
  6  1  2  0  0  0
 33 27  1  0  0  0
 15 16  1  0  0  0
 31 34  1  0  0  0
 37 38  1  0  0  0
M  END
> <Activity>
14.3

> <minimizedAffinity>
-7.83777

$$$$
HIPS7004


 34 37  0  0  0  0  0  0  0  0999 V2000
   68.9840   74.8568   91.6606 C   0  0  0  0  0  0  0  0  0  0  0  0
   70.3590   74.8079   91.9323 C   0  0  0  0  0  0  0  0  0  0  0  0
   71.2467   75.6115   91.2146 C   0  0  0  0  0  0  0  0  0  0  0  0
   70.7708   76.4786   90.2308 C   0  0  0  0  0  0  0  0  0  0  0  0
   69.3935   76.5643   89.9628 C   0  0  0  0  0  0  0  0  0  0  0  0
   68.5055   75.7388   90.6783 C   0  0  0  0  0  0  0  0  0  0  0  0
   68.9004   77.5040   88.9276 C   0  0  0  0  0  0  0  0  0  0  0  0
   67.8219   77.1723   88.0901 C   0  0  0  0  0  0  0  0  0  0  0  0
   67.3755   78.0978   87.1481 C   0  0  0  0  0  0  0  0  0  0  0  0
   67.9997   79.3406   87.0387 C   0  0  0  0  0  0  0  0  0  0  0  0
   69.0869   79.6429   87.8761 C   0  0  0  0  0  0  0  0  0  0  0  0
   69.4923   78.7244   88.7946 N   0  0  0  0  0  0  0  0  0  0  0  0
   69.7797   80.8614   87.8021 O   0  0  0  0  0  0  0  0  0  0  0  0
   70.4874   81.4758   88.8796 C   0  0  0  0  0  0  0  0  0  0  0  0
   71.9482   81.1062   88.8489 C   0  0  0  0  0  0  0  0  0  0  0  0
   72.3387   79.7583   88.9273 C   0  0  0  0  0  0  0  0  0  0  0  0
   73.6944   79.4154   88.9085 C   0  0  0  0  0  0  0  0  0  0  0  0
   74.6676   80.4145   88.8223 C   0  0  0  0  0  0  0  0  0  0  0  0
   74.2888   81.7580   88.7562 C   0  0  0  0  0  0  0  0  0  0  0  0
   72.9344   82.1053   88.7740 C   0  0  0  0  0  0  0  0  0  0  0  0
   68.0195   73.9651   92.3957 C   0  0  0  0  0  0  0  0  0  0  0  0
   67.0990   73.3661   91.4818 O   0  0  0  0  0  0  0  0  0  0  0  0
   64.1390   75.5513   90.9779 C   0  0  0  0  0  0  0  0  0  0  0  0
   65.4645   75.1013   91.1497 C   0  0  0  0  0  0  0  0  0  0  0  0
   65.7551   73.7417   91.3125 C   0  0  0  0  0  0  0  0  0  0  0  0
   64.7015   72.8125   91.3118 C   0  0  0  0  0  0  0  0  0  0  0  0
   63.3844   73.2412   91.1462 C   0  0  0  0  0  0  0  0  0  0  0  0
   63.0925   74.6006   90.9788 C   0  0  0  0  0  0  0  0  0  0  0  0
   61.7646   74.9987   90.8173 O   0  0  0  0  0  0  0  0  0  0  0  0
   61.0801   74.3589   90.8198 H   0  0  0  0  0  0  0  0  0  0  0  0
   63.2149   77.6375   91.6743 O   0  0  0  0  0  0  0  0  0  0  0  0
   63.8739   77.0044   90.8051 C   0  0  0  0  0  0  0  0  0  0  0  0
   64.3467   77.6898   89.6891 O   0  0  0  0  0  0  0  0  0  0  0  0
   64.8381   77.2352   89.0334 H   0  0  0  0  0  0  0  0  0  0  0  0
 31 32  2  0  0  0
 32 33  1  0  0  0
 32 23  1  0  0  0
 23 24  2  0  0  0
 24 25  1  0  0  0
 25 22  1  0  0  0
 22 21  1  0  0  0
 21  1  1  0  0  0
  1  2  2  0  0  0
  2  3  1  0  0  0
  3  4  2  0  0  0
  4  5  1  0  0  0
  5  7  1  0  0  0
  7  8  2  0  0  0
  8  9  1  0  0  0
  9 10  2  0  0  0
 10 11  1  0  0  0
 11 13  1  0  0  0
 13 14  1  0  0  0
 14 15  1  0  0  0
 15 16  2  0  0  0
 16 17  1  0  0  0
 17 18  2  0  0  0
 18 19  1  0  0  0
 19 20  2  0  0  0
 11 12  2  0  0  0
  5  6  2  0  0  0
 25 26  2  0  0  0
 26 27  1  0  0  0
 27 28  2  0  0  0
 28 29  1  0  0  0
 28 23  1  0  0  0
  6  1  1  0  0  0
 12  7  2  0  0  0
 20 15  1  0  0  0
 33 34  1  0  0  0
 29 30  1  0  0  0
M  END
> <Activity>
16.3

> <minimizedAffinity>
-11.02201

$$$$
HIPS7004


 34 37  0  0  0  0  0  0  0  0999 V2000
   69.9878   75.1664   90.7735 C   0  0  0  0  0  0  0  0  0  0  0  0
   70.6529   74.7930   91.9504 C   0  0  0  0  0  0  0  0  0  0  0  0
   69.9557   74.1625   92.9824 C   0  0  0  0  0  0  0  0  0  0  0  0
   68.5949   73.8876   92.8451 C   0  0  0  0  0  0  0  0  0  0  0  0
   67.9156   74.2272   91.6621 C   0  0  0  0  0  0  0  0  0  0  0  0
   68.6208   74.8782   90.6322 C   0  0  0  0  0  0  0  0  0  0  0  0
   66.4737   73.9120   91.5228 C   0  0  0  0  0  0  0  0  0  0  0  0
   66.0305   72.6031   91.2684 C   0  0  0  0  0  0  0  0  0  0  0  0
   64.6633   72.3490   91.1711 C   0  0  0  0  0  0  0  0  0  0  0  0
   63.7463   73.3894   91.3220 C   0  0  0  0  0  0  0  0  0  0  0  0
   64.2145   74.6929   91.5594 C   0  0  0  0  0  0  0  0  0  0  0  0
   65.5541   74.9082   91.6619 N   0  0  0  0  0  0  0  0  0  0  0  0
   63.3511   75.7915   91.6933 O   0  0  0  0  0  0  0  0  0  0  0  0
   63.2047   76.8475   90.7431 C   0  0  0  0  0  0  0  0  0  0  0  0
   64.4747   77.0488   89.9571 C   0  0  0  0  0  0  0  0  0  0  0  0
   64.7514   76.2408   88.8408 C   0  0  0  0  0  0  0  0  0  0  0  0
   65.9343   76.4209   88.1167 C   0  0  0  0  0  0  0  0  0  0  0  0
   66.8519   77.3996   88.5078 C   0  0  0  0  0  0  0  0  0  0  0  0
   66.5907   78.1993   89.6236 C   0  0  0  0  0  0  0  0  0  0  0  0
   65.4088   78.0232   90.3500 C   0  0  0  0  0  0  0  0  0  0  0  0
   70.7162   75.8857   89.6699 C   0  0  0  0  0  0  0  0  0  0  0  0
   70.0095   77.0696   89.2955 O   0  0  0  0  0  0  0  0  0  0  0  0
   72.6215   79.6900   88.9769 C   0  0  0  0  0  0  0  0  0  0  0  0
   71.9778   78.4465   89.1451 C   0  0  0  0  0  0  0  0  0  0  0  0
   70.5823   78.3409   89.1177 C   0  0  0  0  0  0  0  0  0  0  0  0
   69.8125   79.5005   88.9265 C   0  0  0  0  0  0  0  0  0  0  0  0
   70.4333   80.7387   88.7617 C   0  0  0  0  0  0  0  0  0  0  0  0
   71.8296   80.8453   88.7845 C   0  0  0  0  0  0  0  0  0  0  0  0
   72.4212   82.0984   88.6186 O   0  0  0  0  0  0  0  0  0  0  0  0
   71.8853   82.8565   88.4918 H   0  0  0  0  0  0  0  0  0  0  0  0
   74.6934   80.8719   88.9357 O   0  0  0  0  0  0  0  0  0  0  0  0
   74.1068   79.7579   89.0096 C   0  0  0  0  0  0  0  0  0  0  0  0
   74.8732   78.6010   89.1239 O   0  0  0  0  0  0  0  0  0  0  0  0
   74.4540   77.7649   89.1799 H   0  0  0  0  0  0  0  0  0  0  0  0
 31 32  2  0  0  0
 32 33  1  0  0  0
 32 23  1  0  0  0
 23 24  2  0  0  0
 24 25  1  0  0  0
 25 22  1  0  0  0
 22 21  1  0  0  0
 21  1  1  0  0  0
  1  2  2  0  0  0
  2  3  1  0  0  0
  3  4  2  0  0  0
  4  5  1  0  0  0
  5  7  1  0  0  0
  7  8  2  0  0  0
  8  9  1  0  0  0
  9 10  2  0  0  0
 10 11  1  0  0  0
 11 13  1  0  0  0
 13 14  1  0  0  0
 14 15  1  0  0  0
 15 16  2  0  0  0
 16 17  1  0  0  0
 17 18  2  0  0  0
 18 19  1  0  0  0
 19 20  2  0  0  0
 11 12  2  0  0  0
  5  6  2  0  0  0
 25 26  2  0  0  0
 26 27  1  0  0  0
 27 28  2  0  0  0
 28 29  1  0  0  0
 28 23  1  0  0  0
  6  1  1  0  0  0
 12  7  2  0  0  0
 20 15  1  0  0  0
 33 34  1  0  0  0
 29 30  1  0  0  0
M  END
> <Activity>
16.3

> <minimizedAffinity>
-10.07586

$$$$
HIPS7004


 34 37  0  0  0  0  0  0  0  0999 V2000
   64.0912   74.2499   91.3508 C   0  0  0  0  0  0  0  0  0  0  0  0
   63.9274   72.8719   91.1472 C   0  0  0  0  0  0  0  0  0  0  0  0
   65.0404   72.0305   91.1014 C   0  0  0  0  0  0  0  0  0  0  0  0
   66.3230   72.5527   91.2707 C   0  0  0  0  0  0  0  0  0  0  0  0
   66.5073   73.9265   91.5050 C   0  0  0  0  0  0  0  0  0  0  0  0
   65.3820   74.7719   91.5329 C   0  0  0  0  0  0  0  0  0  0  0  0
   67.8747   74.4644   91.7019 C   0  0  0  0  0  0  0  0  0  0  0  0
   68.7443   73.9229   92.6637 C   0  0  0  0  0  0  0  0  0  0  0  0
   70.0305   74.4440   92.7957 C   0  0  0  0  0  0  0  0  0  0  0  0
   70.4455   75.4968   91.9800 C   0  0  0  0  0  0  0  0  0  0  0  0
   69.5523   76.0324   91.0368 C   0  0  0  0  0  0  0  0  0  0  0  0
   68.3075   75.4950   90.9221 N   0  0  0  0  0  0  0  0  0  0  0  0
   69.8921   77.1095   90.2032 O   0  0  0  0  0  0  0  0  0  0  0  0
   70.9873   77.1311   89.2869 C   0  0  0  0  0  0  0  0  0  0  0  0
   71.5101   78.5323   89.1006 C   0  0  0  0  0  0  0  0  0  0  0  0
   70.6169   79.6117   88.9898 C   0  0  0  0  0  0  0  0  0  0  0  0
   71.1013   80.9110   88.8073 C   0  0  0  0  0  0  0  0  0  0  0  0
   72.4773   81.1394   88.7237 C   0  0  0  0  0  0  0  0  0  0  0  0
   73.3723   80.0705   88.8207 C   0  0  0  0  0  0  0  0  0  0  0  0
   72.8923   78.7699   89.0040 C   0  0  0  0  0  0  0  0  0  0  0  0
   62.9044   75.1756   91.3593 C   0  0  0  0  0  0  0  0  0  0  0  0
   63.0496   76.1813   90.3550 O   0  0  0  0  0  0  0  0  0  0  0  0
   66.1499   77.2309   88.6010 C   0  0  0  0  0  0  0  0  0  0  0  0
   64.9575   76.5570   88.9368 C   0  0  0  0  0  0  0  0  0  0  0  0
   64.2273   76.8981   90.0813 C   0  0  0  0  0  0  0  0  0  0  0  0
   64.7002   77.9273   90.9124 C   0  0  0  0  0  0  0  0  0  0  0  0
   65.8796   78.6019   90.5964 C   0  0  0  0  0  0  0  0  0  0  0  0
   66.6089   78.2647   89.4494 C   0  0  0  0  0  0  0  0  0  0  0  0
   67.7861   78.9567   89.1611 O   0  0  0  0  0  0  0  0  0  0  0  0
   68.0796   79.6399   89.7313 H   0  0  0  0  0  0  0  0  0  0  0  0
   68.0919   76.4534   87.4541 O   0  0  0  0  0  0  0  0  0  0  0  0
   66.8939   76.8394   87.3743 C   0  0  0  0  0  0  0  0  0  0  0  0
   66.2856   76.8889   86.1227 O   0  0  0  0  0  0  0  0  0  0  0  0
   65.3962   77.1732   86.0450 H   0  0  0  0  0  0  0  0  0  0  0  0
 31 32  2  0  0  0
 32 33  1  0  0  0
 32 23  1  0  0  0
 23 24  2  0  0  0
 24 25  1  0  0  0
 25 22  1  0  0  0
 22 21  1  0  0  0
 21  1  1  0  0  0
  1  2  2  0  0  0
  2  3  1  0  0  0
  3  4  2  0  0  0
  4  5  1  0  0  0
  5  7  1  0  0  0
  7  8  2  0  0  0
  8  9  1  0  0  0
  9 10  2  0  0  0
 10 11  1  0  0  0
 11 13  1  0  0  0
 13 14  1  0  0  0
 14 15  1  0  0  0
 15 16  2  0  0  0
 16 17  1  0  0  0
 17 18  2  0  0  0
 18 19  1  0  0  0
 19 20  2  0  0  0
 11 12  2  0  0  0
  5  6  2  0  0  0
 25 26  2  0  0  0
 26 27  1  0  0  0
 27 28  2  0  0  0
 28 29  1  0  0  0
 28 23  1  0  0  0
  6  1  1  0  0  0
 12  7  2  0  0  0
 20 15  1  0  0  0
 33 34  1  0  0  0
 29 30  1  0  0  0
M  END
> <Activity>
16.3

> <minimizedAffinity>
-9.92209

$$$$
HIPS7004


 34 37  0  0  0  0  0  0  0  0999 V2000
   66.8686   76.7386   89.8538 C   0  0  0  0  0  0  0  0  0  0  0  0
   65.5200   77.0425   89.6174 C   0  0  0  0  0  0  0  0  0  0  0  0
   64.8464   77.9428   90.4447 C   0  0  0  0  0  0  0  0  0  0  0  0
   65.5137   78.5566   91.5051 C   0  0  0  0  0  0  0  0  0  0  0  0
   66.8732   78.2882   91.7419 C   0  0  0  0  0  0  0  0  0  0  0  0
   67.5419   77.3664   90.9142 C   0  0  0  0  0  0  0  0  0  0  0  0
   67.5743   78.9621   92.8609 C   0  0  0  0  0  0  0  0  0  0  0  0
   68.6429   78.3460   93.5339 C   0  0  0  0  0  0  0  0  0  0  0  0
   69.2894   79.0284   94.5633 C   0  0  0  0  0  0  0  0  0  0  0  0
   68.8732   80.3108   94.9215 C   0  0  0  0  0  0  0  0  0  0  0  0
   67.7915   80.8994   94.2446 C   0  0  0  0  0  0  0  0  0  0  0  0
   67.1881   80.2142   93.2357 N   0  0  0  0  0  0  0  0  0  0  0  0
   67.3015   82.1738   94.5705 O   0  0  0  0  0  0  0  0  0  0  0  0
   67.1936   82.7041   95.8921 C   0  0  0  0  0  0  0  0  0  0  0  0
   66.0530   83.6841   95.9910 C   0  0  0  0  0  0  0  0  0  0  0  0
   66.1897   84.9835   95.4729 C   0  0  0  0  0  0  0  0  0  0  0  0
   65.1349   85.8964   95.5730 C   0  0  0  0  0  0  0  0  0  0  0  0
   63.9430   85.5223   96.1992 C   0  0  0  0  0  0  0  0  0  0  0  0
   63.8026   84.2364   96.7280 C   0  0  0  0  0  0  0  0  0  0  0  0
   64.8545   83.3203   96.6294 C   0  0  0  0  0  0  0  0  0  0  0  0
   67.5962   75.7375   88.9971 C   0  0  0  0  0  0  0  0  0  0  0  0
   68.3797   76.4054   88.0065 O   0  0  0  0  0  0  0  0  0  0  0  0
   68.5911   80.0667   87.4228 C   0  0  0  0  0  0  0  0  0  0  0  0
   68.1709   78.7210   87.3844 C   0  0  0  0  0  0  0  0  0  0  0  0
   68.8536   77.7259   88.0937 C   0  0  0  0  0  0  0  0  0  0  0  0
   69.9833   78.0787   88.8506 C   0  0  0  0  0  0  0  0  0  0  0  0
   70.4141   79.4045   88.8967 C   0  0  0  0  0  0  0  0  0  0  0  0
   69.7296   80.4020   88.1912 C   0  0  0  0  0  0  0  0  0  0  0  0
   70.1862   81.7193   88.2556 O   0  0  0  0  0  0  0  0  0  0  0  0
   70.9420   81.9286   88.7684 H   0  0  0  0  0  0  0  0  0  0  0  0
   68.1335   81.3366   85.4558 O   0  0  0  0  0  0  0  0  0  0  0  0
   67.8357   81.0936   86.6570 C   0  0  0  0  0  0  0  0  0  0  0  0
   66.7908   81.8003   87.2466 O   0  0  0  0  0  0  0  0  0  0  0  0
   66.5561   81.6326   88.1381 H   0  0  0  0  0  0  0  0  0  0  0  0
 31 32  2  0  0  0
 32 33  1  0  0  0
 32 23  1  0  0  0
 23 24  2  0  0  0
 24 25  1  0  0  0
 25 22  1  0  0  0
 22 21  1  0  0  0
 21  1  1  0  0  0
  1  2  2  0  0  0
  2  3  1  0  0  0
  3  4  2  0  0  0
  4  5  1  0  0  0
  5  7  1  0  0  0
  7  8  2  0  0  0
  8  9  1  0  0  0
  9 10  2  0  0  0
 10 11  1  0  0  0
 11 13  1  0  0  0
 13 14  1  0  0  0
 14 15  1  0  0  0
 15 16  2  0  0  0
 16 17  1  0  0  0
 17 18  2  0  0  0
 18 19  1  0  0  0
 19 20  2  0  0  0
 11 12  2  0  0  0
  5  6  2  0  0  0
 25 26  2  0  0  0
 26 27  1  0  0  0
 27 28  2  0  0  0
 28 29  1  0  0  0
 28 23  1  0  0  0
  6  1  1  0  0  0
 12  7  2  0  0  0
 20 15  1  0  0  0
 33 34  1  0  0  0
 29 30  1  0  0  0
M  END
> <Activity>
16.3

> <minimizedAffinity>
-9.87642

$$$$
HIPS7004


 34 37  0  0  0  0  0  0  0  0999 V2000
   69.3175   74.8708   91.5035 C   0  0  0  0  0  0  0  0  0  0  0  0
   70.7091   74.7065   91.5624 C   0  0  0  0  0  0  0  0  0  0  0  0
   71.5394   75.4262   90.7014 C   0  0  0  0  0  0  0  0  0  0  0  0
   70.9913   76.3239   89.7847 C   0  0  0  0  0  0  0  0  0  0  0  0
   69.6012   76.5252   89.7291 C   0  0  0  0  0  0  0  0  0  0  0  0
   68.7685   75.7836   90.5885 C   0  0  0  0  0  0  0  0  0  0  0  0
   69.0344   77.4962   88.7629 C   0  0  0  0  0  0  0  0  0  0  0  0
   67.9216   77.1747   87.9674 C   0  0  0  0  0  0  0  0  0  0  0  0
   67.4066   78.1288   87.0912 C   0  0  0  0  0  0  0  0  0  0  0  0
   67.9965   79.3900   87.0054 C   0  0  0  0  0  0  0  0  0  0  0  0
   69.1187   79.6824   87.7991 C   0  0  0  0  0  0  0  0  0  0  0  0
   69.5913   78.7354   88.6542 N   0  0  0  0  0  0  0  0  0  0  0  0
   69.7796   80.9195   87.7441 O   0  0  0  0  0  0  0  0  0  0  0  0
   70.4468   81.5488   88.8387 C   0  0  0  0  0  0  0  0  0  0  0  0
   71.9122   81.1971   88.8543 C   0  0  0  0  0  0  0  0  0  0  0  0
   72.8836   82.2086   88.7603 C   0  0  0  0  0  0  0  0  0  0  0  0
   74.2435   81.8819   88.7651 C   0  0  0  0  0  0  0  0  0  0  0  0
   74.6416   80.5454   88.8529 C   0  0  0  0  0  0  0  0  0  0  0  0
   73.6825   79.5323   88.9344 C   0  0  0  0  0  0  0  0  0  0  0  0
   72.3218   79.8544   88.9306 C   0  0  0  0  0  0  0  0  0  0  0  0
   68.4070   74.0700   92.3954 C   0  0  0  0  0  0  0  0  0  0  0  0
   67.3958   74.9087   92.9571 O   0  0  0  0  0  0  0  0  0  0  0  0
   65.3718   77.0763   90.7220 C   0  0  0  0  0  0  0  0  0  0  0  0
   65.9254   75.9464   91.3590 C   0  0  0  0  0  0  0  0  0  0  0  0
   66.8857   76.0790   92.3688 C   0  0  0  0  0  0  0  0  0  0  0  0
   67.3085   77.3646   92.7457 C   0  0  0  0  0  0  0  0  0  0  0  0
   66.7733   78.4926   92.1235 C   0  0  0  0  0  0  0  0  0  0  0  0
   65.8093   78.3617   91.1162 C   0  0  0  0  0  0  0  0  0  0  0  0
   65.2941   79.5092   90.5113 O   0  0  0  0  0  0  0  0  0  0  0  0
   65.5922   80.3554   90.7815 H   0  0  0  0  0  0  0  0  0  0  0  0
   63.1896   77.3598   89.8008 O   0  0  0  0  0  0  0  0  0  0  0  0
   64.3517   76.8915   89.6559 C   0  0  0  0  0  0  0  0  0  0  0  0
   64.6581   76.2044   88.4842 O   0  0  0  0  0  0  0  0  0  0  0  0
   65.5165   75.8498   88.3599 H   0  0  0  0  0  0  0  0  0  0  0  0
 31 32  2  0  0  0
 32 33  1  0  0  0
 32 23  1  0  0  0
 23 24  2  0  0  0
 24 25  1  0  0  0
 25 22  1  0  0  0
 22 21  1  0  0  0
 21  1  1  0  0  0
  1  2  2  0  0  0
  2  3  1  0  0  0
  3  4  2  0  0  0
  4  5  1  0  0  0
  5  7  1  0  0  0
  7  8  2  0  0  0
  8  9  1  0  0  0
  9 10  2  0  0  0
 10 11  1  0  0  0
 11 13  1  0  0  0
 13 14  1  0  0  0
 14 15  1  0  0  0
 15 16  2  0  0  0
 16 17  1  0  0  0
 17 18  2  0  0  0
 18 19  1  0  0  0
 19 20  2  0  0  0
 11 12  2  0  0  0
  5  6  2  0  0  0
 25 26  2  0  0  0
 26 27  1  0  0  0
 27 28  2  0  0  0
 28 29  1  0  0  0
 28 23  1  0  0  0
  6  1  1  0  0  0
 12  7  2  0  0  0
 20 15  1  0  0  0
 33 34  1  0  0  0
 29 30  1  0  0  0
M  END
> <Activity>
16.3

> <minimizedAffinity>
-9.79367

$$$$
HIPS7004


 34 37  0  0  0  0  0  0  0  0999 V2000
   69.9158   74.9006   90.9079 C   0  0  0  0  0  0  0  0  0  0  0  0
   70.4988   74.6257   92.1535 C   0  0  0  0  0  0  0  0  0  0  0  0
   69.7163   74.1477   93.2062 C   0  0  0  0  0  0  0  0  0  0  0  0
   68.3509   73.9277   93.0226 C   0  0  0  0  0  0  0  0  0  0  0  0
   67.7523   74.1692   91.7739 C   0  0  0  0  0  0  0  0  0  0  0  0
   68.5438   74.6673   90.7216 C   0  0  0  0  0  0  0  0  0  0  0  0
   66.3039   73.9130   91.5882 C   0  0  0  0  0  0  0  0  0  0  0  0
   65.8114   72.6163   91.3634 C   0  0  0  0  0  0  0  0  0  0  0  0
   64.4388   72.4196   91.2204 C   0  0  0  0  0  0  0  0  0  0  0  0
   63.5652   73.5045   91.2969 C   0  0  0  0  0  0  0  0  0  0  0  0
   64.0830   74.7940   91.5059 C   0  0  0  0  0  0  0  0  0  0  0  0
   65.4261   74.9535   91.6544 N   0  0  0  0  0  0  0  0  0  0  0  0
   63.2662   75.9340   91.5655 O   0  0  0  0  0  0  0  0  0  0  0  0
   63.2197   76.9689   90.5826 C   0  0  0  0  0  0  0  0  0  0  0  0
   64.5624   77.1498   89.9224 C   0  0  0  0  0  0  0  0  0  0  0  0
   65.4628   78.1160   90.4033 C   0  0  0  0  0  0  0  0  0  0  0  0
   66.7050   78.2908   89.7850 C   0  0  0  0  0  0  0  0  0  0  0  0
   67.0517   77.5111   88.6785 C   0  0  0  0  0  0  0  0  0  0  0  0
   66.1578   76.5564   88.1861 C   0  0  0  0  0  0  0  0  0  0  0  0
   64.9149   76.3779   88.8016 C   0  0  0  0  0  0  0  0  0  0  0  0
   70.7380   75.4572   89.7766 C   0  0  0  0  0  0  0  0  0  0  0  0
   70.2189   76.7208   89.3582 O   0  0  0  0  0  0  0  0  0  0  0  0
   70.9888   80.3327   88.9684 C   0  0  0  0  0  0  0  0  0  0  0  0
   70.2975   79.1178   89.1551 C   0  0  0  0  0  0  0  0  0  0  0  0
   70.9733   77.8920   89.1703 C   0  0  0  0  0  0  0  0  0  0  0  0
   72.3661   77.8768   88.9879 C   0  0  0  0  0  0  0  0  0  0  0  0
   73.0647   79.0693   88.7990 C   0  0  0  0  0  0  0  0  0  0  0  0
   72.3906   80.2968   88.7878 C   0  0  0  0  0  0  0  0  0  0  0  0
   73.1171   81.4727   88.5946 O   0  0  0  0  0  0  0  0  0  0  0  0
   74.0459   81.4355   88.4760 H   0  0  0  0  0  0  0  0  0  0  0  0
   69.4624   81.8913   88.0030 O   0  0  0  0  0  0  0  0  0  0  0  0
   70.2331   81.6136   88.9619 C   0  0  0  0  0  0  0  0  0  0  0  0
   70.3594   82.5237   90.0081 O   0  0  0  0  0  0  0  0  0  0  0  0
   70.9275   82.3336   90.7285 H   0  0  0  0  0  0  0  0  0  0  0  0
 31 32  2  0  0  0
 32 33  1  0  0  0
 32 23  1  0  0  0
 23 24  2  0  0  0
 24 25  1  0  0  0
 25 22  1  0  0  0
 22 21  1  0  0  0
 21  1  1  0  0  0
  1  2  2  0  0  0
  2  3  1  0  0  0
  3  4  2  0  0  0
  4  5  1  0  0  0
  5  7  1  0  0  0
  7  8  2  0  0  0
  8  9  1  0  0  0
  9 10  2  0  0  0
 10 11  1  0  0  0
 11 13  1  0  0  0
 13 14  1  0  0  0
 14 15  1  0  0  0
 15 16  2  0  0  0
 16 17  1  0  0  0
 17 18  2  0  0  0
 18 19  1  0  0  0
 19 20  2  0  0  0
 11 12  2  0  0  0
  5  6  2  0  0  0
 25 26  2  0  0  0
 26 27  1  0  0  0
 27 28  2  0  0  0
 28 29  1  0  0  0
 28 23  1  0  0  0
  6  1  1  0  0  0
 12  7  2  0  0  0
 20 15  1  0  0  0
 33 34  1  0  0  0
 29 30  1  0  0  0
M  END
> <Activity>
16.3

> <minimizedAffinity>
-9.68909

$$$$
HIPS7004


 34 37  0  0  0  0  0  0  0  0999 V2000
   70.5045   79.6569   89.3545 C   0  0  0  0  0  0  0  0  0  0  0  0
   71.7365   79.2439   88.8268 C   0  0  0  0  0  0  0  0  0  0  0  0
   72.2389   77.9756   89.1230 C   0  0  0  0  0  0  0  0  0  0  0  0
   71.5127   77.1049   89.9360 C   0  0  0  0  0  0  0  0  0  0  0  0
   70.2623   77.4880   90.4514 C   0  0  0  0  0  0  0  0  0  0  0  0
   69.7694   78.7747   90.1627 C   0  0  0  0  0  0  0  0  0  0  0  0
   69.4931   76.5452   91.2985 C   0  0  0  0  0  0  0  0  0  0  0  0
   69.6294   76.5374   92.6970 C   0  0  0  0  0  0  0  0  0  0  0  0
   68.8663   75.6508   93.4552 C   0  0  0  0  0  0  0  0  0  0  0  0
   67.9785   74.7777   92.8262 C   0  0  0  0  0  0  0  0  0  0  0  0
   67.8720   74.7928   91.4251 C   0  0  0  0  0  0  0  0  0  0  0  0
   68.6203   75.6780   90.7123 N   0  0  0  0  0  0  0  0  0  0  0  0
   67.0211   73.9239   90.7241 O   0  0  0  0  0  0  0  0  0  0  0  0
   66.0756   73.0349   91.3201 C   0  0  0  0  0  0  0  0  0  0  0  0
   64.6824   73.6067   91.2606 C   0  0  0  0  0  0  0  0  0  0  0  0
   64.3904   74.6693   90.3882 C   0  0  0  0  0  0  0  0  0  0  0  0
   63.1000   75.2065   90.3395 C   0  0  0  0  0  0  0  0  0  0  0  0
   62.0974   74.6947   91.1674 C   0  0  0  0  0  0  0  0  0  0  0  0
   62.3818   73.6464   92.0466 C   0  0  0  0  0  0  0  0  0  0  0  0
   63.6704   73.1057   92.0980 C   0  0  0  0  0  0  0  0  0  0  0  0
   69.9703   81.0369   89.0793 C   0  0  0  0  0  0  0  0  0  0  0  0
   69.4935   81.1279   87.7355 O   0  0  0  0  0  0  0  0  0  0  0  0
   67.5819   78.0030   87.1268 C   0  0  0  0  0  0  0  0  0  0  0  0
   68.4528   78.9583   87.6906 C   0  0  0  0  0  0  0  0  0  0  0  0
   68.6055   80.2280   87.1213 C   0  0  0  0  0  0  0  0  0  0  0  0
   67.8808   80.5489   85.9614 C   0  0  0  0  0  0  0  0  0  0  0  0
   67.0175   79.6145   85.3893 C   0  0  0  0  0  0  0  0  0  0  0  0
   66.8603   78.3453   85.9602 C   0  0  0  0  0  0  0  0  0  0  0  0
   65.9904   77.4315   85.3633 O   0  0  0  0  0  0  0  0  0  0  0  0
   65.5179   77.6705   84.5903 H   0  0  0  0  0  0  0  0  0  0  0  0
   66.3353   76.2955   88.2321 O   0  0  0  0  0  0  0  0  0  0  0  0
   67.4464   76.6665   87.7648 C   0  0  0  0  0  0  0  0  0  0  0  0
   68.5357   75.8039   87.8561 O   0  0  0  0  0  0  0  0  0  0  0  0
   69.3686   76.0633   87.5141 H   0  0  0  0  0  0  0  0  0  0  0  0
 31 32  2  0  0  0
 32 33  1  0  0  0
 32 23  1  0  0  0
 23 24  2  0  0  0
 24 25  1  0  0  0
 25 22  1  0  0  0
 22 21  1  0  0  0
 21  1  1  0  0  0
  1  2  2  0  0  0
  2  3  1  0  0  0
  3  4  2  0  0  0
  4  5  1  0  0  0
  5  7  1  0  0  0
  7  8  2  0  0  0
  8  9  1  0  0  0
  9 10  2  0  0  0
 10 11  1  0  0  0
 11 13  1  0  0  0
 13 14  1  0  0  0
 14 15  1  0  0  0
 15 16  2  0  0  0
 16 17  1  0  0  0
 17 18  2  0  0  0
 18 19  1  0  0  0
 19 20  2  0  0  0
 11 12  2  0  0  0
  5  6  2  0  0  0
 25 26  2  0  0  0
 26 27  1  0  0  0
 27 28  2  0  0  0
 28 29  1  0  0  0
 28 23  1  0  0  0
  6  1  1  0  0  0
 12  7  2  0  0  0
 20 15  1  0  0  0
 33 34  1  0  0  0
 29 30  1  0  0  0
M  END
> <Activity>
16.3

> <minimizedAffinity>
-9.35830

$$$$
HIPS7004


 34 37  0  0  0  0  0  0  0  0999 V2000
   69.2196   76.0004   92.0193 C   0  0  0  0  0  0  0  0  0  0  0  0
   69.8932   74.7877   91.8134 C   0  0  0  0  0  0  0  0  0  0  0  0
   70.9472   74.7147   90.9010 C   0  0  0  0  0  0  0  0  0  0  0  0
   71.3465   75.8511   90.1969 C   0  0  0  0  0  0  0  0  0  0  0  0
   70.7038   77.0831   90.4097 C   0  0  0  0  0  0  0  0  0  0  0  0
   69.6305   77.1458   91.3186 C   0  0  0  0  0  0  0  0  0  0  0  0
   71.1512   78.2864   89.6683 C   0  0  0  0  0  0  0  0  0  0  0  0
   72.4978   78.4689   89.3108 C   0  0  0  0  0  0  0  0  0  0  0  0
   72.8682   79.6037   88.5909 C   0  0  0  0  0  0  0  0  0  0  0  0
   71.9071   80.5496   88.2335 C   0  0  0  0  0  0  0  0  0  0  0  0
   70.5696   80.3530   88.6167 C   0  0  0  0  0  0  0  0  0  0  0  0
   70.2357   79.2296   89.3080 N   0  0  0  0  0  0  0  0  0  0  0  0
   69.5556   81.2761   88.3163 O   0  0  0  0  0  0  0  0  0  0  0  0
   68.8203   81.3261   87.0931 C   0  0  0  0  0  0  0  0  0  0  0  0
   68.0862   80.0327   86.8491 C   0  0  0  0  0  0  0  0  0  0  0  0
   68.1001   79.0172   87.8208 C   0  0  0  0  0  0  0  0  0  0  0  0
   67.4270   77.8130   87.5908 C   0  0  0  0  0  0  0  0  0  0  0  0
   66.7460   77.6109   86.3875 C   0  0  0  0  0  0  0  0  0  0  0  0
   66.7371   78.6103   85.4108 C   0  0  0  0  0  0  0  0  0  0  0  0
   67.4081   79.8162   85.6368 C   0  0  0  0  0  0  0  0  0  0  0  0
   68.0535   76.0846   92.9674 C   0  0  0  0  0  0  0  0  0  0  0  0
   66.9313   75.3736   92.4414 O   0  0  0  0  0  0  0  0  0  0  0  0
   63.8063   75.5948   90.4476 C   0  0  0  0  0  0  0  0  0  0  0  0
   64.8334   75.1203   91.2895 C   0  0  0  0  0  0  0  0  0  0  0  0
   65.9449   75.9133   91.5980 C   0  0  0  0  0  0  0  0  0  0  0  0
   66.0379   77.2032   91.0492 C   0  0  0  0  0  0  0  0  0  0  0  0
   65.0323   77.6867   90.2121 C   0  0  0  0  0  0  0  0  0  0  0  0
   63.9175   76.8961   89.9061 C   0  0  0  0  0  0  0  0  0  0  0  0
   62.9288   77.4072   89.0639 O   0  0  0  0  0  0  0  0  0  0  0  0
   63.0142   78.2712   88.7114 H   0  0  0  0  0  0  0  0  0  0  0  0
   61.7730   74.4933   91.0339 O   0  0  0  0  0  0  0  0  0  0  0  0
   62.6408   74.7211   90.1475 C   0  0  0  0  0  0  0  0  0  0  0  0
   62.4851   74.1434   88.8902 O   0  0  0  0  0  0  0  0  0  0  0  0
   63.1203   74.3019   88.2199 H   0  0  0  0  0  0  0  0  0  0  0  0
 31 32  2  0  0  0
 32 33  1  0  0  0
 32 23  1  0  0  0
 23 24  2  0  0  0
 24 25  1  0  0  0
 25 22  1  0  0  0
 22 21  1  0  0  0
 21  1  1  0  0  0
  1  2  2  0  0  0
  2  3  1  0  0  0
  3  4  2  0  0  0
  4  5  1  0  0  0
  5  7  1  0  0  0
  7  8  2  0  0  0
  8  9  1  0  0  0
  9 10  2  0  0  0
 10 11  1  0  0  0
 11 13  1  0  0  0
 13 14  1  0  0  0
 14 15  1  0  0  0
 15 16  2  0  0  0
 16 17  1  0  0  0
 17 18  2  0  0  0
 18 19  1  0  0  0
 19 20  2  0  0  0
 11 12  2  0  0  0
  5  6  2  0  0  0
 25 26  2  0  0  0
 26 27  1  0  0  0
 27 28  2  0  0  0
 28 29  1  0  0  0
 28 23  1  0  0  0
  6  1  1  0  0  0
 12  7  2  0  0  0
 20 15  1  0  0  0
 33 34  1  0  0  0
 29 30  1  0  0  0
M  END
> <Activity>
16.3

> <minimizedAffinity>
-9.34123

$$$$
HIPS7004


 34 37  0  0  0  0  0  0  0  0999 V2000
   68.9821   76.2075   91.9851 C   0  0  0  0  0  0  0  0  0  0  0  0
   69.7486   75.0335   92.0179 C   0  0  0  0  0  0  0  0  0  0  0  0
   70.9330   74.9460   91.2842 C   0  0  0  0  0  0  0  0  0  0  0  0
   71.3693   76.0308   90.5230 C   0  0  0  0  0  0  0  0  0  0  0  0
   70.6311   77.2270   90.4994 C   0  0  0  0  0  0  0  0  0  0  0  0
   69.4289   77.3025   91.2281 C   0  0  0  0  0  0  0  0  0  0  0  0
   71.1167   78.3780   89.7011 C   0  0  0  0  0  0  0  0  0  0  0  0
   72.4617   78.4825   89.3082 C   0  0  0  0  0  0  0  0  0  0  0  0
   72.8678   79.5696   88.5358 C   0  0  0  0  0  0  0  0  0  0  0  0
   71.9437   80.5452   88.1612 C   0  0  0  0  0  0  0  0  0  0  0  0
   70.6076   80.4273   88.5803 C   0  0  0  0  0  0  0  0  0  0  0  0
   70.2380   79.3487   89.3229 N   0  0  0  0  0  0  0  0  0  0  0  0
   69.6310   81.3849   88.2647 O   0  0  0  0  0  0  0  0  0  0  0  0
   68.8627   81.4153   87.0613 C   0  0  0  0  0  0  0  0  0  0  0  0
   68.1396   80.1105   86.8471 C   0  0  0  0  0  0  0  0  0  0  0  0
   67.4885   79.8543   85.6281 C   0  0  0  0  0  0  0  0  0  0  0  0
   66.8092   78.6475   85.4324 C   0  0  0  0  0  0  0  0  0  0  0  0
   66.7665   77.6951   86.4539 C   0  0  0  0  0  0  0  0  0  0  0  0
   67.4007   77.9465   87.6736 C   0  0  0  0  0  0  0  0  0  0  0  0
   68.0816   79.1514   87.8733 C   0  0  0  0  0  0  0  0  0  0  0  0
   67.6811   76.3014   92.7363 C   0  0  0  0  0  0  0  0  0  0  0  0
   66.6825   76.9252   91.9271 O   0  0  0  0  0  0  0  0  0  0  0  0
   64.4649   74.1677   90.8008 C   0  0  0  0  0  0  0  0  0  0  0  0
   65.4494   74.9049   91.4909 C   0  0  0  0  0  0  0  0  0  0  0  0
   65.6831   76.2543   91.2012 C   0  0  0  0  0  0  0  0  0  0  0  0
   64.9249   76.8793   90.1971 C   0  0  0  0  0  0  0  0  0  0  0  0
   63.9495   76.1637   89.5029 C   0  0  0  0  0  0  0  0  0  0  0  0
   63.7114   74.8148   89.7946 C   0  0  0  0  0  0  0  0  0  0  0  0
   62.7298   74.1251   89.0812 O   0  0  0  0  0  0  0  0  0  0  0  0
   62.2372   74.5653   88.4167 H   0  0  0  0  0  0  0  0  0  0  0  0
   63.2305   72.3895   91.8036 O   0  0  0  0  0  0  0  0  0  0  0  0
   64.2463   72.7367   91.1415 C   0  0  0  0  0  0  0  0  0  0  0  0
   65.1514   71.7589   90.7372 O   0  0  0  0  0  0  0  0  0  0  0  0
   65.9115   71.9990   90.2446 H   0  0  0  0  0  0  0  0  0  0  0  0
 31 32  2  0  0  0
 32 33  1  0  0  0
 32 23  1  0  0  0
 23 24  2  0  0  0
 24 25  1  0  0  0
 25 22  1  0  0  0
 22 21  1  0  0  0
 21  1  1  0  0  0
  1  2  2  0  0  0
  2  3  1  0  0  0
  3  4  2  0  0  0
  4  5  1  0  0  0
  5  7  1  0  0  0
  7  8  2  0  0  0
  8  9  1  0  0  0
  9 10  2  0  0  0
 10 11  1  0  0  0
 11 13  1  0  0  0
 13 14  1  0  0  0
 14 15  1  0  0  0
 15 16  2  0  0  0
 16 17  1  0  0  0
 17 18  2  0  0  0
 18 19  1  0  0  0
 19 20  2  0  0  0
 11 12  2  0  0  0
  5  6  2  0  0  0
 25 26  2  0  0  0
 26 27  1  0  0  0
 27 28  2  0  0  0
 28 29  1  0  0  0
 28 23  1  0  0  0
  6  1  1  0  0  0
 12  7  2  0  0  0
 20 15  1  0  0  0
 33 34  1  0  0  0
 29 30  1  0  0  0
M  END
> <Activity>
16.3

> <minimizedAffinity>
-9.25932

$$$$
HIPS7004


 34 37  0  0  0  0  0  0  0  0999 V2000
   69.2077   75.7291   91.9123 C   0  0  0  0  0  0  0  0  0  0  0  0
   70.0810   74.6349   91.8282 C   0  0  0  0  0  0  0  0  0  0  0  0
   71.2164   74.7018   91.0188 C   0  0  0  0  0  0  0  0  0  0  0  0
   71.4973   75.8625   90.2976 C   0  0  0  0  0  0  0  0  0  0  0  0
   70.6508   76.9809   90.3903 C   0  0  0  0  0  0  0  0  0  0  0  0
   69.4984   76.9008   91.1950 C   0  0  0  0  0  0  0  0  0  0  0  0
   70.9720   78.2142   89.6329 C   0  0  0  0  0  0  0  0  0  0  0  0
   72.3011   78.6054   89.3982 C   0  0  0  0  0  0  0  0  0  0  0  0
   72.5557   79.7591   88.6584 C   0  0  0  0  0  0  0  0  0  0  0  0
   71.4966   80.5181   88.1601 C   0  0  0  0  0  0  0  0  0  0  0  0
   70.1760   80.1156   88.4220 C   0  0  0  0  0  0  0  0  0  0  0  0
   69.9584   78.9781   89.1364 N   0  0  0  0  0  0  0  0  0  0  0  0
   69.0628   80.8455   87.9765 O   0  0  0  0  0  0  0  0  0  0  0  0
   68.0894   80.3785   87.0417 C   0  0  0  0  0  0  0  0  0  0  0  0
   67.5923   79.0062   87.4173 C   0  0  0  0  0  0  0  0  0  0  0  0
   67.6917   77.9431   86.5034 C   0  0  0  0  0  0  0  0  0  0  0  0
   67.2218   76.6717   86.8479 C   0  0  0  0  0  0  0  0  0  0  0  0
   66.6411   76.4561   88.1005 C   0  0  0  0  0  0  0  0  0  0  0  0
   66.5270   77.5102   89.0108 C   0  0  0  0  0  0  0  0  0  0  0  0
   66.9962   78.7829   88.6708 C   0  0  0  0  0  0  0  0  0  0  0  0
   67.9570   75.6565   92.7466 C   0  0  0  0  0  0  0  0  0  0  0  0
   67.2339   74.4587   92.4573 O   0  0  0  0  0  0  0  0  0  0  0  0
   64.0563   75.6058   90.9155 C   0  0  0  0  0  0  0  0  0  0  0  0
   65.3164   75.5945   91.5488 C   0  0  0  0  0  0  0  0  0  0  0  0
   65.9823   74.3937   91.8209 C   0  0  0  0  0  0  0  0  0  0  0  0
   65.3757   73.1788   91.4611 C   0  0  0  0  0  0  0  0  0  0  0  0
   64.1282   73.1721   90.8369 C   0  0  0  0  0  0  0  0  0  0  0  0
   63.4627   74.3729   90.5601 C   0  0  0  0  0  0  0  0  0  0  0  0
   62.2148   74.3335   89.9362 O   0  0  0  0  0  0  0  0  0  0  0  0
   61.8321   73.5099   89.7056 H   0  0  0  0  0  0  0  0  0  0  0  0
   63.1778   77.7222   91.5791 O   0  0  0  0  0  0  0  0  0  0  0  0
   63.3841   76.9039   90.6419 C   0  0  0  0  0  0  0  0  0  0  0  0
   62.9741   77.2394   89.3542 O   0  0  0  0  0  0  0  0  0  0  0  0
   63.1194   76.6433   88.6460 H   0  0  0  0  0  0  0  0  0  0  0  0
 31 32  2  0  0  0
 32 33  1  0  0  0
 32 23  1  0  0  0
 23 24  2  0  0  0
 24 25  1  0  0  0
 25 22  1  0  0  0
 22 21  1  0  0  0
 21  1  1  0  0  0
  1  2  2  0  0  0
  2  3  1  0  0  0
  3  4  2  0  0  0
  4  5  1  0  0  0
  5  7  1  0  0  0
  7  8  2  0  0  0
  8  9  1  0  0  0
  9 10  2  0  0  0
 10 11  1  0  0  0
 11 13  1  0  0  0
 13 14  1  0  0  0
 14 15  1  0  0  0
 15 16  2  0  0  0
 16 17  1  0  0  0
 17 18  2  0  0  0
 18 19  1  0  0  0
 19 20  2  0  0  0
 11 12  2  0  0  0
  5  6  2  0  0  0
 25 26  2  0  0  0
 26 27  1  0  0  0
 27 28  2  0  0  0
 28 29  1  0  0  0
 28 23  1  0  0  0
  6  1  1  0  0  0
 12  7  2  0  0  0
 20 15  1  0  0  0
 33 34  1  0  0  0
 29 30  1  0  0  0
M  END
> <Activity>
16.3

> <minimizedAffinity>
-9.24141

$$$$
HIPS7790


 38 41  0  0  0  0  0  0  0  0999 V2000
   68.3021   79.6648   95.0336 C   0  0  0  0  0  0  0  0  0  0  0  0
   67.9402   79.1259   96.2302 N   0  0  0  0  0  0  0  0  0  0  0  0
   67.5737   79.9097   97.2765 C   0  0  0  0  0  0  0  0  0  0  0  0
   67.5557   81.3015   97.1360 C   0  0  0  0  0  0  0  0  0  0  0  0
   67.9453   81.8404   95.9055 C   0  0  0  0  0  0  0  0  0  0  0  0
   68.3036   81.0183   94.8865 N   0  0  0  0  0  0  0  0  0  0  0  0
   68.7155   78.2857   91.5121 C   0  0  0  0  0  0  0  0  0  0  0  0
   69.4692   77.1328   91.7660 C   0  0  0  0  0  0  0  0  0  0  0  0
   69.8519   76.8133   93.0692 C   0  0  0  0  0  0  0  0  0  0  0  0
   69.4772   77.6364   94.1332 C   0  0  0  0  0  0  0  0  0  0  0  0
   68.7010   78.7875   93.9052 C   0  0  0  0  0  0  0  0  0  0  0  0
   68.3116   79.0945   92.5873 C   0  0  0  0  0  0  0  0  0  0  0  0
   68.3340   78.5939   90.1646 N   0  0  0  0  0  0  0  0  0  0  0  0
   68.9926   79.0305   89.5773 H   0  0  0  0  0  0  0  0  0  0  0  0
   66.7620   78.2311   89.5230 S   0  0  0  0  0  0  0  0  0  0  0  0
   65.7784   79.2091   90.1016 O   0  0  0  0  0  0  0  0  0  0  0  0
   66.7339   78.3838   88.0292 O   0  0  0  0  0  0  0  0  0  0  0  0
   64.3006   73.6198   91.5914 C   0  0  0  0  0  0  0  0  0  0  0  0
   65.1572   74.6164   90.8884 C   0  0  0  0  0  0  0  0  0  0  0  0
   66.3403   74.3083   90.3145 N   0  0  0  0  0  0  0  0  0  0  0  0
   66.9616   75.4029   89.7964 C   0  0  0  0  0  0  0  0  0  0  0  0
   68.3099   75.2828   89.1607 C   0  0  0  0  0  0  0  0  0  0  0  0
   66.2732   76.6058   89.9946 C   0  0  0  0  0  0  0  0  0  0  0  0
   64.8508   76.2669   90.8261 S   0  0  0  0  0  0  0  0  0  0  0  0
   67.1643   82.1965   98.2812 C   0  0  0  0  0  0  0  0  0  0  0  0
   67.2574   83.5718   97.9075 O   0  0  0  0  0  0  0  0  0  0  0  0
   66.2672   84.2983   97.2255 C   0  0  0  0  0  0  0  0  0  0  0  0
   66.6719   85.3668   96.4227 C   0  0  0  0  0  0  0  0  0  0  0  0
   65.7333   86.1182   95.7168 C   0  0  0  0  0  0  0  0  0  0  0  0
   64.3683   85.8134   95.8019 C   0  0  0  0  0  0  0  0  0  0  0  0
   63.4517   86.5776   95.0798 O   0  0  0  0  0  0  0  0  0  0  0  0
   63.9358   84.7392   96.6133 C   0  0  0  0  0  0  0  0  0  0  0  0
   64.8965   83.9920   97.3222 C   0  0  0  0  0  0  0  0  0  0  0  0
   63.7509   87.2869   94.5456 H   0  0  0  0  0  0  0  0  0  0  0  0
   62.4997   84.3781   96.7374 C   0  0  0  0  0  0  0  0  0  0  0  0
   61.6180   84.9904   96.0766 O   0  0  0  0  0  0  0  0  0  0  0  0
   62.1090   83.3499   97.5919 O   0  0  0  0  0  0  0  0  0  0  0  0
   62.7521   82.8849   98.0900 H   0  0  0  0  0  0  0  0  0  0  0  0
 18 19  1  0  0  0
 19 20  2  0  0  0
 20 21  2  0  0  0
 21 22  1  0  0  0
 21 23  2  0  0  0
 23 15  1  0  0  0
 15 16  2  0  0  0
 15 17  2  0  0  0
 15 13  1  0  0  0
 13  7  1  0  0  0
  7  8  2  0  0  0
  8  9  1  0  0  0
  9 10  2  0  0  0
 10 11  1  0  0  0
 11  1  1  0  0  0
  1  2  2  0  0  0
  2  3  2  0  0  0
  3  4  2  0  0  0
  4 25  1  0  0  0
 25 26  1  0  0  0
 26 27  1  0  0  0
 27 28  2  0  0  0
 28 29  1  0  0  0
 29 30  2  0  0  0
 30 31  1  0  0  0
 30 32  1  0  0  0
 32 35  1  0  0  0
 35 36  2  0  0  0
 35 37  1  0  0  0
 32 33  2  0  0  0
  4  5  1  0  0  0
  5  6  2  0  0  0
 11 12  2  0  0  0
 23 24  1  0  0  0
 24 19  1  0  0  0
 12  7  1  0  0  0
  6  1  2  0  0  0
 33 27  1  0  0  0
 13 14  1  0  0  0
 31 34  1  0  0  0
 37 38  1  0  0  0
M  END
> <Activity>
16.6

> <minimizedAffinity>
-10.37226

$$$$
HIPS7790


 38 41  0  0  0  0  0  0  0  0999 V2000
   68.4963   78.7247   92.2594 C   0  0  0  0  0  0  0  0  0  0  0  0
   68.9210   78.0297   93.3502 N   0  0  0  0  0  0  0  0  0  0  0  0
   68.9477   78.5971   94.5835 C   0  0  0  0  0  0  0  0  0  0  0  0
   68.5267   79.9203   94.7545 C   0  0  0  0  0  0  0  0  0  0  0  0
   68.1082   80.6258   93.6216 C   0  0  0  0  0  0  0  0  0  0  0  0
   68.0975   80.0179   92.4080 N   0  0  0  0  0  0  0  0  0  0  0  0
   67.4570   76.5401   89.3232 C   0  0  0  0  0  0  0  0  0  0  0  0
   68.4361   76.8796   88.3809 C   0  0  0  0  0  0  0  0  0  0  0  0
   69.4179   77.8209   88.6922 C   0  0  0  0  0  0  0  0  0  0  0  0
   69.4380   78.4253   89.9508 C   0  0  0  0  0  0  0  0  0  0  0  0
   68.4784   78.0835   90.9213 C   0  0  0  0  0  0  0  0  0  0  0  0
   67.4986   77.1245   90.5999 C   0  0  0  0  0  0  0  0  0  0  0  0
   66.4577   75.5703   88.9808 N   0  0  0  0  0  0  0  0  0  0  0  0
   66.7477   74.7114   88.5968 H   0  0  0  0  0  0  0  0  0  0  0  0
   64.7591   75.8439   89.2135 S   0  0  0  0  0  0  0  0  0  0  0  0
   64.5628   77.2771   89.6209 O   0  0  0  0  0  0  0  0  0  0  0  0
   63.9913   75.6205   87.9422 O   0  0  0  0  0  0  0  0  0  0  0  0
   61.7716   73.1355   93.1303 C   0  0  0  0  0  0  0  0  0  0  0  0
   62.8075   73.6314   92.1803 C   0  0  0  0  0  0  0  0  0  0  0  0
   64.1136   73.2977   92.2621 N   0  0  0  0  0  0  0  0  0  0  0  0
   64.8665   73.9318   91.3220 C   0  0  0  0  0  0  0  0  0  0  0  0
   66.3485   73.7366   91.2758 C   0  0  0  0  0  0  0  0  0  0  0  0
   64.1479   74.8106   90.5026 C   0  0  0  0  0  0  0  0  0  0  0  0
   62.5335   74.7669   90.9730 S   0  0  0  0  0  0  0  0  0  0  0  0
   68.5550   80.5796   96.1073 C   0  0  0  0  0  0  0  0  0  0  0  0
   68.2895   81.9786   95.9978 O   0  0  0  0  0  0  0  0  0  0  0  0
   67.1700   82.6385   96.5314 C   0  0  0  0  0  0  0  0  0  0  0  0
   66.6515   82.1779   97.7433 C   0  0  0  0  0  0  0  0  0  0  0  0
   65.5464   82.7993   98.3234 C   0  0  0  0  0  0  0  0  0  0  0  0
   64.9379   83.8963   97.6992 C   0  0  0  0  0  0  0  0  0  0  0  0
   63.8376   84.5029   98.3050 O   0  0  0  0  0  0  0  0  0  0  0  0
   65.4431   84.3758   96.4686 C   0  0  0  0  0  0  0  0  0  0  0  0
   66.5581   83.7349   95.8946 C   0  0  0  0  0  0  0  0  0  0  0  0
   63.5123   84.1757   99.1206 H   0  0  0  0  0  0  0  0  0  0  0  0
   64.8314   85.5344   95.7672 C   0  0  0  0  0  0  0  0  0  0  0  0
   65.5250   86.5360   95.4440 O   0  0  0  0  0  0  0  0  0  0  0  0
   63.4739   85.5257   95.4562 O   0  0  0  0  0  0  0  0  0  0  0  0
   62.9444   84.7887   95.6896 H   0  0  0  0  0  0  0  0  0  0  0  0
 18 19  1  0  0  0
 19 20  2  0  0  0
 20 21  2  0  0  0
 21 22  1  0  0  0
 21 23  2  0  0  0
 23 15  1  0  0  0
 15 16  2  0  0  0
 15 17  2  0  0  0
 15 13  1  0  0  0
 13  7  1  0  0  0
  7  8  2  0  0  0
  8  9  1  0  0  0
  9 10  2  0  0  0
 10 11  1  0  0  0
 11  1  1  0  0  0
  1  2  2  0  0  0
  2  3  2  0  0  0
  3  4  2  0  0  0
  4 25  1  0  0  0
 25 26  1  0  0  0
 26 27  1  0  0  0
 27 28  2  0  0  0
 28 29  1  0  0  0
 29 30  2  0  0  0
 30 31  1  0  0  0
 30 32  1  0  0  0
 32 35  1  0  0  0
 35 36  2  0  0  0
 35 37  1  0  0  0
 32 33  2  0  0  0
  4  5  1  0  0  0
  5  6  2  0  0  0
 11 12  2  0  0  0
 23 24  1  0  0  0
 24 19  1  0  0  0
 12  7  1  0  0  0
  6  1  2  0  0  0
 33 27  1  0  0  0
 13 14  1  0  0  0
 31 34  1  0  0  0
 37 38  1  0  0  0
M  END
> <Activity>
16.6

> <minimizedAffinity>
-10.31009

$$$$
HIPS7790


 38 41  0  0  0  0  0  0  0  0999 V2000
   68.1131   77.1461   93.2334 C   0  0  0  0  0  0  0  0  0  0  0  0
   69.2497   77.3045   93.9656 N   0  0  0  0  0  0  0  0  0  0  0  0
   69.5758   78.5028   94.5144 C   0  0  0  0  0  0  0  0  0  0  0  0
   68.7331   79.6057   94.3388 C   0  0  0  0  0  0  0  0  0  0  0  0
   67.5772   79.4308   93.5709 C   0  0  0  0  0  0  0  0  0  0  0  0
   67.2907   78.2141   93.0416 N   0  0  0  0  0  0  0  0  0  0  0  0
   66.3119   74.4254   91.2772 C   0  0  0  0  0  0  0  0  0  0  0  0
   67.1547   73.3308   91.5084 C   0  0  0  0  0  0  0  0  0  0  0  0
   68.3063   73.4788   92.2822 C   0  0  0  0  0  0  0  0  0  0  0  0
   68.6226   74.7186   92.8413 C   0  0  0  0  0  0  0  0  0  0  0  0
   67.7792   75.8269   92.6415 C   0  0  0  0  0  0  0  0  0  0  0  0
   66.6142   75.6636   91.8676 C   0  0  0  0  0  0  0  0  0  0  0  0
   65.1340   74.2495   90.4784 N   0  0  0  0  0  0  0  0  0  0  0  0
   64.7796   73.3391   90.3568 H   0  0  0  0  0  0  0  0  0  0  0  0
   64.3053   75.5712   89.7163 S   0  0  0  0  0  0  0  0  0  0  0  0
   63.6697   75.0644   88.4523 O   0  0  0  0  0  0  0  0  0  0  0  0
   63.2118   76.1086   90.5945 O   0  0  0  0  0  0  0  0  0  0  0  0
   68.4240   78.7841   87.6392 C   0  0  0  0  0  0  0  0  0  0  0  0
   67.2377   78.2217   88.3446 C   0  0  0  0  0  0  0  0  0  0  0  0
   66.5998   78.8568   89.3515 N   0  0  0  0  0  0  0  0  0  0  0  0
   65.5902   78.1084   89.8742 C   0  0  0  0  0  0  0  0  0  0  0  0
   64.7917   78.6121   91.0340 C   0  0  0  0  0  0  0  0  0  0  0  0
   65.4486   76.8426   89.2929 C   0  0  0  0  0  0  0  0  0  0  0  0
   66.6138   76.6829   88.0903 S   0  0  0  0  0  0  0  0  0  0  0  0
   69.0735   80.9491   94.9261 C   0  0  0  0  0  0  0  0  0  0  0  0
   68.5595   81.0698   96.2531 O   0  0  0  0  0  0  0  0  0  0  0  0
   67.5496   81.9590   96.6568 C   0  0  0  0  0  0  0  0  0  0  0  0
   66.9052   81.7140   97.8711 C   0  0  0  0  0  0  0  0  0  0  0  0
   65.9006   82.5675   98.3252 C   0  0  0  0  0  0  0  0  0  0  0  0
   65.5211   83.6851   97.5700 C   0  0  0  0  0  0  0  0  0  0  0  0
   64.5177   84.5259   98.0514 O   0  0  0  0  0  0  0  0  0  0  0  0
   66.1566   83.9491   96.3348 C   0  0  0  0  0  0  0  0  0  0  0  0
   67.1673   83.0754   95.8889 C   0  0  0  0  0  0  0  0  0  0  0  0
   64.1042   84.3401   98.8715 H   0  0  0  0  0  0  0  0  0  0  0  0
   65.7884   85.1201   95.4972 C   0  0  0  0  0  0  0  0  0  0  0  0
   66.6053   86.0601   95.3025 O   0  0  0  0  0  0  0  0  0  0  0  0
   64.5262   85.1918   94.9127 O   0  0  0  0  0  0  0  0  0  0  0  0
   63.9075   84.5013   95.0476 H   0  0  0  0  0  0  0  0  0  0  0  0
 18 19  1  0  0  0
 19 20  2  0  0  0
 20 21  2  0  0  0
 21 22  1  0  0  0
 21 23  2  0  0  0
 23 15  1  0  0  0
 15 16  2  0  0  0
 15 17  2  0  0  0
 15 13  1  0  0  0
 13  7  1  0  0  0
  7  8  2  0  0  0
  8  9  1  0  0  0
  9 10  2  0  0  0
 10 11  1  0  0  0
 11  1  1  0  0  0
  1  2  2  0  0  0
  2  3  2  0  0  0
  3  4  2  0  0  0
  4 25  1  0  0  0
 25 26  1  0  0  0
 26 27  1  0  0  0
 27 28  2  0  0  0
 28 29  1  0  0  0
 29 30  2  0  0  0
 30 31  1  0  0  0
 30 32  1  0  0  0
 32 35  1  0  0  0
 35 36  2  0  0  0
 35 37  1  0  0  0
 32 33  2  0  0  0
  4  5  1  0  0  0
  5  6  2  0  0  0
 11 12  2  0  0  0
 23 24  1  0  0  0
 24 19  1  0  0  0
 12  7  1  0  0  0
  6  1  2  0  0  0
 33 27  1  0  0  0
 13 14  1  0  0  0
 31 34  1  0  0  0
 37 38  1  0  0  0
M  END
> <Activity>
16.6

> <minimizedAffinity>
-9.84844

$$$$
HIPS7790


 38 41  0  0  0  0  0  0  0  0999 V2000
   68.0392   79.7810   94.0423 C   0  0  0  0  0  0  0  0  0  0  0  0
   68.1577   79.2604   95.2946 N   0  0  0  0  0  0  0  0  0  0  0  0
   68.1867   80.0591   96.3922 C   0  0  0  0  0  0  0  0  0  0  0  0
   68.0869   81.4474   96.2507 C   0  0  0  0  0  0  0  0  0  0  0  0
   67.9816   81.9676   94.9566 C   0  0  0  0  0  0  0  0  0  0  0  0
   67.9559   81.1311   93.8879 N   0  0  0  0  0  0  0  0  0  0  0  0
   66.8663   78.0292   90.8754 C   0  0  0  0  0  0  0  0  0  0  0  0
   67.9667   77.2058   90.6052 C   0  0  0  0  0  0  0  0  0  0  0  0
   69.0864   77.2296   91.4374 C   0  0  0  0  0  0  0  0  0  0  0  0
   69.1146   78.0684   92.5534 C   0  0  0  0  0  0  0  0  0  0  0  0
   68.0120   78.8877   92.8576 C   0  0  0  0  0  0  0  0  0  0  0  0
   66.8831   78.8477   92.0168 C   0  0  0  0  0  0  0  0  0  0  0  0
   65.7267   77.9879   90.0059 N   0  0  0  0  0  0  0  0  0  0  0  0
   65.7979   78.4047   89.1168 H   0  0  0  0  0  0  0  0  0  0  0  0
   64.2271   77.2352   90.4517 S   0  0  0  0  0  0  0  0  0  0  0  0
   63.7203   77.8962   91.7027 O   0  0  0  0  0  0  0  0  0  0  0  0
   63.1865   77.4178   89.3842 O   0  0  0  0  0  0  0  0  0  0  0  0
   66.1789   72.0173   91.2033 C   0  0  0  0  0  0  0  0  0  0  0  0
   65.3741   73.2698   91.1342 C   0  0  0  0  0  0  0  0  0  0  0  0
   64.0309   73.3004   91.2717 N   0  0  0  0  0  0  0  0  0  0  0  0
   63.5247   74.5525   91.1021 C   0  0  0  0  0  0  0  0  0  0  0  0
   62.0497   74.7916   91.1646 C   0  0  0  0  0  0  0  0  0  0  0  0
   64.4819   75.5254   90.7903 C   0  0  0  0  0  0  0  0  0  0  0  0
   65.9907   74.7832   90.7450 S   0  0  0  0  0  0  0  0  0  0  0  0
   68.1269   82.3587   97.4479 C   0  0  0  0  0  0  0  0  0  0  0  0
   66.8067   82.6783   97.8890 O   0  0  0  0  0  0  0  0  0  0  0  0
   65.9448   83.6018   97.2744 C   0  0  0  0  0  0  0  0  0  0  0  0
   66.5116   84.7139   96.6484 C   0  0  0  0  0  0  0  0  0  0  0  0
   65.7050   85.6590   96.0159 C   0  0  0  0  0  0  0  0  0  0  0  0
   64.3120   85.5082   95.9984 C   0  0  0  0  0  0  0  0  0  0  0  0
   63.5296   86.4655   95.3526 O   0  0  0  0  0  0  0  0  0  0  0  0
   63.7165   84.3925   96.6309 C   0  0  0  0  0  0  0  0  0  0  0  0
   64.5452   83.4486   97.2679 C   0  0  0  0  0  0  0  0  0  0  0  0
   63.9363   87.2003   94.9372 H   0  0  0  0  0  0  0  0  0  0  0  0
   62.2444   84.1894   96.6410 C   0  0  0  0  0  0  0  0  0  0  0  0
   61.4639   85.0839   96.2175 O   0  0  0  0  0  0  0  0  0  0  0  0
   61.7067   82.9980   97.1221 O   0  0  0  0  0  0  0  0  0  0  0  0
   62.2734   82.3231   97.4404 H   0  0  0  0  0  0  0  0  0  0  0  0
 18 19  1  0  0  0
 19 20  2  0  0  0
 20 21  2  0  0  0
 21 22  1  0  0  0
 21 23  2  0  0  0
 23 15  1  0  0  0
 15 16  2  0  0  0
 15 17  2  0  0  0
 15 13  1  0  0  0
 13  7  1  0  0  0
  7  8  2  0  0  0
  8  9  1  0  0  0
  9 10  2  0  0  0
 10 11  1  0  0  0
 11  1  1  0  0  0
  1  2  2  0  0  0
  2  3  2  0  0  0
  3  4  2  0  0  0
  4 25  1  0  0  0
 25 26  1  0  0  0
 26 27  1  0  0  0
 27 28  2  0  0  0
 28 29  1  0  0  0
 29 30  2  0  0  0
 30 31  1  0  0  0
 30 32  1  0  0  0
 32 35  1  0  0  0
 35 36  2  0  0  0
 35 37  1  0  0  0
 32 33  2  0  0  0
  4  5  1  0  0  0
  5  6  2  0  0  0
 11 12  2  0  0  0
 23 24  1  0  0  0
 24 19  1  0  0  0
 12  7  1  0  0  0
  6  1  2  0  0  0
 33 27  1  0  0  0
 13 14  1  0  0  0
 31 34  1  0  0  0
 37 38  1  0  0  0
M  END
> <Activity>
16.6

> <minimizedAffinity>
-9.52812

$$$$
HIPS7790


 38 41  0  0  0  0  0  0  0  0999 V2000
   68.2657   77.7582   93.1496 C   0  0  0  0  0  0  0  0  0  0  0  0
   67.8266   78.9286   92.6106 N   0  0  0  0  0  0  0  0  0  0  0  0
   68.0447   80.1174   93.2292 C   0  0  0  0  0  0  0  0  0  0  0  0
   68.7396   80.1580   94.4428 C   0  0  0  0  0  0  0  0  0  0  0  0
   69.1705   78.9456   94.9913 C   0  0  0  0  0  0  0  0  0  0  0  0
   68.9306   77.7805   94.3374 N   0  0  0  0  0  0  0  0  0  0  0  0
   67.0876   75.2276   90.5647 C   0  0  0  0  0  0  0  0  0  0  0  0
   67.5475   74.0335   91.1343 C   0  0  0  0  0  0  0  0  0  0  0  0
   68.2469   74.0517   92.3415 C   0  0  0  0  0  0  0  0  0  0  0  0
   68.4853   75.2612   92.9972 C   0  0  0  0  0  0  0  0  0  0  0  0
   68.0132   76.4710   92.4557 C   0  0  0  0  0  0  0  0  0  0  0  0
   67.2995   76.4397   91.2423 C   0  0  0  0  0  0  0  0  0  0  0  0
   66.3714   75.1843   89.3231 N   0  0  0  0  0  0  0  0  0  0  0  0
   66.7910   74.7365   88.5532 H   0  0  0  0  0  0  0  0  0  0  0  0
   64.7970   75.8867   89.1175 S   0  0  0  0  0  0  0  0  0  0  0  0
   64.8700   77.3343   89.5147 O   0  0  0  0  0  0  0  0  0  0  0  0
   64.3563   75.8276   87.6830 O   0  0  0  0  0  0  0  0  0  0  0  0
   62.0560   72.9981   93.0854 C   0  0  0  0  0  0  0  0  0  0  0  0
   62.4674   73.8388   91.9256 C   0  0  0  0  0  0  0  0  0  0  0  0
   61.6250   74.2055   90.9357 N   0  0  0  0  0  0  0  0  0  0  0  0
   62.2557   74.9138   89.9593 C   0  0  0  0  0  0  0  0  0  0  0  0
   61.5081   75.3705   88.7472 C   0  0  0  0  0  0  0  0  0  0  0  0
   63.6306   75.0812   90.1634 C   0  0  0  0  0  0  0  0  0  0  0  0
   64.0427   74.3306   91.6112 S   0  0  0  0  0  0  0  0  0  0  0  0
   68.9872   81.4595   95.1571 C   0  0  0  0  0  0  0  0  0  0  0  0
   68.3248   81.4802   96.4222 O   0  0  0  0  0  0  0  0  0  0  0  0
   67.2889   82.3574   96.7840 C   0  0  0  0  0  0  0  0  0  0  0  0
   66.5314   82.0485   97.9156 C   0  0  0  0  0  0  0  0  0  0  0  0
   65.4958   82.8870   98.3259 C   0  0  0  0  0  0  0  0  0  0  0  0
   65.1982   84.0535   97.6088 C   0  0  0  0  0  0  0  0  0  0  0  0
   64.1610   84.8776   98.0455 O   0  0  0  0  0  0  0  0  0  0  0  0
   65.9489   84.3827   96.4567 C   0  0  0  0  0  0  0  0  0  0  0  0
   66.9897   83.5235   96.0540 C   0  0  0  0  0  0  0  0  0  0  0  0
   63.6710   84.6484   98.8106 H   0  0  0  0  0  0  0  0  0  0  0  0
   65.6706   85.6072   95.6621 C   0  0  0  0  0  0  0  0  0  0  0  0
   64.4877   85.9876   95.4507 O   0  0  0  0  0  0  0  0  0  0  0  0
   66.7229   86.3546   95.1385 O   0  0  0  0  0  0  0  0  0  0  0  0
   67.6080   86.0852   95.2866 H   0  0  0  0  0  0  0  0  0  0  0  0
 18 19  1  0  0  0
 19 20  2  0  0  0
 20 21  2  0  0  0
 21 22  1  0  0  0
 21 23  2  0  0  0
 23 15  1  0  0  0
 15 16  2  0  0  0
 15 17  2  0  0  0
 15 13  1  0  0  0
 13  7  1  0  0  0
  7  8  2  0  0  0
  8  9  1  0  0  0
  9 10  2  0  0  0
 10 11  1  0  0  0
 11  1  1  0  0  0
  1  2  2  0  0  0
  2  3  2  0  0  0
  3  4  2  0  0  0
  4 25  1  0  0  0
 25 26  1  0  0  0
 26 27  1  0  0  0
 27 28  2  0  0  0
 28 29  1  0  0  0
 29 30  2  0  0  0
 30 31  1  0  0  0
 30 32  1  0  0  0
 32 35  1  0  0  0
 35 36  2  0  0  0
 35 37  1  0  0  0
 32 33  2  0  0  0
  4  5  1  0  0  0
  5  6  2  0  0  0
 11 12  2  0  0  0
 23 24  1  0  0  0
 24 19  1  0  0  0
 12  7  1  0  0  0
  6  1  2  0  0  0
 33 27  1  0  0  0
 13 14  1  0  0  0
 31 34  1  0  0  0
 37 38  1  0  0  0
M  END
> <Activity>
16.6

> <minimizedAffinity>
-9.42746

$$$$
HIPS7790


 38 41  0  0  0  0  0  0  0  0999 V2000
   68.8801   77.8024   89.6070 C   0  0  0  0  0  0  0  0  0  0  0  0
   68.9671   76.5826   89.0090 N   0  0  0  0  0  0  0  0  0  0  0  0
   68.6533   75.4435   89.6779 C   0  0  0  0  0  0  0  0  0  0  0  0
   68.2234   75.5084   91.0077 C   0  0  0  0  0  0  0  0  0  0  0  0
   68.1544   76.7676   91.6127 C   0  0  0  0  0  0  0  0  0  0  0  0
   68.4773   77.8801   90.9052 N   0  0  0  0  0  0  0  0  0  0  0  0
   70.7382   80.9166   88.4567 C   0  0  0  0  0  0  0  0  0  0  0  0
   69.9022   81.3571   87.4229 C   0  0  0  0  0  0  0  0  0  0  0  0
   68.7514   80.6405   87.0929 C   0  0  0  0  0  0  0  0  0  0  0  0
   68.4183   79.4825   87.7985 C   0  0  0  0  0  0  0  0  0  0  0  0
   69.2307   79.0333   88.8558 C   0  0  0  0  0  0  0  0  0  0  0  0
   70.3840   79.7701   89.1870 C   0  0  0  0  0  0  0  0  0  0  0  0
   71.9158   81.6692   88.7778 N   0  0  0  0  0  0  0  0  0  0  0  0
   71.8174   82.6212   89.0086 H   0  0  0  0  0  0  0  0  0  0  0  0
   73.5075   80.9757   88.7777 S   0  0  0  0  0  0  0  0  0  0  0  0
   73.8068   80.4797   90.1644 O   0  0  0  0  0  0  0  0  0  0  0  0
   73.5912   79.8023   87.8441 O   0  0  0  0  0  0  0  0  0  0  0  0
   76.3600   85.6015   87.3400 C   0  0  0  0  0  0  0  0  0  0  0  0
   75.9158   84.2405   87.7542 C   0  0  0  0  0  0  0  0  0  0  0  0
   76.7307   83.1635   87.7686 N   0  0  0  0  0  0  0  0  0  0  0  0
   76.0726   82.0250   88.1197 C   0  0  0  0  0  0  0  0  0  0  0  0
   76.7865   80.7111   88.1464 C   0  0  0  0  0  0  0  0  0  0  0  0
   74.7032   82.1981   88.3542 C   0  0  0  0  0  0  0  0  0  0  0  0
   74.3317   83.8226   88.1254 S   0  0  0  0  0  0  0  0  0  0  0  0
   67.8789   74.2621   91.7782 C   0  0  0  0  0  0  0  0  0  0  0  0
   66.8743   73.5060   91.1008 O   0  0  0  0  0  0  0  0  0  0  0  0
   65.5211   73.8665   90.9899 C   0  0  0  0  0  0  0  0  0  0  0  0
   64.5638   72.9949   91.5132 C   0  0  0  0  0  0  0  0  0  0  0  0
   63.2065   73.3050   91.4382 C   0  0  0  0  0  0  0  0  0  0  0  0
   62.7811   74.4965   90.8360 C   0  0  0  0  0  0  0  0  0  0  0  0
   61.4174   74.7846   90.7806 O   0  0  0  0  0  0  0  0  0  0  0  0
   63.7330   75.3910   90.2947 C   0  0  0  0  0  0  0  0  0  0  0  0
   65.0999   75.0615   90.3760 C   0  0  0  0  0  0  0  0  0  0  0  0
   60.7965   74.1836   91.1430 H   0  0  0  0  0  0  0  0  0  0  0  0
   63.3315   76.6657   89.6449 C   0  0  0  0  0  0  0  0  0  0  0  0
   63.7970   77.7688   90.0391 O   0  0  0  0  0  0  0  0  0  0  0  0
   62.4293   76.6552   88.5839 O   0  0  0  0  0  0  0  0  0  0  0  0
   62.0741   75.8436   88.2789 H   0  0  0  0  0  0  0  0  0  0  0  0
 18 19  1  0  0  0
 19 20  2  0  0  0
 20 21  2  0  0  0
 21 22  1  0  0  0
 21 23  2  0  0  0
 23 15  1  0  0  0
 15 16  2  0  0  0
 15 17  2  0  0  0
 15 13  1  0  0  0
 13  7  1  0  0  0
  7  8  2  0  0  0
  8  9  1  0  0  0
  9 10  2  0  0  0
 10 11  1  0  0  0
 11  1  1  0  0  0
  1  2  2  0  0  0
  2  3  2  0  0  0
  3  4  2  0  0  0
  4 25  1  0  0  0
 25 26  1  0  0  0
 26 27  1  0  0  0
 27 28  2  0  0  0
 28 29  1  0  0  0
 29 30  2  0  0  0
 30 31  1  0  0  0
 30 32  1  0  0  0
 32 35  1  0  0  0
 35 36  2  0  0  0
 35 37  1  0  0  0
 32 33  2  0  0  0
  4  5  1  0  0  0
  5  6  2  0  0  0
 11 12  2  0  0  0
 23 24  1  0  0  0
 24 19  1  0  0  0
 12  7  1  0  0  0
  6  1  2  0  0  0
 33 27  1  0  0  0
 13 14  1  0  0  0
 31 34  1  0  0  0
 37 38  1  0  0  0
M  END
> <Activity>
16.6

> <minimizedAffinity>
-9.36740

$$$$
HIPS7790


 38 41  0  0  0  0  0  0  0  0999 V2000
   68.2029   79.6441   94.3102 C   0  0  0  0  0  0  0  0  0  0  0  0
   68.2071   79.2286   95.6066 N   0  0  0  0  0  0  0  0  0  0  0  0
   68.1673   80.1160   96.6334 C   0  0  0  0  0  0  0  0  0  0  0  0
   68.1137   81.4891   96.3703 C   0  0  0  0  0  0  0  0  0  0  0  0
   68.1260   81.9005   95.0336 C   0  0  0  0  0  0  0  0  0  0  0  0
   68.1658   80.9777   94.0389 N   0  0  0  0  0  0  0  0  0  0  0  0
   67.7979   78.0527   90.8785 C   0  0  0  0  0  0  0  0  0  0  0  0
   68.3503   76.7860   91.1071 C   0  0  0  0  0  0  0  0  0  0  0  0
   68.8628   76.4564   92.3623 C   0  0  0  0  0  0  0  0  0  0  0  0
   68.8198   77.3845   93.4046 C   0  0  0  0  0  0  0  0  0  0  0  0
   68.2493   78.6550   93.2049 C   0  0  0  0  0  0  0  0  0  0  0  0
   67.7256   78.9732   91.9371 C   0  0  0  0  0  0  0  0  0  0  0  0
   67.2776   78.3690   89.5802 N   0  0  0  0  0  0  0  0  0  0  0  0
   66.3124   78.5405   89.4891 H   0  0  0  0  0  0  0  0  0  0  0  0
   68.2745   78.4630   88.1619 S   0  0  0  0  0  0  0  0  0  0  0  0
   68.5784   77.0641   87.7044 O   0  0  0  0  0  0  0  0  0  0  0  0
   67.5639   79.1665   87.0412 O   0  0  0  0  0  0  0  0  0  0  0  0
   72.6182   81.9721   88.8100 C   0  0  0  0  0  0  0  0  0  0  0  0
   71.6575   80.8329   88.8293 C   0  0  0  0  0  0  0  0  0  0  0  0
   71.9897   79.5852   89.2254 N   0  0  0  0  0  0  0  0  0  0  0  0
   70.9568   78.7094   89.0879 C   0  0  0  0  0  0  0  0  0  0  0  0
   71.1357   77.2633   89.4246 C   0  0  0  0  0  0  0  0  0  0  0  0
   69.7955   79.2672   88.5400 C   0  0  0  0  0  0  0  0  0  0  0  0
   70.0849   80.8971   88.2418 S   0  0  0  0  0  0  0  0  0  0  0  0
   68.0796   82.4969   97.4877 C   0  0  0  0  0  0  0  0  0  0  0  0
   66.7357   82.7691   97.8872 O   0  0  0  0  0  0  0  0  0  0  0  0
   65.8624   83.6647   97.2480 C   0  0  0  0  0  0  0  0  0  0  0  0
   66.4171   84.7502   96.5670 C   0  0  0  0  0  0  0  0  0  0  0  0
   65.5987   85.6668   95.9081 C   0  0  0  0  0  0  0  0  0  0  0  0
   64.2060   85.5135   95.9189 C   0  0  0  0  0  0  0  0  0  0  0  0
   63.4116   86.4418   95.2458 O   0  0  0  0  0  0  0  0  0  0  0  0
   63.6227   84.4247   96.6070 C   0  0  0  0  0  0  0  0  0  0  0  0
   64.4632   83.5095   97.2700 C   0  0  0  0  0  0  0  0  0  0  0  0
   63.8103   87.1590   94.7936 H   0  0  0  0  0  0  0  0  0  0  0  0
   62.1514   84.2201   96.6488 C   0  0  0  0  0  0  0  0  0  0  0  0
   61.3628   85.0916   96.1934 O   0  0  0  0  0  0  0  0  0  0  0  0
   61.6234   83.0531   97.1957 O   0  0  0  0  0  0  0  0  0  0  0  0
   62.1961   82.3955   97.5385 H   0  0  0  0  0  0  0  0  0  0  0  0
 18 19  1  0  0  0
 19 20  2  0  0  0
 20 21  2  0  0  0
 21 22  1  0  0  0
 21 23  2  0  0  0
 23 15  1  0  0  0
 15 16  2  0  0  0
 15 17  2  0  0  0
 15 13  1  0  0  0
 13  7  1  0  0  0
  7  8  2  0  0  0
  8  9  1  0  0  0
  9 10  2  0  0  0
 10 11  1  0  0  0
 11  1  1  0  0  0
  1  2  2  0  0  0
  2  3  2  0  0  0
  3  4  2  0  0  0
  4 25  1  0  0  0
 25 26  1  0  0  0
 26 27  1  0  0  0
 27 28  2  0  0  0
 28 29  1  0  0  0
 29 30  2  0  0  0
 30 31  1  0  0  0
 30 32  1  0  0  0
 32 35  1  0  0  0
 35 36  2  0  0  0
 35 37  1  0  0  0
 32 33  2  0  0  0
  4  5  1  0  0  0
  5  6  2  0  0  0
 11 12  2  0  0  0
 23 24  1  0  0  0
 24 19  1  0  0  0
 12  7  1  0  0  0
  6  1  2  0  0  0
 33 27  1  0  0  0
 13 14  1  0  0  0
 31 34  1  0  0  0
 37 38  1  0  0  0
M  END
> <Activity>
16.6

> <minimizedAffinity>
-9.32031

$$$$
HIPS7790


 38 41  0  0  0  0  0  0  0  0999 V2000
   68.0712   77.4018   89.0039 C   0  0  0  0  0  0  0  0  0  0  0  0
   68.2727   76.1324   88.5553 N   0  0  0  0  0  0  0  0  0  0  0  0
   68.1497   75.0626   89.3823 C   0  0  0  0  0  0  0  0  0  0  0  0
   67.8026   75.2515   90.7244 C   0  0  0  0  0  0  0  0  0  0  0  0
   67.6145   76.5627   91.1736 C   0  0  0  0  0  0  0  0  0  0  0  0
   67.7473   77.6023   90.3110 N   0  0  0  0  0  0  0  0  0  0  0  0
   69.4780   80.4917   87.2872 C   0  0  0  0  0  0  0  0  0  0  0  0
   68.4902   80.7322   86.3237 C   0  0  0  0  0  0  0  0  0  0  0  0
   67.3829   79.8892   86.2234 C   0  0  0  0  0  0  0  0  0  0  0  0
   67.2457   78.8035   87.0908 C   0  0  0  0  0  0  0  0  0  0  0  0
   68.2136   78.5553   88.0813 C   0  0  0  0  0  0  0  0  0  0  0  0
   69.3216   79.4187   88.1802 C   0  0  0  0  0  0  0  0  0  0  0  0
   70.6073   81.3714   87.3713 N   0  0  0  0  0  0  0  0  0  0  0  0
   70.8743   81.8725   86.5670 H   0  0  0  0  0  0  0  0  0  0  0  0
   71.5246   81.5919   88.8288 S   0  0  0  0  0  0  0  0  0  0  0  0
   72.0500   82.9998   88.8479 O   0  0  0  0  0  0  0  0  0  0  0  0
   70.6658   81.4076   90.0470 O   0  0  0  0  0  0  0  0  0  0  0  0
   76.5317   79.0459   88.6089 C   0  0  0  0  0  0  0  0  0  0  0  0
   75.0983   79.4165   88.7799 C   0  0  0  0  0  0  0  0  0  0  0  0
   74.1110   78.5116   88.9548 N   0  0  0  0  0  0  0  0  0  0  0  0
   72.8832   79.0956   89.0191 C   0  0  0  0  0  0  0  0  0  0  0  0
   71.6503   78.2610   89.1598 C   0  0  0  0  0  0  0  0  0  0  0  0
   72.8957   80.4862   88.8574 C   0  0  0  0  0  0  0  0  0  0  0  0
   74.4906   80.9768   88.6449 S   0  0  0  0  0  0  0  0  0  0  0  0
   67.6695   74.0860   91.6675 C   0  0  0  0  0  0  0  0  0  0  0  0
   66.5791   73.2455   91.2876 O   0  0  0  0  0  0  0  0  0  0  0  0
   65.2551   73.6707   91.0884 C   0  0  0  0  0  0  0  0  0  0  0  0
   64.2249   72.8556   91.5617 C   0  0  0  0  0  0  0  0  0  0  0  0
   62.8921   73.2311   91.3987 C   0  0  0  0  0  0  0  0  0  0  0  0
   62.5649   74.4328   90.7567 C   0  0  0  0  0  0  0  0  0  0  0  0
   61.2234   74.7870   90.6130 O   0  0  0  0  0  0  0  0  0  0  0  0
   63.5921   75.2707   90.2646 C   0  0  0  0  0  0  0  0  0  0  0  0
   64.9331   74.8754   90.4348 C   0  0  0  0  0  0  0  0  0  0  0  0
   60.5520   74.2231   90.9434 H   0  0  0  0  0  0  0  0  0  0  0  0
   63.2958   76.5536   89.5755 C   0  0  0  0  0  0  0  0  0  0  0  0
   63.8514   77.6261   89.9357 O   0  0  0  0  0  0  0  0  0  0  0  0
   62.3939   76.5848   88.5146 O   0  0  0  0  0  0  0  0  0  0  0  0
   61.9724   75.7962   88.2346 H   0  0  0  0  0  0  0  0  0  0  0  0
 18 19  1  0  0  0
 19 20  2  0  0  0
 20 21  2  0  0  0
 21 22  1  0  0  0
 21 23  2  0  0  0
 23 15  1  0  0  0
 15 16  2  0  0  0
 15 17  2  0  0  0
 15 13  1  0  0  0
 13  7  1  0  0  0
  7  8  2  0  0  0
  8  9  1  0  0  0
  9 10  2  0  0  0
 10 11  1  0  0  0
 11  1  1  0  0  0
  1  2  2  0  0  0
  2  3  2  0  0  0
  3  4  2  0  0  0
  4 25  1  0  0  0
 25 26  1  0  0  0
 26 27  1  0  0  0
 27 28  2  0  0  0
 28 29  1  0  0  0
 29 30  2  0  0  0
 30 31  1  0  0  0
 30 32  1  0  0  0
 32 35  1  0  0  0
 35 36  2  0  0  0
 35 37  1  0  0  0
 32 33  2  0  0  0
  4  5  1  0  0  0
  5  6  2  0  0  0
 11 12  2  0  0  0
 23 24  1  0  0  0
 24 19  1  0  0  0
 12  7  1  0  0  0
  6  1  2  0  0  0
 33 27  1  0  0  0
 13 14  1  0  0  0
 31 34  1  0  0  0
 37 38  1  0  0  0
M  END
> <Activity>
16.6

> <minimizedAffinity>
-9.28237

$$$$
HIPS7790


 38 41  0  0  0  0  0  0  0  0999 V2000
   68.5249   79.1825   94.7274 C   0  0  0  0  0  0  0  0  0  0  0  0
   68.3003   79.0041   96.0581 N   0  0  0  0  0  0  0  0  0  0  0  0
   68.1143   80.0599   96.8913 C   0  0  0  0  0  0  0  0  0  0  0  0
   68.1444   81.3642   96.3862 C   0  0  0  0  0  0  0  0  0  0  0  0
   68.3919   81.5314   95.0197 C   0  0  0  0  0  0  0  0  0  0  0  0
   68.5715   80.4466   94.2238 N   0  0  0  0  0  0  0  0  0  0  0  0
   67.8251   76.3255   92.3146 C   0  0  0  0  0  0  0  0  0  0  0  0
   69.1138   75.8056   92.1388 C   0  0  0  0  0  0  0  0  0  0  0  0
   70.2033   76.3872   92.7880 C   0  0  0  0  0  0  0  0  0  0  0  0
   70.0157   77.4874   93.6273 C   0  0  0  0  0  0  0  0  0  0  0  0
   68.7275   78.0128   93.8370 C   0  0  0  0  0  0  0  0  0  0  0  0
   67.6339   77.4114   93.1849 C   0  0  0  0  0  0  0  0  0  0  0  0
   66.7206   75.7115   91.6367 N   0  0  0  0  0  0  0  0  0  0  0  0
   65.9667   75.3760   92.1737 H   0  0  0  0  0  0  0  0  0  0  0  0
   66.6542   75.5335   89.9110 S   0  0  0  0  0  0  0  0  0  0  0  0
   67.7555   74.6019   89.4894 O   0  0  0  0  0  0  0  0  0  0  0  0
   65.3508   74.9280   89.4748 O   0  0  0  0  0  0  0  0  0  0  0  0
   68.2809   79.8881   86.7499 C   0  0  0  0  0  0  0  0  0  0  0  0
   67.6254   78.9587   87.7131 C   0  0  0  0  0  0  0  0  0  0  0  0
   66.8124   79.3709   88.7098 N   0  0  0  0  0  0  0  0  0  0  0  0
   66.3937   78.3389   89.4923 C   0  0  0  0  0  0  0  0  0  0  0  0
   65.5251   78.5911   90.6833 C   0  0  0  0  0  0  0  0  0  0  0  0
   66.9129   77.0905   89.1288 C   0  0  0  0  0  0  0  0  0  0  0  0
   67.9043   77.3038   87.7868 S   0  0  0  0  0  0  0  0  0  0  0  0
   67.9523   82.5546   97.2870 C   0  0  0  0  0  0  0  0  0  0  0  0
   66.5752   82.7176   97.6288 O   0  0  0  0  0  0  0  0  0  0  0  0
   65.6949   83.6411   97.0410 C   0  0  0  0  0  0  0  0  0  0  0  0
   66.2431   84.7245   96.3515 C   0  0  0  0  0  0  0  0  0  0  0  0
   65.4173   85.6681   95.7418 C   0  0  0  0  0  0  0  0  0  0  0  0
   64.0233   85.5444   95.8115 C   0  0  0  0  0  0  0  0  0  0  0  0
   63.2210   86.4993   95.1869 O   0  0  0  0  0  0  0  0  0  0  0  0
   63.4467   84.4582   96.5093 C   0  0  0  0  0  0  0  0  0  0  0  0
   64.2949   83.5155   97.1221 C   0  0  0  0  0  0  0  0  0  0  0  0
   63.6153   87.2145   94.7276 H   0  0  0  0  0  0  0  0  0  0  0  0
   61.9744   84.2845   96.6127 C   0  0  0  0  0  0  0  0  0  0  0  0
   61.1922   85.2528   96.4144 O   0  0  0  0  0  0  0  0  0  0  0  0
   61.4384   83.0393   96.9318 O   0  0  0  0  0  0  0  0  0  0  0  0
   62.0063   82.3093   97.0822 H   0  0  0  0  0  0  0  0  0  0  0  0
 18 19  1  0  0  0
 19 20  2  0  0  0
 20 21  2  0  0  0
 21 22  1  0  0  0
 21 23  2  0  0  0
 23 15  1  0  0  0
 15 16  2  0  0  0
 15 17  2  0  0  0
 15 13  1  0  0  0
 13  7  1  0  0  0
  7  8  2  0  0  0
  8  9  1  0  0  0
  9 10  2  0  0  0
 10 11  1  0  0  0
 11  1  1  0  0  0
  1  2  2  0  0  0
  2  3  2  0  0  0
  3  4  2  0  0  0
  4 25  1  0  0  0
 25 26  1  0  0  0
 26 27  1  0  0  0
 27 28  2  0  0  0
 28 29  1  0  0  0
 29 30  2  0  0  0
 30 31  1  0  0  0
 30 32  1  0  0  0
 32 35  1  0  0  0
 35 36  2  0  0  0
 35 37  1  0  0  0
 32 33  2  0  0  0
  4  5  1  0  0  0
  5  6  2  0  0  0
 11 12  2  0  0  0
 23 24  1  0  0  0
 24 19  1  0  0  0
 12  7  1  0  0  0
  6  1  2  0  0  0
 33 27  1  0  0  0
 13 14  1  0  0  0
 31 34  1  0  0  0
 37 38  1  0  0  0
M  END
> <Activity>
16.6

> <minimizedAffinity>
-9.12475

$$$$
HIPS7790


 38 41  0  0  0  0  0  0  0  0999 V2000
   66.9547   77.9037   88.1280 C   0  0  0  0  0  0  0  0  0  0  0  0
   67.5053   76.6613   88.0474 N   0  0  0  0  0  0  0  0  0  0  0  0
   67.0322   75.6288   88.7915 C   0  0  0  0  0  0  0  0  0  0  0  0
   65.9526   75.8279   89.6587 C   0  0  0  0  0  0  0  0  0  0  0  0
   65.4081   77.1136   89.7419 C   0  0  0  0  0  0  0  0  0  0  0  0
   65.9129   78.1161   88.9785 N   0  0  0  0  0  0  0  0  0  0  0  0
   69.0104   80.9136   87.0383 C   0  0  0  0  0  0  0  0  0  0  0  0
   68.5161   81.1173   85.7437 C   0  0  0  0  0  0  0  0  0  0  0  0
   67.5327   80.2750   85.2239 C   0  0  0  0  0  0  0  0  0  0  0  0
   67.0257   79.2271   85.9950 C   0  0  0  0  0  0  0  0  0  0  0  0
   67.4906   79.0170   87.3062 C   0  0  0  0  0  0  0  0  0  0  0  0
   68.4757   79.8796   87.8244 C   0  0  0  0  0  0  0  0  0  0  0  0
   70.0214   81.7918   87.5513 N   0  0  0  0  0  0  0  0  0  0  0  0
   70.2505   82.5981   87.0348 H   0  0  0  0  0  0  0  0  0  0  0  0
   70.8592   81.4961   89.0429 S   0  0  0  0  0  0  0  0  0  0  0  0
   72.1691   82.2316   89.0029 O   0  0  0  0  0  0  0  0  0  0  0  0
   70.0800   82.0133   90.2181 O   0  0  0  0  0  0  0  0  0  0  0  0
   70.8525   75.9899   90.1756 C   0  0  0  0  0  0  0  0  0  0  0  0
   71.1421   77.3749   89.7075 C   0  0  0  0  0  0  0  0  0  0  0  0
   72.3350   77.7558   89.2017 N   0  0  0  0  0  0  0  0  0  0  0  0
   72.3694   79.0847   88.9094 C   0  0  0  0  0  0  0  0  0  0  0  0
   73.6196   79.7163   88.3853 C   0  0  0  0  0  0  0  0  0  0  0  0
   71.1926   79.7757   89.2222 C   0  0  0  0  0  0  0  0  0  0  0  0
   70.0925   78.6771   89.8644 S   0  0  0  0  0  0  0  0  0  0  0  0
   65.4134   74.7053   90.5040 C   0  0  0  0  0  0  0  0  0  0  0  0
   66.3961   74.2523   91.4361 O   0  0  0  0  0  0  0  0  0  0  0  0
   67.3210   75.0708   92.1054 C   0  0  0  0  0  0  0  0  0  0  0  0
   68.4668   74.4723   92.6333 C   0  0  0  0  0  0  0  0  0  0  0  0
   69.4226   75.2370   93.3009 C   0  0  0  0  0  0  0  0  0  0  0  0
   69.2485   76.6190   93.4531 C   0  0  0  0  0  0  0  0  0  0  0  0
   70.2237   77.3608   94.1197 O   0  0  0  0  0  0  0  0  0  0  0  0
   68.0930   77.2449   92.9312 C   0  0  0  0  0  0  0  0  0  0  0  0
   67.1357   76.4576   92.2622 C   0  0  0  0  0  0  0  0  0  0  0  0
   70.9850   76.9342   94.4610 H   0  0  0  0  0  0  0  0  0  0  0  0
   67.8623   78.7065   93.0686 C   0  0  0  0  0  0  0  0  0  0  0  0
   67.3302   79.3689   92.1375 O   0  0  0  0  0  0  0  0  0  0  0  0
   68.2341   79.3658   94.2378 O   0  0  0  0  0  0  0  0  0  0  0  0
   68.6308   78.8877   94.9393 H   0  0  0  0  0  0  0  0  0  0  0  0
 18 19  1  0  0  0
 19 20  2  0  0  0
 20 21  2  0  0  0
 21 22  1  0  0  0
 21 23  2  0  0  0
 23 15  1  0  0  0
 15 16  2  0  0  0
 15 17  2  0  0  0
 15 13  1  0  0  0
 13  7  1  0  0  0
  7  8  2  0  0  0
  8  9  1  0  0  0
  9 10  2  0  0  0
 10 11  1  0  0  0
 11  1  1  0  0  0
  1  2  2  0  0  0
  2  3  2  0  0  0
  3  4  2  0  0  0
  4 25  1  0  0  0
 25 26  1  0  0  0
 26 27  1  0  0  0
 27 28  2  0  0  0
 28 29  1  0  0  0
 29 30  2  0  0  0
 30 31  1  0  0  0
 30 32  1  0  0  0
 32 35  1  0  0  0
 35 36  2  0  0  0
 35 37  1  0  0  0
 32 33  2  0  0  0
  4  5  1  0  0  0
  5  6  2  0  0  0
 11 12  2  0  0  0
 23 24  1  0  0  0
 24 19  1  0  0  0
 12  7  1  0  0  0
  6  1  2  0  0  0
 33 27  1  0  0  0
 13 14  1  0  0  0
 31 34  1  0  0  0
 37 38  1  0  0  0
M  END
> <Activity>
16.6

> <minimizedAffinity>
-8.87975

$$$$
HIPS7792


 37 39  0  0  0  0  0  0  0  0999 V2000
   68.6508   80.0544   94.5104 C   0  0  0  0  0  0  0  0  0  0  0  0
   68.0206   80.3698   93.3040 C   0  0  0  0  0  0  0  0  0  0  0  0
   67.9206   79.4351   92.3232 N   0  0  0  0  0  0  0  0  0  0  0  0
   68.4236   78.1792   92.4862 C   0  0  0  0  0  0  0  0  0  0  0  0
   69.0330   77.8544   93.6624 N   0  0  0  0  0  0  0  0  0  0  0  0
   69.1515   78.7571   94.6721 C   0  0  0  0  0  0  0  0  0  0  0  0
   68.3142   77.1832   91.3900 C   0  0  0  0  0  0  0  0  0  0  0  0
   69.4458   76.8343   90.6306 C   0  0  0  0  0  0  0  0  0  0  0  0
   69.3543   75.8746   89.6227 C   0  0  0  0  0  0  0  0  0  0  0  0
   68.1322   75.2585   89.3479 C   0  0  0  0  0  0  0  0  0  0  0  0
   66.9797   75.6097   90.0742 C   0  0  0  0  0  0  0  0  0  0  0  0
   67.0867   76.5612   91.1051 C   0  0  0  0  0  0  0  0  0  0  0  0
   65.6944   75.0226   89.8003 N   0  0  0  0  0  0  0  0  0  0  0  0
   65.4854   74.7921   88.8663 H   0  0  0  0  0  0  0  0  0  0  0  0
   64.4865   74.6929   91.0044 S   0  0  0  0  0  0  0  0  0  0  0  0
   63.9689   76.0082   91.5228 O   0  0  0  0  0  0  0  0  0  0  0  0
   65.1135   73.9389   92.1463 O   0  0  0  0  0  0  0  0  0  0  0  0
   63.1268   73.7760   90.2744 C   0  0  0  0  0  0  0  0  0  0  0  0
   61.9049   74.6577   89.9534 C   0  0  0  0  0  0  0  0  0  0  0  0
   61.7970   75.0539   88.4759 C   0  0  0  0  0  0  0  0  0  0  0  0
   62.2205   74.0243   87.6580 F   0  0  0  0  0  0  0  0  0  0  0  0
   60.4893   75.3857   88.1610 F   0  0  0  0  0  0  0  0  0  0  0  0
   62.6012   76.1553   88.2443 F   0  0  0  0  0  0  0  0  0  0  0  0
   68.7357   81.0663   95.6138 C   0  0  0  0  0  0  0  0  0  0  0  0
   67.9433   82.1974   95.2745 O   0  0  0  0  0  0  0  0  0  0  0  0
   64.9202   84.0916   96.4037 C   0  0  0  0  0  0  0  0  0  0  0  0
   65.9853   83.6499   95.5978 C   0  0  0  0  0  0  0  0  0  0  0  0
   66.9220   82.7178   96.0813 C   0  0  0  0  0  0  0  0  0  0  0  0
   66.8268   82.2825   97.4091 C   0  0  0  0  0  0  0  0  0  0  0  0
   65.7874   82.7266   98.2253 C   0  0  0  0  0  0  0  0  0  0  0  0
   64.8354   83.6289   97.7381 C   0  0  0  0  0  0  0  0  0  0  0  0
   63.8006   84.0485   98.5721 O   0  0  0  0  0  0  0  0  0  0  0  0
   63.7538   83.7359   99.4542 H   0  0  0  0  0  0  0  0  0  0  0  0
   62.6871   84.9105   96.1411 O   0  0  0  0  0  0  0  0  0  0  0  0
   63.9138   85.0387   95.8561 C   0  0  0  0  0  0  0  0  0  0  0  0
   64.3070   86.1146   95.0645 O   0  0  0  0  0  0  0  0  0  0  0  0
   65.2103   86.2273   94.8423 H   0  0  0  0  0  0  0  0  0  0  0  0
 34 35  2  0  0  0
 35 36  1  0  0  0
 35 26  1  0  0  0
 26 27  2  0  0  0
 27 28  1  0  0  0
 28 25  1  0  0  0
 25 24  1  0  0  0
 24  1  1  0  0  0
  1  2  2  0  0  0
  2  3  2  0  0  0
  3  4  2  0  0  0
  4  7  1  0  0  0
  7  8  2  0  0  0
  8  9  1  0  0  0
  9 10  2  0  0  0
 10 11  1  0  0  0
 11 13  1  0  0  0
 13 15  1  0  0  0
 15 16  2  0  0  0
 15 17  2  0  0  0
 15 18  1  0  0  0
 18 19  1  0  0  0
 19 20  1  0  0  0
 20 21  1  0  0  0
 20 22  1  0  0  0
 20 23  1  0  0  0
 11 12  2  0  0  0
  4  5  2  0  0  0
  5  6  2  0  0  0
 28 29  2  0  0  0
 29 30  1  0  0  0
 30 31  2  0  0  0
 31 32  1  0  0  0
 31 26  1  0  0  0
  6  1  1  0  0  0
 12  7  1  0  0  0
 36 37  1  0  0  0
 13 14  1  0  0  0
 32 33  1  0  0  0
M  END
> <Activity>
18.5

> <minimizedAffinity>
-10.48255

$$$$
HIPS7792


 37 39  0  0  0  0  0  0  0  0999 V2000
   68.5698   79.8998   94.4131 C   0  0  0  0  0  0  0  0  0  0  0  0
   69.0525   78.5916   94.5002 C   0  0  0  0  0  0  0  0  0  0  0  0
   68.8915   77.7355   93.4578 N   0  0  0  0  0  0  0  0  0  0  0  0
   68.2648   78.1233   92.3116 C   0  0  0  0  0  0  0  0  0  0  0  0
   67.7971   79.4004   92.2089 N   0  0  0  0  0  0  0  0  0  0  0  0
   67.9400   80.2915   93.2258 C   0  0  0  0  0  0  0  0  0  0  0  0
   68.0886   77.1604   91.1946 C   0  0  0  0  0  0  0  0  0  0  0  0
   69.1472   76.3191   90.8072 C   0  0  0  0  0  0  0  0  0  0  0  0
   68.9750   75.3901   89.7812 C   0  0  0  0  0  0  0  0  0  0  0  0
   67.7505   75.2950   89.1178 C   0  0  0  0  0  0  0  0  0  0  0  0
   66.6845   76.1438   89.4675 C   0  0  0  0  0  0  0  0  0  0  0  0
   66.8600   77.0612   90.5198 C   0  0  0  0  0  0  0  0  0  0  0  0
   65.4171   76.1006   88.7866 N   0  0  0  0  0  0  0  0  0  0  0  0
   65.4212   75.8991   87.8229 H   0  0  0  0  0  0  0  0  0  0  0  0
   63.8810   76.3795   89.5481 S   0  0  0  0  0  0  0  0  0  0  0  0
   62.7990   76.0973   88.5400 O   0  0  0  0  0  0  0  0  0  0  0  0
   63.7858   77.8227   89.9647 O   0  0  0  0  0  0  0  0  0  0  0  0
   63.6800   75.2731   90.9473 C   0  0  0  0  0  0  0  0  0  0  0  0
   63.7039   73.7846   90.5507 C   0  0  0  0  0  0  0  0  0  0  0  0
   64.5413   72.9063   91.4883 C   0  0  0  0  0  0  0  0  0  0  0  0
   64.7991   71.6776   90.9121 F   0  0  0  0  0  0  0  0  0  0  0  0
   65.7382   73.5334   91.7936 F   0  0  0  0  0  0  0  0  0  0  0  0
   63.8378   72.7001   92.6614 F   0  0  0  0  0  0  0  0  0  0  0  0
   68.7731   80.8645   95.5430 C   0  0  0  0  0  0  0  0  0  0  0  0
   68.0650   82.0663   95.2664 O   0  0  0  0  0  0  0  0  0  0  0  0
   65.0559   83.9702   96.4163 C   0  0  0  0  0  0  0  0  0  0  0  0
   66.1117   83.5223   95.6016 C   0  0  0  0  0  0  0  0  0  0  0  0
   67.0530   82.5929   96.0810 C   0  0  0  0  0  0  0  0  0  0  0  0
   66.9725   82.1667   97.4128 C   0  0  0  0  0  0  0  0  0  0  0  0
   65.9425   82.6171   98.2374 C   0  0  0  0  0  0  0  0  0  0  0  0
   64.9856   83.5167   97.7547 C   0  0  0  0  0  0  0  0  0  0  0  0
   63.9605   83.9427   98.5973 O   0  0  0  0  0  0  0  0  0  0  0  0
   63.9234   83.6361   99.4820 H   0  0  0  0  0  0  0  0  0  0  0  0
   62.8223   84.7968   96.1834 O   0  0  0  0  0  0  0  0  0  0  0  0
   64.0440   84.9142   95.8735 C   0  0  0  0  0  0  0  0  0  0  0  0
   64.4275   85.9761   95.0585 O   0  0  0  0  0  0  0  0  0  0  0  0
   65.3269   86.0807   94.8175 H   0  0  0  0  0  0  0  0  0  0  0  0
 34 35  2  0  0  0
 35 36  1  0  0  0
 35 26  1  0  0  0
 26 27  2  0  0  0
 27 28  1  0  0  0
 28 25  1  0  0  0
 25 24  1  0  0  0
 24  1  1  0  0  0
  1  2  2  0  0  0
  2  3  2  0  0  0
  3  4  2  0  0  0
  4  7  1  0  0  0
  7  8  2  0  0  0
  8  9  1  0  0  0
  9 10  2  0  0  0
 10 11  1  0  0  0
 11 13  1  0  0  0
 13 15  1  0  0  0
 15 16  2  0  0  0
 15 17  2  0  0  0
 15 18  1  0  0  0
 18 19  1  0  0  0
 19 20  1  0  0  0
 20 21  1  0  0  0
 20 22  1  0  0  0
 20 23  1  0  0  0
 11 12  2  0  0  0
  4  5  2  0  0  0
  5  6  2  0  0  0
 28 29  2  0  0  0
 29 30  1  0  0  0
 30 31  2  0  0  0
 31 32  1  0  0  0
 31 26  1  0  0  0
  6  1  1  0  0  0
 12  7  1  0  0  0
 36 37  1  0  0  0
 13 14  1  0  0  0
 32 33  1  0  0  0
M  END
> <Activity>
18.5

> <minimizedAffinity>
-10.35007

$$$$
HIPS7792


 37 39  0  0  0  0  0  0  0  0999 V2000
   68.1783   75.3938   91.1135 C   0  0  0  0  0  0  0  0  0  0  0  0
   68.0818   76.6628   91.6899 C   0  0  0  0  0  0  0  0  0  0  0  0
   68.3838   77.7675   90.9590 N   0  0  0  0  0  0  0  0  0  0  0  0
   68.7823   77.6712   89.6595 C   0  0  0  0  0  0  0  0  0  0  0  0
   68.8717   76.4393   89.0809 N   0  0  0  0  0  0  0  0  0  0  0  0
   68.5752   75.3076   89.7737 C   0  0  0  0  0  0  0  0  0  0  0  0
   69.1220   78.8953   88.8902 C   0  0  0  0  0  0  0  0  0  0  0  0
   68.4202   79.2132   87.7132 C   0  0  0  0  0  0  0  0  0  0  0  0
   68.7134   80.3793   87.0065 C   0  0  0  0  0  0  0  0  0  0  0  0
   69.7184   81.2384   87.4544 C   0  0  0  0  0  0  0  0  0  0  0  0
   70.4537   80.9294   88.6132 C   0  0  0  0  0  0  0  0  0  0  0  0
   70.1346   79.7632   89.3328 C   0  0  0  0  0  0  0  0  0  0  0  0
   71.5195   81.7711   89.0901 N   0  0  0  0  0  0  0  0  0  0  0  0
   71.2736   82.5848   89.5868 H   0  0  0  0  0  0  0  0  0  0  0  0
   73.2096   81.4501   88.8496 S   0  0  0  0  0  0  0  0  0  0  0  0
   73.3509   80.5527   87.6491 O   0  0  0  0  0  0  0  0  0  0  0  0
   73.7571   80.7322   90.0539 O   0  0  0  0  0  0  0  0  0  0  0  0
   74.0875   82.9848   88.5394 C   0  0  0  0  0  0  0  0  0  0  0  0
   75.5135   82.7681   87.9982 C   0  0  0  0  0  0  0  0  0  0  0  0
   75.9775   83.8543   87.0200 C   0  0  0  0  0  0  0  0  0  0  0  0
   76.3297   83.3031   85.8033 F   0  0  0  0  0  0  0  0  0  0  0  0
   74.9744   84.7906   86.8298 F   0  0  0  0  0  0  0  0  0  0  0  0
   77.0851   84.4931   87.5476 F   0  0  0  0  0  0  0  0  0  0  0  0
   67.8132   74.1697   91.8990 C   0  0  0  0  0  0  0  0  0  0  0  0
   66.8194   73.4382   91.1921 O   0  0  0  0  0  0  0  0  0  0  0  0
   63.7330   75.3668   90.3221 C   0  0  0  0  0  0  0  0  0  0  0  0
   65.0911   75.0406   90.4896 C   0  0  0  0  0  0  0  0  0  0  0  0
   65.4765   73.8267   91.0878 C   0  0  0  0  0  0  0  0  0  0  0  0
   64.4881   72.9683   91.5855 C   0  0  0  0  0  0  0  0  0  0  0  0
   63.1384   73.2877   91.4435 C   0  0  0  0  0  0  0  0  0  0  0  0
   62.7504   74.4790   90.8205 C   0  0  0  0  0  0  0  0  0  0  0  0
   61.3942   74.7687   90.6824 O   0  0  0  0  0  0  0  0  0  0  0  0
   60.7517   74.1738   91.0161 H   0  0  0  0  0  0  0  0  0  0  0  0
   63.8319   77.7387   90.0212 O   0  0  0  0  0  0  0  0  0  0  0  0
   63.3483   76.6317   89.6428 C   0  0  0  0  0  0  0  0  0  0  0  0
   62.4921   76.6171   88.5448 O   0  0  0  0  0  0  0  0  0  0  0  0
   62.1235   75.8080   88.2489 H   0  0  0  0  0  0  0  0  0  0  0  0
 34 35  2  0  0  0
 35 36  1  0  0  0
 35 26  1  0  0  0
 26 27  2  0  0  0
 27 28  1  0  0  0
 28 25  1  0  0  0
 25 24  1  0  0  0
 24  1  1  0  0  0
  1  2  2  0  0  0
  2  3  2  0  0  0
  3  4  2  0  0  0
  4  7  1  0  0  0
  7  8  2  0  0  0
  8  9  1  0  0  0
  9 10  2  0  0  0
 10 11  1  0  0  0
 11 13  1  0  0  0
 13 15  1  0  0  0
 15 16  2  0  0  0
 15 17  2  0  0  0
 15 18  1  0  0  0
 18 19  1  0  0  0
 19 20  1  0  0  0
 20 21  1  0  0  0
 20 22  1  0  0  0
 20 23  1  0  0  0
 11 12  2  0  0  0
  4  5  2  0  0  0
  5  6  2  0  0  0
 28 29  2  0  0  0
 29 30  1  0  0  0
 30 31  2  0  0  0
 31 32  1  0  0  0
 31 26  1  0  0  0
  6  1  1  0  0  0
 12  7  1  0  0  0
 36 37  1  0  0  0
 13 14  1  0  0  0
 32 33  1  0  0  0
M  END
> <Activity>
18.5

> <minimizedAffinity>
-10.17210

$$$$
HIPS7792


 37 39  0  0  0  0  0  0  0  0999 V2000
   68.6187   75.2402   91.4908 C   0  0  0  0  0  0  0  0  0  0  0  0
   69.3457   75.0421   90.3143 C   0  0  0  0  0  0  0  0  0  0  0  0
   69.9324   76.0968   89.6905 N   0  0  0  0  0  0  0  0  0  0  0  0
   69.8318   77.3612   90.1888 C   0  0  0  0  0  0  0  0  0  0  0  0
   69.1332   77.5680   91.3418 N   0  0  0  0  0  0  0  0  0  0  0  0
   68.5336   76.5412   92.0010 C   0  0  0  0  0  0  0  0  0  0  0  0
   70.4699   78.4973   89.4761 C   0  0  0  0  0  0  0  0  0  0  0  0
   71.8710   78.5835   89.3860 C   0  0  0  0  0  0  0  0  0  0  0  0
   72.4731   79.6307   88.6887 C   0  0  0  0  0  0  0  0  0  0  0  0
   71.6890   80.6138   88.0828 C   0  0  0  0  0  0  0  0  0  0  0  0
   70.2865   80.5658   88.1816 C   0  0  0  0  0  0  0  0  0  0  0  0
   69.6874   79.4926   88.8665 C   0  0  0  0  0  0  0  0  0  0  0  0
   69.4435   81.5769   87.5998 N   0  0  0  0  0  0  0  0  0  0  0  0
   69.6765   82.5190   87.7653 H   0  0  0  0  0  0  0  0  0  0  0  0
   68.0431   81.2494   86.6255 S   0  0  0  0  0  0  0  0  0  0  0  0
   68.1901   81.9956   85.3261 O   0  0  0  0  0  0  0  0  0  0  0  0
   66.8142   81.7536   87.3334 O   0  0  0  0  0  0  0  0  0  0  0  0
   67.9328   79.4911   86.2812 C   0  0  0  0  0  0  0  0  0  0  0  0
   67.1462   78.7123   87.3528 C   0  0  0  0  0  0  0  0  0  0  0  0
   67.1581   77.1925   87.1486 C   0  0  0  0  0  0  0  0  0  0  0  0
   66.4804   76.8454   85.9960 F   0  0  0  0  0  0  0  0  0  0  0  0
   68.4609   76.7269   87.0764 F   0  0  0  0  0  0  0  0  0  0  0  0
   66.5310   76.5881   88.2233 F   0  0  0  0  0  0  0  0  0  0  0  0
   67.9968   74.0792   92.2076 C   0  0  0  0  0  0  0  0  0  0  0  0
   67.0316   73.4679   91.3607 O   0  0  0  0  0  0  0  0  0  0  0  0
   64.0143   75.6241   90.8617 C   0  0  0  0  0  0  0  0  0  0  0  0
   65.3535   75.2397   91.0568 C   0  0  0  0  0  0  0  0  0  0  0  0
   65.6995   73.8892   91.2474 C   0  0  0  0  0  0  0  0  0  0  0  0
   64.6828   72.9282   91.3137 C   0  0  0  0  0  0  0  0  0  0  0  0
   63.3495   73.2974   91.1411 C   0  0  0  0  0  0  0  0  0  0  0  0
   63.0042   74.6351   90.9193 C   0  0  0  0  0  0  0  0  0  0  0  0
   61.6646   74.9751   90.7395 O   0  0  0  0  0  0  0  0  0  0  0  0
   61.0035   74.3123   90.7796 H   0  0  0  0  0  0  0  0  0  0  0  0
   63.9424   77.9353   91.4777 O   0  0  0  0  0  0  0  0  0  0  0  0
   63.6766   77.0501   90.6127 C   0  0  0  0  0  0  0  0  0  0  0  0
   63.1119   77.4462   89.4031 O   0  0  0  0  0  0  0  0  0  0  0  0
   62.9078   76.8064   88.7496 H   0  0  0  0  0  0  0  0  0  0  0  0
 34 35  2  0  0  0
 35 36  1  0  0  0
 35 26  1  0  0  0
 26 27  2  0  0  0
 27 28  1  0  0  0
 28 25  1  0  0  0
 25 24  1  0  0  0
 24  1  1  0  0  0
  1  2  2  0  0  0
  2  3  2  0  0  0
  3  4  2  0  0  0
  4  7  1  0  0  0
  7  8  2  0  0  0
  8  9  1  0  0  0
  9 10  2  0  0  0
 10 11  1  0  0  0
 11 13  1  0  0  0
 13 15  1  0  0  0
 15 16  2  0  0  0
 15 17  2  0  0  0
 15 18  1  0  0  0
 18 19  1  0  0  0
 19 20  1  0  0  0
 20 21  1  0  0  0
 20 22  1  0  0  0
 20 23  1  0  0  0
 11 12  2  0  0  0
  4  5  2  0  0  0
  5  6  2  0  0  0
 28 29  2  0  0  0
 29 30  1  0  0  0
 30 31  2  0  0  0
 31 32  1  0  0  0
 31 26  1  0  0  0
  6  1  1  0  0  0
 12  7  1  0  0  0
 36 37  1  0  0  0
 13 14  1  0  0  0
 32 33  1  0  0  0
M  END
> <Activity>
18.5

> <minimizedAffinity>
-10.09334

$$$$
HIPS7792


 37 39  0  0  0  0  0  0  0  0999 V2000
   68.5821   80.2278   94.6958 C   0  0  0  0  0  0  0  0  0  0  0  0
   69.0079   78.8975   94.7263 C   0  0  0  0  0  0  0  0  0  0  0  0
   69.0049   78.1553   93.5884 N   0  0  0  0  0  0  0  0  0  0  0  0
   68.5941   78.6804   92.4000 C   0  0  0  0  0  0  0  0  0  0  0  0
   68.1849   79.9807   92.3535 N   0  0  0  0  0  0  0  0  0  0  0  0
   68.1753   80.7609   93.4669 C   0  0  0  0  0  0  0  0  0  0  0  0
   68.5861   77.8401   91.1754 C   0  0  0  0  0  0  0  0  0  0  0  0
   69.1624   78.3148   89.9834 C   0  0  0  0  0  0  0  0  0  0  0  0
   69.1870   77.5154   88.8407 C   0  0  0  0  0  0  0  0  0  0  0  0
   68.6262   76.2373   88.8653 C   0  0  0  0  0  0  0  0  0  0  0  0
   68.0191   75.7496   90.0369 C   0  0  0  0  0  0  0  0  0  0  0  0
   68.0205   76.5538   91.1914 C   0  0  0  0  0  0  0  0  0  0  0  0
   67.4006   74.4512   90.0945 N   0  0  0  0  0  0  0  0  0  0  0  0
   67.7733   73.7402   89.5246 H   0  0  0  0  0  0  0  0  0  0  0  0
   66.0417   74.0523   91.1005 S   0  0  0  0  0  0  0  0  0  0  0  0
   66.3067   74.5887   92.4820 O   0  0  0  0  0  0  0  0  0  0  0  0
   65.9052   72.5557   91.1835 O   0  0  0  0  0  0  0  0  0  0  0  0
   64.5527   74.8168   90.4517 C   0  0  0  0  0  0  0  0  0  0  0  0
   63.4771   75.0573   91.5280 C   0  0  0  0  0  0  0  0  0  0  0  0
   62.6433   73.8139   91.8604 C   0  0  0  0  0  0  0  0  0  0  0  0
   62.9134   72.7890   90.9745 F   0  0  0  0  0  0  0  0  0  0  0  0
   62.9068   73.3891   93.1524 F   0  0  0  0  0  0  0  0  0  0  0  0
   61.3005   74.1323   91.7644 F   0  0  0  0  0  0  0  0  0  0  0  0
   68.6146   81.0675   95.9378 C   0  0  0  0  0  0  0  0  0  0  0  0
   68.0023   82.3230   95.6709 O   0  0  0  0  0  0  0  0  0  0  0  0
   64.8538   84.1699   96.4945 C   0  0  0  0  0  0  0  0  0  0  0  0
   65.9975   83.7418   95.7960 C   0  0  0  0  0  0  0  0  0  0  0  0
   66.9007   82.8306   96.3737 C   0  0  0  0  0  0  0  0  0  0  0  0
   66.6888   82.4032   97.6905 C   0  0  0  0  0  0  0  0  0  0  0  0
   65.5697   82.8342   98.4016 C   0  0  0  0  0  0  0  0  0  0  0  0
   64.6520   83.7154   97.8191 C   0  0  0  0  0  0  0  0  0  0  0  0
   63.5363   84.1221   98.5486 O   0  0  0  0  0  0  0  0  0  0  0  0
   63.4123   83.8152   99.4251 H   0  0  0  0  0  0  0  0  0  0  0  0
   62.6439   84.9751   96.0539 O   0  0  0  0  0  0  0  0  0  0  0  0
   63.8869   85.0943   95.8464 C   0  0  0  0  0  0  0  0  0  0  0  0
   64.3329   86.1407   95.0431 O   0  0  0  0  0  0  0  0  0  0  0  0
   65.2490   86.2464   94.8772 H   0  0  0  0  0  0  0  0  0  0  0  0
 34 35  2  0  0  0
 35 36  1  0  0  0
 35 26  1  0  0  0
 26 27  2  0  0  0
 27 28  1  0  0  0
 28 25  1  0  0  0
 25 24  1  0  0  0
 24  1  1  0  0  0
  1  2  2  0  0  0
  2  3  2  0  0  0
  3  4  2  0  0  0
  4  7  1  0  0  0
  7  8  2  0  0  0
  8  9  1  0  0  0
  9 10  2  0  0  0
 10 11  1  0  0  0
 11 13  1  0  0  0
 13 15  1  0  0  0
 15 16  2  0  0  0
 15 17  2  0  0  0
 15 18  1  0  0  0
 18 19  1  0  0  0
 19 20  1  0  0  0
 20 21  1  0  0  0
 20 22  1  0  0  0
 20 23  1  0  0  0
 11 12  2  0  0  0
  4  5  2  0  0  0
  5  6  2  0  0  0
 28 29  2  0  0  0
 29 30  1  0  0  0
 30 31  2  0  0  0
 31 32  1  0  0  0
 31 26  1  0  0  0
  6  1  1  0  0  0
 12  7  1  0  0  0
 36 37  1  0  0  0
 13 14  1  0  0  0
 32 33  1  0  0  0
M  END
> <Activity>
18.5

> <minimizedAffinity>
-10.02371

$$$$
HIPS7792


 37 39  0  0  0  0  0  0  0  0999 V2000
   68.2587   75.1078   91.1981 C   0  0  0  0  0  0  0  0  0  0  0  0
   68.6505   76.2134   91.9572 C   0  0  0  0  0  0  0  0  0  0  0  0
   69.2976   77.2510   91.3653 N   0  0  0  0  0  0  0  0  0  0  0  0
   69.5776   77.2445   90.0317 C   0  0  0  0  0  0  0  0  0  0  0  0
   69.1925   76.1760   89.2766 N   0  0  0  0  0  0  0  0  0  0  0  0
   68.5393   75.1180   89.8266 C   0  0  0  0  0  0  0  0  0  0  0  0
   70.3011   78.3857   89.4153 C   0  0  0  0  0  0  0  0  0  0  0  0
   71.7070   78.4280   89.4302 C   0  0  0  0  0  0  0  0  0  0  0  0
   72.3907   79.4810   88.8227 C   0  0  0  0  0  0  0  0  0  0  0  0
   71.6839   80.5133   88.2036 C   0  0  0  0  0  0  0  0  0  0  0  0
   70.2771   80.5089   88.1988 C   0  0  0  0  0  0  0  0  0  0  0  0
   69.5965   79.4303   88.7931 C   0  0  0  0  0  0  0  0  0  0  0  0
   69.5107   81.5702   87.6006 N   0  0  0  0  0  0  0  0  0  0  0  0
   69.8000   82.4959   87.7695 H   0  0  0  0  0  0  0  0  0  0  0  0
   68.1104   81.3300   86.6011 S   0  0  0  0  0  0  0  0  0  0  0  0
   68.2651   82.1755   85.3651 O   0  0  0  0  0  0  0  0  0  0  0  0
   66.8833   81.7850   87.3446 O   0  0  0  0  0  0  0  0  0  0  0  0
   67.9893   79.6052   86.1188 C   0  0  0  0  0  0  0  0  0  0  0  0
   67.0700   78.7816   87.0408 C   0  0  0  0  0  0  0  0  0  0  0  0
   66.9909   77.2955   86.6707 C   0  0  0  0  0  0  0  0  0  0  0  0
   68.2533   76.7403   86.5906 F   0  0  0  0  0  0  0  0  0  0  0  0
   66.2415   76.6052   87.6093 F   0  0  0  0  0  0  0  0  0  0  0  0
   66.3790   77.1699   85.4365 F   0  0  0  0  0  0  0  0  0  0  0  0
   67.5123   73.9727   91.8330 C   0  0  0  0  0  0  0  0  0  0  0  0
   66.2106   74.4137   92.1983 O   0  0  0  0  0  0  0  0  0  0  0  0
   63.3805   75.2227   89.8879 C   0  0  0  0  0  0  0  0  0  0  0  0
   64.2851   74.4818   90.6700 C   0  0  0  0  0  0  0  0  0  0  0  0
   65.3450   75.1135   91.3462 C   0  0  0  0  0  0  0  0  0  0  0  0
   65.5377   76.4902   91.1757 C   0  0  0  0  0  0  0  0  0  0  0  0
   64.6602   77.2341   90.3881 C   0  0  0  0  0  0  0  0  0  0  0  0
   63.5859   76.6147   89.7398 C   0  0  0  0  0  0  0  0  0  0  0  0
   62.7177   77.3837   88.9670 O   0  0  0  0  0  0  0  0  0  0  0  0
   62.8630   78.3049   88.8755 H   0  0  0  0  0  0  0  0  0  0  0  0
   61.0534   74.7314   89.6242 O   0  0  0  0  0  0  0  0  0  0  0  0
   62.2388   74.5420   89.2225 C   0  0  0  0  0  0  0  0  0  0  0  0
   62.4460   73.7270   88.1126 O   0  0  0  0  0  0  0  0  0  0  0  0
   63.3157   73.5742   87.7994 H   0  0  0  0  0  0  0  0  0  0  0  0
 34 35  2  0  0  0
 35 36  1  0  0  0
 35 26  1  0  0  0
 26 27  2  0  0  0
 27 28  1  0  0  0
 28 25  1  0  0  0
 25 24  1  0  0  0
 24  1  1  0  0  0
  1  2  2  0  0  0
  2  3  2  0  0  0
  3  4  2  0  0  0
  4  7  1  0  0  0
  7  8  2  0  0  0
  8  9  1  0  0  0
  9 10  2  0  0  0
 10 11  1  0  0  0
 11 13  1  0  0  0
 13 15  1  0  0  0
 15 16  2  0  0  0
 15 17  2  0  0  0
 15 18  1  0  0  0
 18 19  1  0  0  0
 19 20  1  0  0  0
 20 21  1  0  0  0
 20 22  1  0  0  0
 20 23  1  0  0  0
 11 12  2  0  0  0
  4  5  2  0  0  0
  5  6  2  0  0  0
 28 29  2  0  0  0
 29 30  1  0  0  0
 30 31  2  0  0  0
 31 32  1  0  0  0
 31 26  1  0  0  0
  6  1  1  0  0  0
 12  7  1  0  0  0
 36 37  1  0  0  0
 13 14  1  0  0  0
 32 33  1  0  0  0
M  END
> <Activity>
18.5

> <minimizedAffinity>
-9.45823

$$$$
HIPS7792


 37 39  0  0  0  0  0  0  0  0999 V2000
   68.2811   79.9854   93.7321 C   0  0  0  0  0  0  0  0  0  0  0  0
   69.1047   78.9953   94.2737 C   0  0  0  0  0  0  0  0  0  0  0  0
   68.9495   77.6993   93.8969 N   0  0  0  0  0  0  0  0  0  0  0  0
   68.0003   77.3328   92.9906 C   0  0  0  0  0  0  0  0  0  0  0  0
   67.1955   78.2902   92.4465 N   0  0  0  0  0  0  0  0  0  0  0  0
   67.3186   79.5995   92.7916 C   0  0  0  0  0  0  0  0  0  0  0  0
   67.8428   75.9058   92.6102 C   0  0  0  0  0  0  0  0  0  0  0  0
   68.7951   74.9528   93.0145 C   0  0  0  0  0  0  0  0  0  0  0  0
   68.6331   73.6065   92.6880 C   0  0  0  0  0  0  0  0  0  0  0  0
   67.5276   73.1923   91.9431 C   0  0  0  0  0  0  0  0  0  0  0  0
   66.5752   74.1295   91.5030 C   0  0  0  0  0  0  0  0  0  0  0  0
   66.7344   75.4817   91.8576 C   0  0  0  0  0  0  0  0  0  0  0  0
   65.4392   73.7488   90.7053 N   0  0  0  0  0  0  0  0  0  0  0  0
   65.4995   72.9108   90.1922 H   0  0  0  0  0  0  0  0  0  0  0  0
   63.9690   74.6664   90.5857 S   0  0  0  0  0  0  0  0  0  0  0  0
   63.5382   75.0466   91.9772 O   0  0  0  0  0  0  0  0  0  0  0  0
   62.8963   73.8107   89.9670 O   0  0  0  0  0  0  0  0  0  0  0  0
   64.2542   76.1606   89.6326 C   0  0  0  0  0  0  0  0  0  0  0  0
   65.1711   75.9365   88.4150 C   0  0  0  0  0  0  0  0  0  0  0  0
   66.4815   76.7312   88.4708 C   0  0  0  0  0  0  0  0  0  0  0  0
   66.3972   77.7551   89.3942 F   0  0  0  0  0  0  0  0  0  0  0  0
   67.5366   75.8966   88.8015 F   0  0  0  0  0  0  0  0  0  0  0  0
   66.7273   77.2836   87.2266 F   0  0  0  0  0  0  0  0  0  0  0  0
   68.4663   81.4239   94.1131 C   0  0  0  0  0  0  0  0  0  0  0  0
   68.4578   81.5382   95.5306 O   0  0  0  0  0  0  0  0  0  0  0  0
   65.4904   83.6289   96.4392 C   0  0  0  0  0  0  0  0  0  0  0  0
   66.5617   83.0951   95.7000 C   0  0  0  0  0  0  0  0  0  0  0  0
   67.4340   82.1486   96.2683 C   0  0  0  0  0  0  0  0  0  0  0  0
   67.2695   81.7913   97.6125 C   0  0  0  0  0  0  0  0  0  0  0  0
   66.2236   82.3268   98.3629 C   0  0  0  0  0  0  0  0  0  0  0  0
   65.3347   83.2442   97.7918 C   0  0  0  0  0  0  0  0  0  0  0  0
   64.2916   83.7561   98.5615 O   0  0  0  0  0  0  0  0  0  0  0  0
   64.1976   83.4947   99.4564 H   0  0  0  0  0  0  0  0  0  0  0  0
   63.3153   84.5570   96.0736 O   0  0  0  0  0  0  0  0  0  0  0  0
   64.5515   84.5901   95.8034 C   0  0  0  0  0  0  0  0  0  0  0  0
   65.0209   85.5780   94.9417 O   0  0  0  0  0  0  0  0  0  0  0  0
   65.9325   85.6197   94.7290 H   0  0  0  0  0  0  0  0  0  0  0  0
 34 35  2  0  0  0
 35 36  1  0  0  0
 35 26  1  0  0  0
 26 27  2  0  0  0
 27 28  1  0  0  0
 28 25  1  0  0  0
 25 24  1  0  0  0
 24  1  1  0  0  0
  1  2  2  0  0  0
  2  3  2  0  0  0
  3  4  2  0  0  0
  4  7  1  0  0  0
  7  8  2  0  0  0
  8  9  1  0  0  0
  9 10  2  0  0  0
 10 11  1  0  0  0
 11 13  1  0  0  0
 13 15  1  0  0  0
 15 16  2  0  0  0
 15 17  2  0  0  0
 15 18  1  0  0  0
 18 19  1  0  0  0
 19 20  1  0  0  0
 20 21  1  0  0  0
 20 22  1  0  0  0
 20 23  1  0  0  0
 11 12  2  0  0  0
  4  5  2  0  0  0
  5  6  2  0  0  0
 28 29  2  0  0  0
 29 30  1  0  0  0
 30 31  2  0  0  0
 31 32  1  0  0  0
 31 26  1  0  0  0
  6  1  1  0  0  0
 12  7  1  0  0  0
 36 37  1  0  0  0
 13 14  1  0  0  0
 32 33  1  0  0  0
M  END
> <Activity>
18.5

> <minimizedAffinity>
-9.45383

$$$$
HIPS7792


 37 39  0  0  0  0  0  0  0  0999 V2000
   68.1895   75.5751   91.1561 C   0  0  0  0  0  0  0  0  0  0  0  0
   67.8308   76.8488   91.6042 C   0  0  0  0  0  0  0  0  0  0  0  0
   68.1471   77.9445   90.8660 N   0  0  0  0  0  0  0  0  0  0  0  0
   68.8126   77.8343   89.6820 C   0  0  0  0  0  0  0  0  0  0  0  0
   69.1605   76.5963   89.2275 N   0  0  0  0  0  0  0  0  0  0  0  0
   68.8606   75.4726   89.9317 C   0  0  0  0  0  0  0  0  0  0  0  0
   69.1596   79.0512   88.9045 C   0  0  0  0  0  0  0  0  0  0  0  0
   68.4535   79.3705   87.7306 C   0  0  0  0  0  0  0  0  0  0  0  0
   68.7538   80.5302   87.0163 C   0  0  0  0  0  0  0  0  0  0  0  0
   69.7702   81.3813   87.4536 C   0  0  0  0  0  0  0  0  0  0  0  0
   70.5098   81.0705   88.6092 C   0  0  0  0  0  0  0  0  0  0  0  0
   70.1837   79.9111   89.3365 C   0  0  0  0  0  0  0  0  0  0  0  0
   71.5870   81.9038   89.0752 N   0  0  0  0  0  0  0  0  0  0  0  0
   71.3528   82.7178   89.5769 H   0  0  0  0  0  0  0  0  0  0  0  0
   73.2719   81.5720   88.8131 S   0  0  0  0  0  0  0  0  0  0  0  0
   73.3805   80.4745   87.7882 O   0  0  0  0  0  0  0  0  0  0  0  0
   73.8914   81.0928   90.0985 O   0  0  0  0  0  0  0  0  0  0  0  0
   74.0962   83.0393   88.1888 C   0  0  0  0  0  0  0  0  0  0  0  0
   75.6263   82.8829   88.1003 C   0  0  0  0  0  0  0  0  0  0  0  0
   76.2939   83.8575   87.1224 C   0  0  0  0  0  0  0  0  0  0  0  0
   77.5604   84.1991   87.5555 F   0  0  0  0  0  0  0  0  0  0  0  0
   76.3741   83.2928   85.8599 F   0  0  0  0  0  0  0  0  0  0  0  0
   75.5329   85.0101   87.0442 F   0  0  0  0  0  0  0  0  0  0  0  0
   67.8146   74.3557   91.9443 C   0  0  0  0  0  0  0  0  0  0  0  0
   66.8696   73.5920   91.2052 O   0  0  0  0  0  0  0  0  0  0  0  0
   63.1832   73.9643   91.7282 C   0  0  0  0  0  0  0  0  0  0  0  0
   64.5073   73.5156   91.8845 C   0  0  0  0  0  0  0  0  0  0  0  0
   65.5284   73.9564   91.0226 C   0  0  0  0  0  0  0  0  0  0  0  0
   65.2005   74.7982   89.9523 C   0  0  0  0  0  0  0  0  0  0  0  0
   63.8888   75.2357   89.7739 C   0  0  0  0  0  0  0  0  0  0  0  0
   62.8763   74.8251   90.6481 C   0  0  0  0  0  0  0  0  0  0  0  0
   61.5755   75.2858   90.4529 O   0  0  0  0  0  0  0  0  0  0  0  0
   61.3831   75.8556   89.7344 H   0  0  0  0  0  0  0  0  0  0  0  0
   60.9063   73.7264   92.4251 O   0  0  0  0  0  0  0  0  0  0  0  0
   62.1297   73.5247   92.6804 C   0  0  0  0  0  0  0  0  0  0  0  0
   62.4650   72.8361   93.8432 O   0  0  0  0  0  0  0  0  0  0  0  0
   63.3648   72.6766   94.0503 H   0  0  0  0  0  0  0  0  0  0  0  0
 34 35  2  0  0  0
 35 36  1  0  0  0
 35 26  1  0  0  0
 26 27  2  0  0  0
 27 28  1  0  0  0
 28 25  1  0  0  0
 25 24  1  0  0  0
 24  1  1  0  0  0
  1  2  2  0  0  0
  2  3  2  0  0  0
  3  4  2  0  0  0
  4  7  1  0  0  0
  7  8  2  0  0  0
  8  9  1  0  0  0
  9 10  2  0  0  0
 10 11  1  0  0  0
 11 13  1  0  0  0
 13 15  1  0  0  0
 15 16  2  0  0  0
 15 17  2  0  0  0
 15 18  1  0  0  0
 18 19  1  0  0  0
 19 20  1  0  0  0
 20 21  1  0  0  0
 20 22  1  0  0  0
 20 23  1  0  0  0
 11 12  2  0  0  0
  4  5  2  0  0  0
  5  6  2  0  0  0
 28 29  2  0  0  0
 29 30  1  0  0  0
 30 31  2  0  0  0
 31 32  1  0  0  0
 31 26  1  0  0  0
  6  1  1  0  0  0
 12  7  1  0  0  0
 36 37  1  0  0  0
 13 14  1  0  0  0
 32 33  1  0  0  0
M  END
> <Activity>
18.5

> <minimizedAffinity>
-9.41295

$$$$
HIPS7792


 37 39  0  0  0  0  0  0  0  0999 V2000
   63.0612   74.8724   89.9285 C   0  0  0  0  0  0  0  0  0  0  0  0
   63.5145   74.0541   90.9662 C   0  0  0  0  0  0  0  0  0  0  0  0
   64.6972   74.3227   91.5783 N   0  0  0  0  0  0  0  0  0  0  0  0
   65.4643   75.3851   91.2044 C   0  0  0  0  0  0  0  0  0  0  0  0
   65.0295   76.1982   90.1992 N   0  0  0  0  0  0  0  0  0  0  0  0
   63.8507   75.9690   89.5619 C   0  0  0  0  0  0  0  0  0  0  0  0
   66.7608   75.6445   91.8807 C   0  0  0  0  0  0  0  0  0  0  0  0
   67.4504   74.5992   92.5213 C   0  0  0  0  0  0  0  0  0  0  0  0
   68.6844   74.8317   93.1283 C   0  0  0  0  0  0  0  0  0  0  0  0
   69.2428   76.1111   93.1175 C   0  0  0  0  0  0  0  0  0  0  0  0
   68.5605   77.1795   92.5076 C   0  0  0  0  0  0  0  0  0  0  0  0
   67.3276   76.9304   91.8769 C   0  0  0  0  0  0  0  0  0  0  0  0
   69.0856   78.5196   92.5031 N   0  0  0  0  0  0  0  0  0  0  0  0
   69.9510   78.6713   92.0589 H   0  0  0  0  0  0  0  0  0  0  0  0
   68.2975   79.8877   93.2275 S   0  0  0  0  0  0  0  0  0  0  0  0
   66.8459   79.8587   92.8293 O   0  0  0  0  0  0  0  0  0  0  0  0
   68.9155   81.1553   92.7013 O   0  0  0  0  0  0  0  0  0  0  0  0
   68.4157   79.7878   95.0159 C   0  0  0  0  0  0  0  0  0  0  0  0
   68.8210   81.1217   95.6716 C   0  0  0  0  0  0  0  0  0  0  0  0
   67.7822   81.6687   96.6583 C   0  0  0  0  0  0  0  0  0  0  0  0
   66.7023   82.2085   95.9870 F   0  0  0  0  0  0  0  0  0  0  0  0
   67.3445   80.6619   97.5033 F   0  0  0  0  0  0  0  0  0  0  0  0
   68.3652   82.6646   97.4211 F   0  0  0  0  0  0  0  0  0  0  0  0
   61.7407   74.6071   89.2693 C   0  0  0  0  0  0  0  0  0  0  0  0
   61.9597   73.9380   88.0337 O   0  0  0  0  0  0  0  0  0  0  0  0
   59.9986   71.4208   86.0792 C   0  0  0  0  0  0  0  0  0  0  0  0
   61.0625   72.0277   86.7713 C   0  0  0  0  0  0  0  0  0  0  0  0
   60.9490   73.3388   87.2692 C   0  0  0  0  0  0  0  0  0  0  0  0
   59.7832   74.0691   87.0058 C   0  0  0  0  0  0  0  0  0  0  0  0
   58.7282   73.4869   86.3046 C   0  0  0  0  0  0  0  0  0  0  0  0
   58.8248   72.1721   85.8355 C   0  0  0  0  0  0  0  0  0  0  0  0
   57.7511   71.6110   85.1465 O   0  0  0  0  0  0  0  0  0  0  0  0
   56.9784   72.1174   84.9905 H   0  0  0  0  0  0  0  0  0  0  0  0
   60.3035   69.0732   86.4286 O   0  0  0  0  0  0  0  0  0  0  0  0
   60.1218   70.0173   85.6052 C   0  0  0  0  0  0  0  0  0  0  0  0
   59.9858   69.7086   84.2542 O   0  0  0  0  0  0  0  0  0  0  0  0
   59.8506   70.3930   83.6286 H   0  0  0  0  0  0  0  0  0  0  0  0
 34 35  2  0  0  0
 35 36  1  0  0  0
 35 26  1  0  0  0
 26 27  2  0  0  0
 27 28  1  0  0  0
 28 25  1  0  0  0
 25 24  1  0  0  0
 24  1  1  0  0  0
  1  2  2  0  0  0
  2  3  2  0  0  0
  3  4  2  0  0  0
  4  7  1  0  0  0
  7  8  2  0  0  0
  8  9  1  0  0  0
  9 10  2  0  0  0
 10 11  1  0  0  0
 11 13  1  0  0  0
 13 15  1  0  0  0
 15 16  2  0  0  0
 15 17  2  0  0  0
 15 18  1  0  0  0
 18 19  1  0  0  0
 19 20  1  0  0  0
 20 21  1  0  0  0
 20 22  1  0  0  0
 20 23  1  0  0  0
 11 12  2  0  0  0
  4  5  2  0  0  0
  5  6  2  0  0  0
 28 29  2  0  0  0
 29 30  1  0  0  0
 30 31  2  0  0  0
 31 32  1  0  0  0
 31 26  1  0  0  0
  6  1  1  0  0  0
 12  7  1  0  0  0
 36 37  1  0  0  0
 13 14  1  0  0  0
 32 33  1  0  0  0
M  END
> <Activity>
18.5

> <minimizedAffinity>
-9.34153

$$$$
HIPS7792


 37 39  0  0  0  0  0  0  0  0999 V2000
   69.2253   77.5592   92.1006 C   0  0  0  0  0  0  0  0  0  0  0  0
   69.5237   77.4077   93.4571 C   0  0  0  0  0  0  0  0  0  0  0  0
   69.1136   78.3428   94.3532 N   0  0  0  0  0  0  0  0  0  0  0  0
   68.4071   79.4398   93.9605 C   0  0  0  0  0  0  0  0  0  0  0  0
   68.1003   79.5958   92.6407 N   0  0  0  0  0  0  0  0  0  0  0  0
   68.4870   78.6829   91.7104 C   0  0  0  0  0  0  0  0  0  0  0  0
   67.9863   80.4540   94.9606 C   0  0  0  0  0  0  0  0  0  0  0  0
   68.1611   80.2125   96.3352 C   0  0  0  0  0  0  0  0  0  0  0  0
   67.7984   81.1764   97.2758 C   0  0  0  0  0  0  0  0  0  0  0  0
   67.2443   82.3888   96.8615 C   0  0  0  0  0  0  0  0  0  0  0  0
   67.0334   82.6438   95.4942 C   0  0  0  0  0  0  0  0  0  0  0  0
   67.4246   81.6754   94.5514 C   0  0  0  0  0  0  0  0  0  0  0  0
   66.4348   83.8667   95.0275 N   0  0  0  0  0  0  0  0  0  0  0  0
   66.0199   83.8624   94.1347 H   0  0  0  0  0  0  0  0  0  0  0  0
   66.3939   85.3498   95.9311 S   0  0  0  0  0  0  0  0  0  0  0  0
   67.2393   86.3639   95.2076 O   0  0  0  0  0  0  0  0  0  0  0  0
   66.9836   85.1181   97.2964 O   0  0  0  0  0  0  0  0  0  0  0  0
   64.7086   85.9593   96.0339 C   0  0  0  0  0  0  0  0  0  0  0  0
   63.6572   84.8334   96.0498 C   0  0  0  0  0  0  0  0  0  0  0  0
   63.4412   84.2060   97.4324 C   0  0  0  0  0  0  0  0  0  0  0  0
   64.4036   83.2505   97.6951 F   0  0  0  0  0  0  0  0  0  0  0  0
   63.4792   85.1820   98.4148 F   0  0  0  0  0  0  0  0  0  0  0  0
   62.2000   83.5962   97.4621 F   0  0  0  0  0  0  0  0  0  0  0  0
   69.6415   76.5160   91.1070 C   0  0  0  0  0  0  0  0  0  0  0  0
   68.6795   75.4687   91.0963 O   0  0  0  0  0  0  0  0  0  0  0  0
   65.0618   75.0486   90.2372 C   0  0  0  0  0  0  0  0  0  0  0  0
   66.2934   74.9059   90.9020 C   0  0  0  0  0  0  0  0  0  0  0  0
   67.4580   75.5243   90.4109 C   0  0  0  0  0  0  0  0  0  0  0  0
   67.3966   76.2315   89.2035 C   0  0  0  0  0  0  0  0  0  0  0  0
   66.1866   76.3650   88.5239 C   0  0  0  0  0  0  0  0  0  0  0  0
   65.0196   75.7784   89.0259 C   0  0  0  0  0  0  0  0  0  0  0  0
   63.8213   75.9364   88.3319 O   0  0  0  0  0  0  0  0  0  0  0  0
   63.8045   76.4216   87.5305 H   0  0  0  0  0  0  0  0  0  0  0  0
   63.5295   74.5935   92.0180 O   0  0  0  0  0  0  0  0  0  0  0  0
   63.8342   74.4279   90.8006 C   0  0  0  0  0  0  0  0  0  0  0  0
   62.9694   73.6988   89.9885 O   0  0  0  0  0  0  0  0  0  0  0  0
   63.1767   73.5649   89.0846 H   0  0  0  0  0  0  0  0  0  0  0  0
 34 35  2  0  0  0
 35 36  1  0  0  0
 35 26  1  0  0  0
 26 27  2  0  0  0
 27 28  1  0  0  0
 28 25  1  0  0  0
 25 24  1  0  0  0
 24  1  1  0  0  0
  1  2  2  0  0  0
  2  3  2  0  0  0
  3  4  2  0  0  0
  4  7  1  0  0  0
  7  8  2  0  0  0
  8  9  1  0  0  0
  9 10  2  0  0  0
 10 11  1  0  0  0
 11 13  1  0  0  0
 13 15  1  0  0  0
 15 16  2  0  0  0
 15 17  2  0  0  0
 15 18  1  0  0  0
 18 19  1  0  0  0
 19 20  1  0  0  0
 20 21  1  0  0  0
 20 22  1  0  0  0
 20 23  1  0  0  0
 11 12  2  0  0  0
  4  5  2  0  0  0
  5  6  2  0  0  0
 28 29  2  0  0  0
 29 30  1  0  0  0
 30 31  2  0  0  0
 31 32  1  0  0  0
 31 26  1  0  0  0
  6  1  1  0  0  0
 12  7  1  0  0  0
 36 37  1  0  0  0
 13 14  1  0  0  0
 32 33  1  0  0  0
M  END
> <Activity>
18.5

> <minimizedAffinity>
-9.27960

$$$$
HIPS6992


 35 38  0  0  0  0  0  0  0  0999 V2000
   66.9891   74.2591   91.5035 C   0  0  0  0  0  0  0  0  0  0  0  0
   67.0367   72.8609   91.3547 C   0  0  0  0  0  0  0  0  0  0  0  0
   65.8543   72.1243   91.2243 C   0  0  0  0  0  0  0  0  0  0  0  0
   64.6172   72.7752   91.2263 C   0  0  0  0  0  0  0  0  0  0  0  0
   64.5526   74.1714   91.3626 C   0  0  0  0  0  0  0  0  0  0  0  0
   65.7388   74.9000   91.5416 C   0  0  0  0  0  0  0  0  0  0  0  0
   70.0444   76.2645   90.4545 C   0  0  0  0  0  0  0  0  0  0  0  0
   70.5594   76.6394   91.6991 C   0  0  0  0  0  0  0  0  0  0  0  0
   69.9423   76.2060   92.8771 C   0  0  0  0  0  0  0  0  0  0  0  0
   68.7887   75.4165   92.8197 C   0  0  0  0  0  0  0  0  0  0  0  0
   68.2362   75.0619   91.5784 C   0  0  0  0  0  0  0  0  0  0  0  0
   68.8728   75.4907   90.3985 C   0  0  0  0  0  0  0  0  0  0  0  0
   70.6878   76.7088   89.2893 O   0  0  0  0  0  0  0  0  0  0  0  0
   72.2802   80.5946   88.8710 C   0  0  0  0  0  0  0  0  0  0  0  0
   73.1511   79.4993   88.9547 C   0  0  0  0  0  0  0  0  0  0  0  0
   72.6379   78.2000   89.0725 C   0  0  0  0  0  0  0  0  0  0  0  0
   71.2433   77.9866   89.1065 C   0  0  0  0  0  0  0  0  0  0  0  0
   70.3807   79.0869   89.0168 C   0  0  0  0  0  0  0  0  0  0  0  0
   70.8942   80.3861   88.8976 C   0  0  0  0  0  0  0  0  0  0  0  0
   73.2338   83.0098   88.7214 N   0  0  0  0  0  0  0  0  0  0  0  0
   72.8093   81.9340   88.7884 C   0  0  0  0  0  0  0  0  0  0  0  0
   63.2214   74.8814   91.3283 C   0  0  0  0  0  0  0  0  0  0  0  0
   63.2197   75.9386   90.3616 O   0  0  0  0  0  0  0  0  0  0  0  0
   64.3282   76.7469   90.0381 C   0  0  0  0  0  0  0  0  0  0  0  0
   64.7457   77.8209   90.8475 C   0  0  0  0  0  0  0  0  0  0  0  0
   65.8300   78.6141   90.4607 C   0  0  0  0  0  0  0  0  0  0  0  0
   66.5232   78.3444   89.2704 C   0  0  0  0  0  0  0  0  0  0  0  0
   67.5788   79.1733   88.8820 O   0  0  0  0  0  0  0  0  0  0  0  0
   66.1279   77.2548   88.4605 C   0  0  0  0  0  0  0  0  0  0  0  0
   65.0272   76.4718   88.8547 C   0  0  0  0  0  0  0  0  0  0  0  0
   67.8337   79.8930   89.4251 H   0  0  0  0  0  0  0  0  0  0  0  0
   66.8327   76.9261   87.1991 C   0  0  0  0  0  0  0  0  0  0  0  0
   68.0432   76.5758   87.2155 O   0  0  0  0  0  0  0  0  0  0  0  0
   66.1563   76.9778   85.9810 O   0  0  0  0  0  0  0  0  0  0  0  0
   65.2562   77.2367   85.9555 H   0  0  0  0  0  0  0  0  0  0  0  0
 20 21  3  0  0  0
 21 14  1  0  0  0
 14 15  2  0  0  0
 15 16  1  0  0  0
 16 17  2  0  0  0
 17 13  1  0  0  0
 13  7  1  0  0  0
  7  8  2  0  0  0
  8  9  1  0  0  0
  9 10  2  0  0  0
 10 11  1  0  0  0
 11  1  1  0  0  0
  1  2  2  0  0  0
  2  3  1  0  0  0
  3  4  2  0  0  0
  4  5  1  0  0  0
  5 22  1  0  0  0
 22 23  1  0  0  0
 23 24  1  0  0  0
 24 25  2  0  0  0
 25 26  1  0  0  0
 26 27  2  0  0  0
 27 28  1  0  0  0
 27 29  1  0  0  0
 29 32  1  0  0  0
 32 33  2  0  0  0
 32 34  1  0  0  0
 29 30  2  0  0  0
  5  6  2  0  0  0
 11 12  2  0  0  0
 17 18  1  0  0  0
 18 19  2  0  0  0
 19 14  1  0  0  0
 12  7  1  0  0  0
  6  1  1  0  0  0
 30 24  1  0  0  0
 28 31  1  0  0  0
 34 35  1  0  0  0
M  END
> <Activity>
18.6

> <minimizedAffinity>
-9.57450

$$$$
HIPS6992


 35 38  0  0  0  0  0  0  0  0999 V2000
   66.3011   73.6584   91.4155 C   0  0  0  0  0  0  0  0  0  0  0  0
   66.4052   72.2908   91.1022 C   0  0  0  0  0  0  0  0  0  0  0  0
   65.2587   71.4908   91.0436 C   0  0  0  0  0  0  0  0  0  0  0  0
   63.9996   72.0491   91.2820 C   0  0  0  0  0  0  0  0  0  0  0  0
   63.8771   73.4149   91.5849 C   0  0  0  0  0  0  0  0  0  0  0  0
   65.0344   74.2020   91.6898 C   0  0  0  0  0  0  0  0  0  0  0  0
   68.9861   76.0846   90.2487 C   0  0  0  0  0  0  0  0  0  0  0  0
   69.7264   76.2503   91.4232 C   0  0  0  0  0  0  0  0  0  0  0  0
   69.3822   75.5426   92.5795 C   0  0  0  0  0  0  0  0  0  0  0  0
   68.2775   74.6842   92.5783 C   0  0  0  0  0  0  0  0  0  0  0  0
   67.5002   74.5344   91.4185 C   0  0  0  0  0  0  0  0  0  0  0  0
   67.8634   75.2396   90.2556 C   0  0  0  0  0  0  0  0  0  0  0  0
   69.3582   76.8026   89.1020 O   0  0  0  0  0  0  0  0  0  0  0  0
   72.0775   80.0242   88.9092 C   0  0  0  0  0  0  0  0  0  0  0  0
   70.7001   80.2833   88.8782 C   0  0  0  0  0  0  0  0  0  0  0  0
   69.7833   79.2261   88.9628 C   0  0  0  0  0  0  0  0  0  0  0  0
   70.2405   77.8962   89.0805 C   0  0  0  0  0  0  0  0  0  0  0  0
   71.6187   77.6474   89.1160 C   0  0  0  0  0  0  0  0  0  0  0  0
   72.5354   78.7050   89.0328 C   0  0  0  0  0  0  0  0  0  0  0  0
   73.7766   81.9805   88.6834 N   0  0  0  0  0  0  0  0  0  0  0  0
   73.0200   81.1088   88.7836 C   0  0  0  0  0  0  0  0  0  0  0  0
   62.5165   74.0290   91.8065 C   0  0  0  0  0  0  0  0  0  0  0  0
   62.3151   75.1678   90.9611 O   0  0  0  0  0  0  0  0  0  0  0  0
   63.3331   75.8659   90.2804 C   0  0  0  0  0  0  0  0  0  0  0  0
   63.7017   75.5672   88.9546 C   0  0  0  0  0  0  0  0  0  0  0  0
   64.7441   76.2665   88.3390 C   0  0  0  0  0  0  0  0  0  0  0  0
   65.4273   77.2812   89.0272 C   0  0  0  0  0  0  0  0  0  0  0  0
   66.4922   77.9407   88.4079 O   0  0  0  0  0  0  0  0  0  0  0  0
   65.0515   77.6060   90.3511 C   0  0  0  0  0  0  0  0  0  0  0  0
   64.0090   76.8863   90.9636 C   0  0  0  0  0  0  0  0  0  0  0  0
   66.7340   77.7187   87.5303 H   0  0  0  0  0  0  0  0  0  0  0  0
   65.7379   78.6737   91.1158 C   0  0  0  0  0  0  0  0  0  0  0  0
   66.9401   78.9629   90.8721 O   0  0  0  0  0  0  0  0  0  0  0  0
   65.0527   79.3873   92.0981 O   0  0  0  0  0  0  0  0  0  0  0  0
   64.1585   79.1819   92.2886 H   0  0  0  0  0  0  0  0  0  0  0  0
 20 21  3  0  0  0
 21 14  1  0  0  0
 14 15  2  0  0  0
 15 16  1  0  0  0
 16 17  2  0  0  0
 17 13  1  0  0  0
 13  7  1  0  0  0
  7  8  2  0  0  0
  8  9  1  0  0  0
  9 10  2  0  0  0
 10 11  1  0  0  0
 11  1  1  0  0  0
  1  2  2  0  0  0
  2  3  1  0  0  0
  3  4  2  0  0  0
  4  5  1  0  0  0
  5 22  1  0  0  0
 22 23  1  0  0  0
 23 24  1  0  0  0
 24 25  2  0  0  0
 25 26  1  0  0  0
 26 27  2  0  0  0
 27 28  1  0  0  0
 27 29  1  0  0  0
 29 32  1  0  0  0
 32 33  2  0  0  0
 32 34  1  0  0  0
 29 30  2  0  0  0
  5  6  2  0  0  0
 11 12  2  0  0  0
 17 18  1  0  0  0
 18 19  2  0  0  0
 19 14  1  0  0  0
 12  7  1  0  0  0
  6  1  1  0  0  0
 30 24  1  0  0  0
 28 31  1  0  0  0
 34 35  1  0  0  0
M  END
> <Activity>
18.6

> <minimizedAffinity>
-9.29675

$$$$
HIPS6992


 35 38  0  0  0  0  0  0  0  0999 V2000
   65.6154   76.5516   89.5998 C   0  0  0  0  0  0  0  0  0  0  0  0
   64.3875   77.1764   89.8852 C   0  0  0  0  0  0  0  0  0  0  0  0
   63.4010   76.4969   90.6083 C   0  0  0  0  0  0  0  0  0  0  0  0
   63.6349   75.1966   91.0649 C   0  0  0  0  0  0  0  0  0  0  0  0
   64.8593   74.5626   90.7983 C   0  0  0  0  0  0  0  0  0  0  0  0
   65.8264   75.2307   90.0313 C   0  0  0  0  0  0  0  0  0  0  0  0
   69.0054   78.0826   88.8120 C   0  0  0  0  0  0  0  0  0  0  0  0
   68.7757   78.5992   87.5333 C   0  0  0  0  0  0  0  0  0  0  0  0
   67.5112   78.4902   86.9454 C   0  0  0  0  0  0  0  0  0  0  0  0
   66.4733   77.8391   87.6207 C   0  0  0  0  0  0  0  0  0  0  0  0
   66.6964   77.2812   88.8898 C   0  0  0  0  0  0  0  0  0  0  0  0
   67.9684   77.4089   89.4793 C   0  0  0  0  0  0  0  0  0  0  0  0
   70.2822   78.2118   89.3796 O   0  0  0  0  0  0  0  0  0  0  0  0
   72.9116   81.4551   88.7654 C   0  0  0  0  0  0  0  0  0  0  0  0
   73.4344   80.1617   88.9029 C   0  0  0  0  0  0  0  0  0  0  0  0
   72.5734   79.0707   89.0862 C   0  0  0  0  0  0  0  0  0  0  0  0
   71.1767   79.2671   89.1323 C   0  0  0  0  0  0  0  0  0  0  0  0
   70.6630   80.5625   88.9887 C   0  0  0  0  0  0  0  0  0  0  0  0
   71.5243   81.6534   88.8040 C   0  0  0  0  0  0  0  0  0  0  0  0
   74.5131   83.4865   88.4938 N   0  0  0  0  0  0  0  0  0  0  0  0
   73.7999   82.5817   88.6152 C   0  0  0  0  0  0  0  0  0  0  0  0
   65.1296   73.1729   91.3210 C   0  0  0  0  0  0  0  0  0  0  0  0
   66.5352   72.9317   91.4566 O   0  0  0  0  0  0  0  0  0  0  0  0
   67.4850   73.8787   91.8901 C   0  0  0  0  0  0  0  0  0  0  0  0
   67.3125   74.6460   93.0581 C   0  0  0  0  0  0  0  0  0  0  0  0
   68.2690   75.5983   93.4226 C   0  0  0  0  0  0  0  0  0  0  0  0
   69.4169   75.7935   92.6388 C   0  0  0  0  0  0  0  0  0  0  0  0
   70.3409   76.7777   92.9990 O   0  0  0  0  0  0  0  0  0  0  0  0
   69.6127   75.0132   91.4760 C   0  0  0  0  0  0  0  0  0  0  0  0
   68.6366   74.0668   91.1133 C   0  0  0  0  0  0  0  0  0  0  0  0
   70.2027   77.2899   93.7714 H   0  0  0  0  0  0  0  0  0  0  0  0
   70.8115   75.1777   90.6205 C   0  0  0  0  0  0  0  0  0  0  0  0
   70.7397   74.9907   89.3763 O   0  0  0  0  0  0  0  0  0  0  0  0
   72.0280   75.5651   91.1807 O   0  0  0  0  0  0  0  0  0  0  0  0
   72.0943   75.7072   92.1045 H   0  0  0  0  0  0  0  0  0  0  0  0
 20 21  3  0  0  0
 21 14  1  0  0  0
 14 15  2  0  0  0
 15 16  1  0  0  0
 16 17  2  0  0  0
 17 13  1  0  0  0
 13  7  1  0  0  0
  7  8  2  0  0  0
  8  9  1  0  0  0
  9 10  2  0  0  0
 10 11  1  0  0  0
 11  1  1  0  0  0
  1  2  2  0  0  0
  2  3  1  0  0  0
  3  4  2  0  0  0
  4  5  1  0  0  0
  5 22  1  0  0  0
 22 23  1  0  0  0
 23 24  1  0  0  0
 24 25  2  0  0  0
 25 26  1  0  0  0
 26 27  2  0  0  0
 27 28  1  0  0  0
 27 29  1  0  0  0
 29 32  1  0  0  0
 32 33  2  0  0  0
 32 34  1  0  0  0
 29 30  2  0  0  0
  5  6  2  0  0  0
 11 12  2  0  0  0
 17 18  1  0  0  0
 18 19  2  0  0  0
 19 14  1  0  0  0
 12  7  1  0  0  0
  6  1  1  0  0  0
 30 24  1  0  0  0
 28 31  1  0  0  0
 34 35  1  0  0  0
M  END
> <Activity>
18.6

> <minimizedAffinity>
-9.00096

$$$$
HIPS6992


 35 38  0  0  0  0  0  0  0  0999 V2000
   65.7182   76.0175   89.0327 C   0  0  0  0  0  0  0  0  0  0  0  0
   64.3823   76.1431   88.6096 C   0  0  0  0  0  0  0  0  0  0  0  0
   63.3834   75.3462   89.1796 C   0  0  0  0  0  0  0  0  0  0  0  0
   63.7044   74.4293   90.1847 C   0  0  0  0  0  0  0  0  0  0  0  0
   65.0311   74.2994   90.6266 C   0  0  0  0  0  0  0  0  0  0  0  0
   66.0363   75.0666   90.0177 C   0  0  0  0  0  0  0  0  0  0  0  0
   68.9941   77.9161   88.6854 C   0  0  0  0  0  0  0  0  0  0  0  0
   68.8270   78.5121   87.4318 C   0  0  0  0  0  0  0  0  0  0  0  0
   67.6362   78.3347   86.7197 C   0  0  0  0  0  0  0  0  0  0  0  0
   66.6134   77.5368   87.2437 C   0  0  0  0  0  0  0  0  0  0  0  0
   66.7790   76.9000   88.4842 C   0  0  0  0  0  0  0  0  0  0  0  0
   67.9751   77.0966   89.1999 C   0  0  0  0  0  0  0  0  0  0  0  0
   70.1968   78.1165   89.3800 O   0  0  0  0  0  0  0  0  0  0  0  0
   72.8797   81.3185   88.7806 C   0  0  0  0  0  0  0  0  0  0  0  0
   73.3824   80.0190   88.9350 C   0  0  0  0  0  0  0  0  0  0  0  0
   72.5037   78.9414   89.1137 C   0  0  0  0  0  0  0  0  0  0  0  0
   71.1094   79.1574   89.1381 C   0  0  0  0  0  0  0  0  0  0  0  0
   70.6160   80.4587   88.9776 C   0  0  0  0  0  0  0  0  0  0  0  0
   71.4949   81.5361   88.7976 C   0  0  0  0  0  0  0  0  0  0  0  0
   74.5128   83.3257   88.5179 N   0  0  0  0  0  0  0  0  0  0  0  0
   73.7857   82.4314   88.6352 C   0  0  0  0  0  0  0  0  0  0  0  0
   65.3756   73.3372   91.7369 C   0  0  0  0  0  0  0  0  0  0  0  0
   66.1521   73.9759   92.7574 O   0  0  0  0  0  0  0  0  0  0  0  0
   67.3885   74.6218   92.5544 C   0  0  0  0  0  0  0  0  0  0  0  0
   68.5368   73.9391   92.1093 C   0  0  0  0  0  0  0  0  0  0  0  0
   69.7479   74.6214   91.9599 C   0  0  0  0  0  0  0  0  0  0  0  0
   69.8330   75.9944   92.2386 C   0  0  0  0  0  0  0  0  0  0  0  0
   71.0618   76.6489   92.1211 O   0  0  0  0  0  0  0  0  0  0  0  0
   68.6814   76.6959   92.6644 C   0  0  0  0  0  0  0  0  0  0  0  0
   67.4715   75.9951   92.8227 C   0  0  0  0  0  0  0  0  0  0  0  0
   71.8195   76.1758   91.8382 H   0  0  0  0  0  0  0  0  0  0  0  0
   68.7197   78.1467   92.9637 C   0  0  0  0  0  0  0  0  0  0  0  0
   69.1403   78.5589   94.0779 O   0  0  0  0  0  0  0  0  0  0  0  0
   68.3126   79.0740   92.0054 O   0  0  0  0  0  0  0  0  0  0  0  0
   67.9980   78.7802   91.1732 H   0  0  0  0  0  0  0  0  0  0  0  0
 20 21  3  0  0  0
 21 14  1  0  0  0
 14 15  2  0  0  0
 15 16  1  0  0  0
 16 17  2  0  0  0
 17 13  1  0  0  0
 13  7  1  0  0  0
  7  8  2  0  0  0
  8  9  1  0  0  0
  9 10  2  0  0  0
 10 11  1  0  0  0
 11  1  1  0  0  0
  1  2  2  0  0  0
  2  3  1  0  0  0
  3  4  2  0  0  0
  4  5  1  0  0  0
  5 22  1  0  0  0
 22 23  1  0  0  0
 23 24  1  0  0  0
 24 25  2  0  0  0
 25 26  1  0  0  0
 26 27  2  0  0  0
 27 28  1  0  0  0
 27 29  1  0  0  0
 29 32  1  0  0  0
 32 33  2  0  0  0
 32 34  1  0  0  0
 29 30  2  0  0  0
  5  6  2  0  0  0
 11 12  2  0  0  0
 17 18  1  0  0  0
 18 19  2  0  0  0
 19 14  1  0  0  0
 12  7  1  0  0  0
  6  1  1  0  0  0
 30 24  1  0  0  0
 28 31  1  0  0  0
 34 35  1  0  0  0
M  END
> <Activity>
18.6

> <minimizedAffinity>
-8.82224

$$$$
HIPS6992


 35 38  0  0  0  0  0  0  0  0999 V2000
   71.6254   78.1744   89.6489 C   0  0  0  0  0  0  0  0  0  0  0  0
   73.0174   78.1990   89.4459 C   0  0  0  0  0  0  0  0  0  0  0  0
   73.6120   79.2637   88.7599 C   0  0  0  0  0  0  0  0  0  0  0  0
   72.8277   80.3184   88.2841 C   0  0  0  0  0  0  0  0  0  0  0  0
   71.4382   80.3149   88.4882 C   0  0  0  0  0  0  0  0  0  0  0  0
   70.8414   79.2212   89.1342 C   0  0  0  0  0  0  0  0  0  0  0  0
   69.0711   76.2301   91.6864 C   0  0  0  0  0  0  0  0  0  0  0  0
   69.7337   75.0103   91.8536 C   0  0  0  0  0  0  0  0  0  0  0  0
   71.0245   74.8335   91.3446 C   0  0  0  0  0  0  0  0  0  0  0  0
   71.6523   75.8663   90.6401 C   0  0  0  0  0  0  0  0  0  0  0  0
   70.9869   77.0849   90.4302 C   0  0  0  0  0  0  0  0  0  0  0  0
   69.6939   77.2583   90.9589 C   0  0  0  0  0  0  0  0  0  0  0  0
   67.7792   76.3812   92.2131 O   0  0  0  0  0  0  0  0  0  0  0  0
   64.2555   75.4761   90.0744 C   0  0  0  0  0  0  0  0  0  0  0  0
   65.0009   74.4349   90.6450 C   0  0  0  0  0  0  0  0  0  0  0  0
   66.1622   74.7201   91.3766 C   0  0  0  0  0  0  0  0  0  0  0  0
   66.5872   76.0554   91.5440 C   0  0  0  0  0  0  0  0  0  0  0  0
   65.8329   77.0896   90.9747 C   0  0  0  0  0  0  0  0  0  0  0  0
   64.6707   76.8042   90.2442 C   0  0  0  0  0  0  0  0  0  0  0  0
   62.1394   74.9415   88.6597 N   0  0  0  0  0  0  0  0  0  0  0  0
   63.0821   75.1792   89.2897 C   0  0  0  0  0  0  0  0  0  0  0  0
   70.5929   81.4694   88.0084 C   0  0  0  0  0  0  0  0  0  0  0  0
   69.1960   81.1908   88.1610 O   0  0  0  0  0  0  0  0  0  0  0  0
   68.4676   80.2475   87.4083 C   0  0  0  0  0  0  0  0  0  0  0  0
   67.7833   80.5866   86.2252 C   0  0  0  0  0  0  0  0  0  0  0  0
   67.0450   79.6192   85.5369 C   0  0  0  0  0  0  0  0  0  0  0  0
   66.9858   78.2981   86.0071 C   0  0  0  0  0  0  0  0  0  0  0  0
   66.2102   77.3560   85.3265 O   0  0  0  0  0  0  0  0  0  0  0  0
   67.6872   77.9398   87.1814 C   0  0  0  0  0  0  0  0  0  0  0  0
   68.4165   78.9256   87.8717 C   0  0  0  0  0  0  0  0  0  0  0  0
   65.7489   77.6026   84.5491 H   0  0  0  0  0  0  0  0  0  0  0  0
   67.6609   76.5568   87.7130 C   0  0  0  0  0  0  0  0  0  0  0  0
   66.5710   75.9329   87.8183 O   0  0  0  0  0  0  0  0  0  0  0  0
   68.8463   75.9214   88.0802 O   0  0  0  0  0  0  0  0  0  0  0  0
   69.6631   76.3746   88.0066 H   0  0  0  0  0  0  0  0  0  0  0  0
 20 21  3  0  0  0
 21 14  1  0  0  0
 14 15  2  0  0  0
 15 16  1  0  0  0
 16 17  2  0  0  0
 17 13  1  0  0  0
 13  7  1  0  0  0
  7  8  2  0  0  0
  8  9  1  0  0  0
  9 10  2  0  0  0
 10 11  1  0  0  0
 11  1  1  0  0  0
  1  2  2  0  0  0
  2  3  1  0  0  0
  3  4  2  0  0  0
  4  5  1  0  0  0
  5 22  1  0  0  0
 22 23  1  0  0  0
 23 24  1  0  0  0
 24 25  2  0  0  0
 25 26  1  0  0  0
 26 27  2  0  0  0
 27 28  1  0  0  0
 27 29  1  0  0  0
 29 32  1  0  0  0
 32 33  2  0  0  0
 32 34  1  0  0  0
 29 30  2  0  0  0
  5  6  2  0  0  0
 11 12  2  0  0  0
 17 18  1  0  0  0
 18 19  2  0  0  0
 19 14  1  0  0  0
 12  7  1  0  0  0
  6  1  1  0  0  0
 30 24  1  0  0  0
 28 31  1  0  0  0
 34 35  1  0  0  0
M  END
> <Activity>
18.6

> <minimizedAffinity>
-8.59898

$$$$
HIPS6992


 35 38  0  0  0  0  0  0  0  0999 V2000
   66.1178   73.8433   91.6604 C   0  0  0  0  0  0  0  0  0  0  0  0
   65.9251   72.4750   91.3956 C   0  0  0  0  0  0  0  0  0  0  0  0
   64.6552   71.9931   91.0594 C   0  0  0  0  0  0  0  0  0  0  0  0
   63.5715   72.8715   90.9701 C   0  0  0  0  0  0  0  0  0  0  0  0
   63.7490   74.2420   91.2203 C   0  0  0  0  0  0  0  0  0  0  0  0
   65.0145   74.7121   91.6042 C   0  0  0  0  0  0  0  0  0  0  0  0
   68.9913   76.2864   92.1410 C   0  0  0  0  0  0  0  0  0  0  0  0
   70.0048   75.4264   92.5746 C   0  0  0  0  0  0  0  0  0  0  0  0
   69.7700   74.0507   92.6686 C   0  0  0  0  0  0  0  0  0  0  0  0
   68.5108   73.5272   92.3561 C   0  0  0  0  0  0  0  0  0  0  0  0
   67.4703   74.3807   91.9552 C   0  0  0  0  0  0  0  0  0  0  0  0
   67.7207   75.7619   91.8495 C   0  0  0  0  0  0  0  0  0  0  0  0
   69.2571   77.6612   92.0503 O   0  0  0  0  0  0  0  0  0  0  0  0
   68.4213   80.5205   95.0395 C   0  0  0  0  0  0  0  0  0  0  0  0
   68.2249   80.8555   93.6926 C   0  0  0  0  0  0  0  0  0  0  0  0
   68.4775   79.9102   92.6885 C   0  0  0  0  0  0  0  0  0  0  0  0
   68.9295   78.6170   93.0270 C   0  0  0  0  0  0  0  0  0  0  0  0
   69.1178   78.2895   94.3761 C   0  0  0  0  0  0  0  0  0  0  0  0
   68.8638   79.2346   95.3801 C   0  0  0  0  0  0  0  0  0  0  0  0
   68.0190   82.2972   96.8961 N   0  0  0  0  0  0  0  0  0  0  0  0
   68.1979   81.5055   96.0693 C   0  0  0  0  0  0  0  0  0  0  0  0
   62.5894   75.1988   91.0889 C   0  0  0  0  0  0  0  0  0  0  0  0
   62.8739   76.2350   90.1415 O   0  0  0  0  0  0  0  0  0  0  0  0
   64.1162   76.8847   89.9951 C   0  0  0  0  0  0  0  0  0  0  0  0
   64.5580   77.8852   90.8820 C   0  0  0  0  0  0  0  0  0  0  0  0
   65.7834   78.5237   90.6691 C   0  0  0  0  0  0  0  0  0  0  0  0
   66.5935   78.1690   89.5791 C   0  0  0  0  0  0  0  0  0  0  0  0
   67.7958   78.8468   89.3617 O   0  0  0  0  0  0  0  0  0  0  0  0
   66.1714   77.1499   88.6944 C   0  0  0  0  0  0  0  0  0  0  0  0
   64.9303   76.5237   88.9126 C   0  0  0  0  0  0  0  0  0  0  0  0
   68.0674   79.5207   89.9533 H   0  0  0  0  0  0  0  0  0  0  0  0
   66.9947   76.7356   87.5341 C   0  0  0  0  0  0  0  0  0  0  0  0
   68.1118   76.1789   87.7089 O   0  0  0  0  0  0  0  0  0  0  0  0
   66.5309   76.9359   86.2347 O   0  0  0  0  0  0  0  0  0  0  0  0
   65.7020   77.3486   86.0915 H   0  0  0  0  0  0  0  0  0  0  0  0
 20 21  3  0  0  0
 21 14  1  0  0  0
 14 15  2  0  0  0
 15 16  1  0  0  0
 16 17  2  0  0  0
 17 13  1  0  0  0
 13  7  1  0  0  0
  7  8  2  0  0  0
  8  9  1  0  0  0
  9 10  2  0  0  0
 10 11  1  0  0  0
 11  1  1  0  0  0
  1  2  2  0  0  0
  2  3  1  0  0  0
  3  4  2  0  0  0
  4  5  1  0  0  0
  5 22  1  0  0  0
 22 23  1  0  0  0
 23 24  1  0  0  0
 24 25  2  0  0  0
 25 26  1  0  0  0
 26 27  2  0  0  0
 27 28  1  0  0  0
 27 29  1  0  0  0
 29 32  1  0  0  0
 32 33  2  0  0  0
 32 34  1  0  0  0
 29 30  2  0  0  0
  5  6  2  0  0  0
 11 12  2  0  0  0
 17 18  1  0  0  0
 18 19  2  0  0  0
 19 14  1  0  0  0
 12  7  1  0  0  0
  6  1  1  0  0  0
 30 24  1  0  0  0
 28 31  1  0  0  0
 34 35  1  0  0  0
M  END
> <Activity>
18.6

> <minimizedAffinity>
-8.54040

$$$$
HIPS6992


 35 38  0  0  0  0  0  0  0  0999 V2000
   66.0421   75.3269   90.8300 C   0  0  0  0  0  0  0  0  0  0  0  0
   64.7543   74.8715   91.1672 C   0  0  0  0  0  0  0  0  0  0  0  0
   63.7075   74.9672   90.2437 C   0  0  0  0  0  0  0  0  0  0  0  0
   63.9382   75.5030   88.9734 C   0  0  0  0  0  0  0  0  0  0  0  0
   65.2203   75.9517   88.6168 C   0  0  0  0  0  0  0  0  0  0  0  0
   66.2550   75.8980   89.5636 C   0  0  0  0  0  0  0  0  0  0  0  0
   68.9351   76.1799   93.1451 C   0  0  0  0  0  0  0  0  0  0  0  0
   69.2857   74.9106   93.6151 C   0  0  0  0  0  0  0  0  0  0  0  0
   68.6142   73.7757   93.1487 C   0  0  0  0  0  0  0  0  0  0  0  0
   67.5680   73.9036   92.2287 C   0  0  0  0  0  0  0  0  0  0  0  0
   67.1777   75.1737   91.7746 C   0  0  0  0  0  0  0  0  0  0  0  0
   67.8692   76.3086   92.2387 C   0  0  0  0  0  0  0  0  0  0  0  0
   69.6301   77.3001   93.6258 O   0  0  0  0  0  0  0  0  0  0  0  0
   67.7716   81.0076   94.4069 C   0  0  0  0  0  0  0  0  0  0  0  0
   68.6548   80.4678   95.3522 C   0  0  0  0  0  0  0  0  0  0  0  0
   69.2968   79.2476   95.0988 C   0  0  0  0  0  0  0  0  0  0  0  0
   69.0591   78.5563   93.8917 C   0  0  0  0  0  0  0  0  0  0  0  0
   68.1790   79.1061   92.9506 C   0  0  0  0  0  0  0  0  0  0  0  0
   67.5381   80.3272   93.2037 C   0  0  0  0  0  0  0  0  0  0  0  0
   66.5281   83.2363   94.9084 N   0  0  0  0  0  0  0  0  0  0  0  0
   67.0823   82.2438   94.6849 C   0  0  0  0  0  0  0  0  0  0  0  0
   65.4816   76.4967   87.2340 C   0  0  0  0  0  0  0  0  0  0  0  0
   66.8861   76.5872   86.9667 O   0  0  0  0  0  0  0  0  0  0  0  0
   67.7108   77.6780   87.3088 C   0  0  0  0  0  0  0  0  0  0  0  0
   68.8215   77.5500   88.1647 C   0  0  0  0  0  0  0  0  0  0  0  0
   69.5845   78.6723   88.5008 C   0  0  0  0  0  0  0  0  0  0  0  0
   69.2626   79.9360   87.9816 C   0  0  0  0  0  0  0  0  0  0  0  0
   70.0136   81.0513   88.3614 O   0  0  0  0  0  0  0  0  0  0  0  0
   68.1632   80.0736   87.1030 C   0  0  0  0  0  0  0  0  0  0  0  0
   67.3959   78.9385   86.7825 C   0  0  0  0  0  0  0  0  0  0  0  0
   70.7404   80.9504   88.9441 H   0  0  0  0  0  0  0  0  0  0  0  0
   67.7885   81.3851   86.5239 C   0  0  0  0  0  0  0  0  0  0  0  0
   68.1514   81.6964   85.3579 O   0  0  0  0  0  0  0  0  0  0  0  0
   67.0089   82.2803   87.2551 O   0  0  0  0  0  0  0  0  0  0  0  0
   66.7327   82.0605   88.1230 H   0  0  0  0  0  0  0  0  0  0  0  0
 20 21  3  0  0  0
 21 14  1  0  0  0
 14 15  2  0  0  0
 15 16  1  0  0  0
 16 17  2  0  0  0
 17 13  1  0  0  0
 13  7  1  0  0  0
  7  8  2  0  0  0
  8  9  1  0  0  0
  9 10  2  0  0  0
 10 11  1  0  0  0
 11  1  1  0  0  0
  1  2  2  0  0  0
  2  3  1  0  0  0
  3  4  2  0  0  0
  4  5  1  0  0  0
  5 22  1  0  0  0
 22 23  1  0  0  0
 23 24  1  0  0  0
 24 25  2  0  0  0
 25 26  1  0  0  0
 26 27  2  0  0  0
 27 28  1  0  0  0
 27 29  1  0  0  0
 29 32  1  0  0  0
 32 33  2  0  0  0
 32 34  1  0  0  0
 29 30  2  0  0  0
  5  6  2  0  0  0
 11 12  2  0  0  0
 17 18  1  0  0  0
 18 19  2  0  0  0
 19 14  1  0  0  0
 12  7  1  0  0  0
  6  1  1  0  0  0
 30 24  1  0  0  0
 28 31  1  0  0  0
 34 35  1  0  0  0
M  END
> <Activity>
18.6

> <minimizedAffinity>
-8.48620

$$$$
HIPS6992


 35 38  0  0  0  0  0  0  0  0999 V2000
   66.7681   73.9475   91.7253 C   0  0  0  0  0  0  0  0  0  0  0  0
   67.0844   72.6715   91.2241 C   0  0  0  0  0  0  0  0  0  0  0  0
   66.0686   71.7488   90.9505 C   0  0  0  0  0  0  0  0  0  0  0  0
   64.7305   72.0946   91.1599 C   0  0  0  0  0  0  0  0  0  0  0  0
   64.3969   73.3680   91.6490 C   0  0  0  0  0  0  0  0  0  0  0  0
   65.4222   74.2721   91.9673 C   0  0  0  0  0  0  0  0  0  0  0  0
   69.5901   76.4144   91.0870 C   0  0  0  0  0  0  0  0  0  0  0  0
   69.7944   76.9264   92.3719 C   0  0  0  0  0  0  0  0  0  0  0  0
   69.0489   76.4409   93.4512 C   0  0  0  0  0  0  0  0  0  0  0  0
   68.0734   75.4586   93.2495 C   0  0  0  0  0  0  0  0  0  0  0  0
   67.8287   74.9601   91.9597 C   0  0  0  0  0  0  0  0  0  0  0  0
   68.5943   75.4444   90.8824 C   0  0  0  0  0  0  0  0  0  0  0  0
   70.3568   76.9159   90.0242 O   0  0  0  0  0  0  0  0  0  0  0  0
   69.0590   80.0430   87.5049 C   0  0  0  0  0  0  0  0  0  0  0  0
   69.9381   80.3282   88.5589 C   0  0  0  0  0  0  0  0  0  0  0  0
   70.3955   79.2975   89.3919 C   0  0  0  0  0  0  0  0  0  0  0  0
   69.9752   77.9680   89.1744 C   0  0  0  0  0  0  0  0  0  0  0  0
   69.1008   77.6918   88.1153 C   0  0  0  0  0  0  0  0  0  0  0  0
   68.6445   78.7226   87.2815 C   0  0  0  0  0  0  0  0  0  0  0  0
   68.1580   81.9658   86.0029 N   0  0  0  0  0  0  0  0  0  0  0  0
   68.5589   81.1093   86.6722 C   0  0  0  0  0  0  0  0  0  0  0  0
   62.9518   73.7579   91.8415 C   0  0  0  0  0  0  0  0  0  0  0  0
   62.6288   74.9417   91.1023 O   0  0  0  0  0  0  0  0  0  0  0  0
   63.5526   75.9283   90.7022 C   0  0  0  0  0  0  0  0  0  0  0  0
   63.6485   77.1805   91.3392 C   0  0  0  0  0  0  0  0  0  0  0  0
   64.5576   78.1372   90.8780 C   0  0  0  0  0  0  0  0  0  0  0  0
   65.3934   77.8595   89.7851 C   0  0  0  0  0  0  0  0  0  0  0  0
   66.2668   78.8436   89.3150 O   0  0  0  0  0  0  0  0  0  0  0  0
   65.3225   76.5975   89.1513 C   0  0  0  0  0  0  0  0  0  0  0  0
   64.3947   75.6478   89.6173 C   0  0  0  0  0  0  0  0  0  0  0  0
   66.3069   79.6770   89.7414 H   0  0  0  0  0  0  0  0  0  0  0  0
   66.1888   76.2551   87.9989 C   0  0  0  0  0  0  0  0  0  0  0  0
   67.1722   75.4807   88.1459 O   0  0  0  0  0  0  0  0  0  0  0  0
   65.9107   76.7677   86.7325 O   0  0  0  0  0  0  0  0  0  0  0  0
   65.1824   77.3445   86.6102 H   0  0  0  0  0  0  0  0  0  0  0  0
 20 21  3  0  0  0
 21 14  1  0  0  0
 14 15  2  0  0  0
 15 16  1  0  0  0
 16 17  2  0  0  0
 17 13  1  0  0  0
 13  7  1  0  0  0
  7  8  2  0  0  0
  8  9  1  0  0  0
  9 10  2  0  0  0
 10 11  1  0  0  0
 11  1  1  0  0  0
  1  2  2  0  0  0
  2  3  1  0  0  0
  3  4  2  0  0  0
  4  5  1  0  0  0
  5 22  1  0  0  0
 22 23  1  0  0  0
 23 24  1  0  0  0
 24 25  2  0  0  0
 25 26  1  0  0  0
 26 27  2  0  0  0
 27 28  1  0  0  0
 27 29  1  0  0  0
 29 32  1  0  0  0
 32 33  2  0  0  0
 32 34  1  0  0  0
 29 30  2  0  0  0
  5  6  2  0  0  0
 11 12  2  0  0  0
 17 18  1  0  0  0
 18 19  2  0  0  0
 19 14  1  0  0  0
 12  7  1  0  0  0
  6  1  1  0  0  0
 30 24  1  0  0  0
 28 31  1  0  0  0
 34 35  1  0  0  0
M  END
> <Activity>
18.6

> <minimizedAffinity>
-8.06031

$$$$
HIPS6992


 35 38  0  0  0  0  0  0  0  0999 V2000
   65.9499   74.5911   91.0134 C   0  0  0  0  0  0  0  0  0  0  0  0
   64.7958   73.8889   91.4063 C   0  0  0  0  0  0  0  0  0  0  0  0
   63.6163   73.9963   90.6612 C   0  0  0  0  0  0  0  0  0  0  0  0
   63.5813   74.7913   89.5120 C   0  0  0  0  0  0  0  0  0  0  0  0
   64.7277   75.4899   89.0997 C   0  0  0  0  0  0  0  0  0  0  0  0
   65.8937   75.4169   89.8775 C   0  0  0  0  0  0  0  0  0  0  0  0
   69.1600   75.4450   92.8635 C   0  0  0  0  0  0  0  0  0  0  0  0
   69.6107   74.1707   93.2208 C   0  0  0  0  0  0  0  0  0  0  0  0
   68.8984   73.0340   92.8245 C   0  0  0  0  0  0  0  0  0  0  0  0
   67.7143   73.1640   92.0910 C   0  0  0  0  0  0  0  0  0  0  0  0
   67.2268   74.4376   91.7558 C   0  0  0  0  0  0  0  0  0  0  0  0
   67.9585   75.5748   92.1465 C   0  0  0  0  0  0  0  0  0  0  0  0
   69.8983   76.5672   93.2694 O   0  0  0  0  0  0  0  0  0  0  0  0
   68.1326   80.3074   94.1080 C   0  0  0  0  0  0  0  0  0  0  0  0
   68.8539   79.6463   95.1119 C   0  0  0  0  0  0  0  0  0  0  0  0
   69.4645   78.4132   94.8434 C   0  0  0  0  0  0  0  0  0  0  0  0
   69.3580   77.8310   93.5624 C   0  0  0  0  0  0  0  0  0  0  0  0
   68.6397   78.5016   92.5639 C   0  0  0  0  0  0  0  0  0  0  0  0
   68.0303   79.7355   92.8322 C   0  0  0  0  0  0  0  0  0  0  0  0
   66.9433   82.5614   94.6278 N   0  0  0  0  0  0  0  0  0  0  0  0
   67.4727   81.5573   94.3960 C   0  0  0  0  0  0  0  0  0  0  0  0
   64.7044   76.3198   87.8394 C   0  0  0  0  0  0  0  0  0  0  0  0
   65.9905   76.3457   87.2090 O   0  0  0  0  0  0  0  0  0  0  0  0
   67.0955   77.1040   87.6459 C   0  0  0  0  0  0  0  0  0  0  0  0
   67.2338   78.4762   87.3617 C   0  0  0  0  0  0  0  0  0  0  0  0
   68.3687   79.1726   87.7878 C   0  0  0  0  0  0  0  0  0  0  0  0
   69.3769   78.5190   88.5133 C   0  0  0  0  0  0  0  0  0  0  0  0
   70.5214   79.2236   88.8954 O   0  0  0  0  0  0  0  0  0  0  0  0
   69.2390   77.1466   88.8247 C   0  0  0  0  0  0  0  0  0  0  0  0
   68.0978   76.4541   88.3793 C   0  0  0  0  0  0  0  0  0  0  0  0
   70.6039   80.1329   88.6846 H   0  0  0  0  0  0  0  0  0  0  0  0
   70.2727   76.4149   89.5940 C   0  0  0  0  0  0  0  0  0  0  0  0
   70.4042   75.1683   89.4634 O   0  0  0  0  0  0  0  0  0  0  0  0
   71.1283   77.1023   90.4538 O   0  0  0  0  0  0  0  0  0  0  0  0
   71.0407   78.0292   90.5595 H   0  0  0  0  0  0  0  0  0  0  0  0
 20 21  3  0  0  0
 21 14  1  0  0  0
 14 15  2  0  0  0
 15 16  1  0  0  0
 16 17  2  0  0  0
 17 13  1  0  0  0
 13  7  1  0  0  0
  7  8  2  0  0  0
  8  9  1  0  0  0
  9 10  2  0  0  0
 10 11  1  0  0  0
 11  1  1  0  0  0
  1  2  2  0  0  0
  2  3  1  0  0  0
  3  4  2  0  0  0
  4  5  1  0  0  0
  5 22  1  0  0  0
 22 23  1  0  0  0
 23 24  1  0  0  0
 24 25  2  0  0  0
 25 26  1  0  0  0
 26 27  2  0  0  0
 27 28  1  0  0  0
 27 29  1  0  0  0
 29 32  1  0  0  0
 32 33  2  0  0  0
 32 34  1  0  0  0
 29 30  2  0  0  0
  5  6  2  0  0  0
 11 12  2  0  0  0
 17 18  1  0  0  0
 18 19  2  0  0  0
 19 14  1  0  0  0
 12  7  1  0  0  0
  6  1  1  0  0  0
 30 24  1  0  0  0
 28 31  1  0  0  0
 34 35  1  0  0  0
M  END
> <Activity>
18.6

> <minimizedAffinity>
-7.88829

$$$$
HIPS6992


 35 38  0  0  0  0  0  0  0  0999 V2000
   71.5863   78.0983   89.5018 C   0  0  0  0  0  0  0  0  0  0  0  0
   72.9186   77.8257   89.1415 C   0  0  0  0  0  0  0  0  0  0  0  0
   73.7202   78.8305   88.5886 C   0  0  0  0  0  0  0  0  0  0  0  0
   73.2061   80.1172   88.4039 C   0  0  0  0  0  0  0  0  0  0  0  0
   71.8817   80.4090   88.7686 C   0  0  0  0  0  0  0  0  0  0  0  0
   71.0676   79.3853   89.2776 C   0  0  0  0  0  0  0  0  0  0  0  0
   68.7868   75.5949   90.0956 C   0  0  0  0  0  0  0  0  0  0  0  0
   69.1701   75.0506   91.3251 C   0  0  0  0  0  0  0  0  0  0  0  0
   70.3102   75.5255   91.9818 C   0  0  0  0  0  0  0  0  0  0  0  0
   71.0918   76.5298   91.4007 C   0  0  0  0  0  0  0  0  0  0  0  0
   70.7428   77.0615   90.1487 C   0  0  0  0  0  0  0  0  0  0  0  0
   69.5855   76.5873   89.5026 C   0  0  0  0  0  0  0  0  0  0  0  0
   67.6350   75.1033   89.4625 O   0  0  0  0  0  0  0  0  0  0  0  0
   64.2063   73.8380   91.5727 C   0  0  0  0  0  0  0  0  0  0  0  0
   64.1184   74.9452   90.7175 C   0  0  0  0  0  0  0  0  0  0  0  0
   65.2427   75.3655   89.9930 C   0  0  0  0  0  0  0  0  0  0  0  0
   66.4680   74.6769   90.1191 C   0  0  0  0  0  0  0  0  0  0  0  0
   66.5449   73.5682   90.9720 C   0  0  0  0  0  0  0  0  0  0  0  0
   65.4200   73.1473   91.6955 C   0  0  0  0  0  0  0  0  0  0  0  0
   62.1386   73.1025   92.9688 N   0  0  0  0  0  0  0  0  0  0  0  0
   63.0596   73.4297   92.3467 C   0  0  0  0  0  0  0  0  0  0  0  0
   71.3346   81.8059   88.6049 C   0  0  0  0  0  0  0  0  0  0  0  0
   69.9022   81.8099   88.6248 O   0  0  0  0  0  0  0  0  0  0  0  0
   69.0742   81.0952   87.7357 C   0  0  0  0  0  0  0  0  0  0  0  0
   68.9147   81.4632   86.3859 C   0  0  0  0  0  0  0  0  0  0  0  0
   68.0518   80.7408   85.5564 C   0  0  0  0  0  0  0  0  0  0  0  0
   67.3442   79.6348   86.0524 C   0  0  0  0  0  0  0  0  0  0  0  0
   66.4567   78.9508   85.2176 O   0  0  0  0  0  0  0  0  0  0  0  0
   67.5132   79.2414   87.4000 C   0  0  0  0  0  0  0  0  0  0  0  0
   68.3751   79.9843   88.2278 C   0  0  0  0  0  0  0  0  0  0  0  0
   66.3513   79.2187   84.3259 H   0  0  0  0  0  0  0  0  0  0  0  0
   66.7937   78.0769   87.9674 C   0  0  0  0  0  0  0  0  0  0  0  0
   66.2666   78.1456   89.1101 O   0  0  0  0  0  0  0  0  0  0  0  0
   66.6712   76.8987   87.2321 O   0  0  0  0  0  0  0  0  0  0  0  0
   67.0586   76.8351   86.3813 H   0  0  0  0  0  0  0  0  0  0  0  0
 20 21  3  0  0  0
 21 14  1  0  0  0
 14 15  2  0  0  0
 15 16  1  0  0  0
 16 17  2  0  0  0
 17 13  1  0  0  0
 13  7  1  0  0  0
  7  8  2  0  0  0
  8  9  1  0  0  0
  9 10  2  0  0  0
 10 11  1  0  0  0
 11  1  1  0  0  0
  1  2  2  0  0  0
  2  3  1  0  0  0
  3  4  2  0  0  0
  4  5  1  0  0  0
  5 22  1  0  0  0
 22 23  1  0  0  0
 23 24  1  0  0  0
 24 25  2  0  0  0
 25 26  1  0  0  0
 26 27  2  0  0  0
 27 28  1  0  0  0
 27 29  1  0  0  0
 29 32  1  0  0  0
 32 33  2  0  0  0
 32 34  1  0  0  0
 29 30  2  0  0  0
  5  6  2  0  0  0
 11 12  2  0  0  0
 17 18  1  0  0  0
 18 19  2  0  0  0
 19 14  1  0  0  0
 12  7  1  0  0  0
  6  1  1  0  0  0
 30 24  1  0  0  0
 28 31  1  0  0  0
 34 35  1  0  0  0
M  END
> <Activity>
18.6

> <minimizedAffinity>
-7.88293

$$$$
HIPS7001


 36 39  0  0  0  0  0  0  0  0999 V2000
   69.3382   76.5001   89.9244 C   0  0  0  0  0  0  0  0  0  0  0  0
   70.7070   76.3899   90.2216 C   0  0  0  0  0  0  0  0  0  0  0  0
   71.1507   75.4753   91.1777 C   0  0  0  0  0  0  0  0  0  0  0  0
   70.2383   74.6681   91.8571 C   0  0  0  0  0  0  0  0  0  0  0  0
   68.8615   74.7532   91.5700 C   0  0  0  0  0  0  0  0  0  0  0  0
   68.4245   75.6665   90.5961 C   0  0  0  0  0  0  0  0  0  0  0  0
   69.0864   79.7042   87.8949 C   0  0  0  0  0  0  0  0  0  0  0  0
   68.0110   79.3935   87.0422 C   0  0  0  0  0  0  0  0  0  0  0  0
   67.3684   78.1584   87.1430 C   0  0  0  0  0  0  0  0  0  0  0  0
   67.7862   77.2245   88.0926 C   0  0  0  0  0  0  0  0  0  0  0  0
   68.8576   77.5166   88.9551 C   0  0  0  0  0  0  0  0  0  0  0  0
   69.4942   78.7690   88.8549 C   0  0  0  0  0  0  0  0  0  0  0  0
   69.7759   80.9248   87.8194 O   0  0  0  0  0  0  0  0  0  0  0  0
   70.5584   81.4869   88.8743 C   0  0  0  0  0  0  0  0  0  0  0  0
   74.4361   79.6050   88.8136 C   0  0  0  0  0  0  0  0  0  0  0  0
   74.3406   81.0039   88.8226 C   0  0  0  0  0  0  0  0  0  0  0  0
   73.0848   81.6176   88.8650 C   0  0  0  0  0  0  0  0  0  0  0  0
   71.9149   80.8392   88.9054 C   0  0  0  0  0  0  0  0  0  0  0  0
   72.0176   79.4389   88.8910 C   0  0  0  0  0  0  0  0  0  0  0  0
   73.2734   78.8254   88.8536 C   0  0  0  0  0  0  0  0  0  0  0  0
   76.7632   78.4577   88.7313 N   0  0  0  0  0  0  0  0  0  0  0  0
   75.7260   78.9700   88.7667 C   0  0  0  0  0  0  0  0  0  0  0  0
   67.8251   73.9146   92.2845 C   0  0  0  0  0  0  0  0  0  0  0  0
   66.8591   73.3396   91.4015 O   0  0  0  0  0  0  0  0  0  0  0  0
   65.5202   73.7480   91.2707 C   0  0  0  0  0  0  0  0  0  0  0  0
   64.5206   72.7930   91.4719 C   0  0  0  0  0  0  0  0  0  0  0  0
   63.1757   73.1309   91.3218 C   0  0  0  0  0  0  0  0  0  0  0  0
   62.8028   74.4313   90.9670 C   0  0  0  0  0  0  0  0  0  0  0  0
   61.4496   74.6852   90.7368 O   0  0  0  0  0  0  0  0  0  0  0  0
   63.7983   75.4273   90.8160 C   0  0  0  0  0  0  0  0  0  0  0  0
   65.1526   75.0670   90.9426 C   0  0  0  0  0  0  0  0  0  0  0  0
   60.8192   74.0008   90.8470 H   0  0  0  0  0  0  0  0  0  0  0  0
   63.4576   76.8463   90.5793 C   0  0  0  0  0  0  0  0  0  0  0  0
   63.6188   77.6946   91.4952 O   0  0  0  0  0  0  0  0  0  0  0  0
   62.9028   77.2457   89.3674 O   0  0  0  0  0  0  0  0  0  0  0  0
   62.7792   76.6208   88.6801 H   0  0  0  0  0  0  0  0  0  0  0  0
 21 22  3  0  0  0
 22 15  1  0  0  0
 15 16  2  0  0  0
 16 17  1  0  0  0
 17 18  2  0  0  0
 18 14  1  0  0  0
 14 13  1  0  0  0
 13  7  1  0  0  0
  7  8  2  0  0  0
  8  9  1  0  0  0
  9 10  2  0  0  0
 10 11  1  0  0  0
 11  1  1  0  0  0
  1  2  2  0  0  0
  2  3  1  0  0  0
  3  4  2  0  0  0
  4  5  1  0  0  0
  5 23  1  0  0  0
 23 24  1  0  0  0
 24 25  1  0  0  0
 25 26  2  0  0  0
 26 27  1  0  0  0
 27 28  2  0  0  0
 28 29  1  0  0  0
 28 30  1  0  0  0
 30 33  1  0  0  0
 33 34  2  0  0  0
 33 35  1  0  0  0
 30 31  2  0  0  0
  5  6  2  0  0  0
 11 12  2  0  0  0
 18 19  1  0  0  0
 19 20  2  0  0  0
 20 15  1  0  0  0
 12  7  1  0  0  0
  6  1  1  0  0  0
 31 25  1  0  0  0
 29 32  1  0  0  0
 35 36  1  0  0  0
M  END
> <Activity>
23.7

> <minimizedAffinity>
-11.12944

$$$$
HIPS7001


 36 39  0  0  0  0  0  0  0  0999 V2000
   69.2947   76.5738   89.9878 C   0  0  0  0  0  0  0  0  0  0  0  0
   70.6395   76.5565   90.3946 C   0  0  0  0  0  0  0  0  0  0  0  0
   71.0704   75.6570   91.3707 C   0  0  0  0  0  0  0  0  0  0  0  0
   70.1680   74.7725   91.9612 C   0  0  0  0  0  0  0  0  0  0  0  0
   68.8162   74.7640   91.5635 C   0  0  0  0  0  0  0  0  0  0  0  0
   68.3935   75.6631   90.5702 C   0  0  0  0  0  0  0  0  0  0  0  0
   69.0649   79.7346   87.8888 C   0  0  0  0  0  0  0  0  0  0  0  0
   67.9859   79.4137   87.0446 C   0  0  0  0  0  0  0  0  0  0  0  0
   67.3338   78.1861   87.1733 C   0  0  0  0  0  0  0  0  0  0  0  0
   67.7457   77.2701   88.1426 C   0  0  0  0  0  0  0  0  0  0  0  0
   68.8206   77.5726   88.9970 C   0  0  0  0  0  0  0  0  0  0  0  0
   69.4668   78.8175   88.8686 C   0  0  0  0  0  0  0  0  0  0  0  0
   69.7637   80.9478   87.7857 O   0  0  0  0  0  0  0  0  0  0  0  0
   70.5432   81.5323   88.8307 C   0  0  0  0  0  0  0  0  0  0  0  0
   74.4277   79.6637   88.8112 C   0  0  0  0  0  0  0  0  0  0  0  0
   74.3273   81.0623   88.8250 C   0  0  0  0  0  0  0  0  0  0  0  0
   73.0690   81.6715   88.8540 C   0  0  0  0  0  0  0  0  0  0  0  0
   71.9013   80.8890   88.8762 C   0  0  0  0  0  0  0  0  0  0  0  0
   72.0090   79.4891   88.8572 C   0  0  0  0  0  0  0  0  0  0  0  0
   73.2673   78.8801   88.8331 C   0  0  0  0  0  0  0  0  0  0  0  0
   76.7607   78.5272   88.7487 N   0  0  0  0  0  0  0  0  0  0  0  0
   75.7203   79.0333   88.7780 C   0  0  0  0  0  0  0  0  0  0  0  0
   67.7900   73.8387   92.1783 C   0  0  0  0  0  0  0  0  0  0  0  0
   66.8266   73.3602   91.2369 O   0  0  0  0  0  0  0  0  0  0  0  0
   65.5104   73.8338   91.0960 C   0  0  0  0  0  0  0  0  0  0  0  0
   65.2391   74.7145   90.0460 C   0  0  0  0  0  0  0  0  0  0  0  0
   63.9601   75.2445   89.8767 C   0  0  0  0  0  0  0  0  0  0  0  0
   62.9257   74.9046   90.7546 C   0  0  0  0  0  0  0  0  0  0  0  0
   61.6938   75.5407   90.5933 O   0  0  0  0  0  0  0  0  0  0  0  0
   63.1668   73.9685   91.7896 C   0  0  0  0  0  0  0  0  0  0  0  0
   64.4679   73.4627   91.9667 C   0  0  0  0  0  0  0  0  0  0  0  0
   61.5713   76.1548   89.8962 H   0  0  0  0  0  0  0  0  0  0  0  0
   62.0825   73.4658   92.6599 C   0  0  0  0  0  0  0  0  0  0  0  0
   60.8797   73.6774   92.3547 O   0  0  0  0  0  0  0  0  0  0  0  0
   62.3805   72.8085   93.8495 O   0  0  0  0  0  0  0  0  0  0  0  0
   63.2731   72.6468   94.0845 H   0  0  0  0  0  0  0  0  0  0  0  0
 21 22  3  0  0  0
 22 15  1  0  0  0
 15 16  2  0  0  0
 16 17  1  0  0  0
 17 18  2  0  0  0
 18 14  1  0  0  0
 14 13  1  0  0  0
 13  7  1  0  0  0
  7  8  2  0  0  0
  8  9  1  0  0  0
  9 10  2  0  0  0
 10 11  1  0  0  0
 11  1  1  0  0  0
  1  2  2  0  0  0
  2  3  1  0  0  0
  3  4  2  0  0  0
  4  5  1  0  0  0
  5 23  1  0  0  0
 23 24  1  0  0  0
 24 25  1  0  0  0
 25 26  2  0  0  0
 26 27  1  0  0  0
 27 28  2  0  0  0
 28 29  1  0  0  0
 28 30  1  0  0  0
 30 33  1  0  0  0
 33 34  2  0  0  0
 33 35  1  0  0  0
 30 31  2  0  0  0
  5  6  2  0  0  0
 11 12  2  0  0  0
 18 19  1  0  0  0
 19 20  2  0  0  0
 20 15  1  0  0  0
 12  7  1  0  0  0
  6  1  1  0  0  0
 31 25  1  0  0  0
 29 32  1  0  0  0
 35 36  1  0  0  0
M  END
> <Activity>
23.7

> <minimizedAffinity>
-10.26199

$$$$
HIPS7001


 36 39  0  0  0  0  0  0  0  0999 V2000
   66.4544   76.5735   90.9606 C   0  0  0  0  0  0  0  0  0  0  0  0
   65.1634   76.1834   91.3548 C   0  0  0  0  0  0  0  0  0  0  0  0
   64.2213   75.7942   90.4015 C   0  0  0  0  0  0  0  0  0  0  0  0
   64.5480   75.7991   89.0455 C   0  0  0  0  0  0  0  0  0  0  0  0
   65.8389   76.1771   88.6258 C   0  0  0  0  0  0  0  0  0  0  0  0
   66.7857   76.5539   89.5928 C   0  0  0  0  0  0  0  0  0  0  0  0
   68.2616   78.7990   93.4566 C   0  0  0  0  0  0  0  0  0  0  0  0
   69.2327   77.9084   93.9504 C   0  0  0  0  0  0  0  0  0  0  0  0
   69.3036   76.6033   93.4601 C   0  0  0  0  0  0  0  0  0  0  0  0
   68.4136   76.1741   92.4741 C   0  0  0  0  0  0  0  0  0  0  0  0
   67.4372   77.0492   91.9664 C   0  0  0  0  0  0  0  0  0  0  0  0
   67.3786   78.3678   92.4581 C   0  0  0  0  0  0  0  0  0  0  0  0
   68.1389   80.1145   93.9312 O   0  0  0  0  0  0  0  0  0  0  0  0
   68.6806   80.5913   95.1643 C   0  0  0  0  0  0  0  0  0  0  0  0
   65.8672   83.3505   96.9117 C   0  0  0  0  0  0  0  0  0  0  0  0
   66.6204   82.5057   97.7395 C   0  0  0  0  0  0  0  0  0  0  0  0
   67.5500   81.6253   97.1774 C   0  0  0  0  0  0  0  0  0  0  0  0
   67.7397   81.5863   95.7850 C   0  0  0  0  0  0  0  0  0  0  0  0
   66.9786   82.4314   94.9616 C   0  0  0  0  0  0  0  0  0  0  0  0
   66.0525   83.3152   95.5241 C   0  0  0  0  0  0  0  0  0  0  0  0
   64.1340   84.9833   97.9453 N   0  0  0  0  0  0  0  0  0  0  0  0
   64.9075   84.2553   97.4858 C   0  0  0  0  0  0  0  0  0  0  0  0
   66.2453   76.2159   87.1695 C   0  0  0  0  0  0  0  0  0  0  0  0
   67.6128   76.5844   86.9756 O   0  0  0  0  0  0  0  0  0  0  0  0
   68.1861   77.8221   87.3158 C   0  0  0  0  0  0  0  0  0  0  0  0
   69.2609   77.8239   88.2083 C   0  0  0  0  0  0  0  0  0  0  0  0
   69.8481   79.0238   88.6097 C   0  0  0  0  0  0  0  0  0  0  0  0
   69.3721   80.2469   88.1267 C   0  0  0  0  0  0  0  0  0  0  0  0
   69.9353   81.4172   88.6382 O   0  0  0  0  0  0  0  0  0  0  0  0
   68.3219   80.2622   87.1767 C   0  0  0  0  0  0  0  0  0  0  0  0
   67.7197   79.0471   86.8014 C   0  0  0  0  0  0  0  0  0  0  0  0
   70.6293   81.3678   89.2658 H   0  0  0  0  0  0  0  0  0  0  0  0
   67.8708   81.5114   86.5272 C   0  0  0  0  0  0  0  0  0  0  0  0
   68.1615   81.7365   85.3233 O   0  0  0  0  0  0  0  0  0  0  0  0
   67.1746   82.4724   87.2538 O   0  0  0  0  0  0  0  0  0  0  0  0
   66.9541   82.3131   88.1504 H   0  0  0  0  0  0  0  0  0  0  0  0
 21 22  3  0  0  0
 22 15  1  0  0  0
 15 16  2  0  0  0
 16 17  1  0  0  0
 17 18  2  0  0  0
 18 14  1  0  0  0
 14 13  1  0  0  0
 13  7  1  0  0  0
  7  8  2  0  0  0
  8  9  1  0  0  0
  9 10  2  0  0  0
 10 11  1  0  0  0
 11  1  1  0  0  0
  1  2  2  0  0  0
  2  3  1  0  0  0
  3  4  2  0  0  0
  4  5  1  0  0  0
  5 23  1  0  0  0
 23 24  1  0  0  0
 24 25  1  0  0  0
 25 26  2  0  0  0
 26 27  1  0  0  0
 27 28  2  0  0  0
 28 29  1  0  0  0
 28 30  1  0  0  0
 30 33  1  0  0  0
 33 34  2  0  0  0
 33 35  1  0  0  0
 30 31  2  0  0  0
  5  6  2  0  0  0
 11 12  2  0  0  0
 18 19  1  0  0  0
 19 20  2  0  0  0
 20 15  1  0  0  0
 12  7  1  0  0  0
  6  1  1  0  0  0
 31 25  1  0  0  0
 29 32  1  0  0  0
 35 36  1  0  0  0
M  END
> <Activity>
23.7

> <minimizedAffinity>
-10.17149

$$$$
HIPS7001


 36 39  0  0  0  0  0  0  0  0999 V2000
   66.5641   73.9782   91.4036 C   0  0  0  0  0  0  0  0  0  0  0  0
   66.3478   72.5966   91.2674 C   0  0  0  0  0  0  0  0  0  0  0  0
   65.0506   72.0913   91.1684 C   0  0  0  0  0  0  0  0  0  0  0  0
   63.9540   72.9519   91.2149 C   0  0  0  0  0  0  0  0  0  0  0  0
   64.1453   74.3422   91.3415 C   0  0  0  0  0  0  0  0  0  0  0  0
   65.4548   74.8440   91.4263 C   0  0  0  0  0  0  0  0  0  0  0  0
   69.6336   76.1949   91.0665 C   0  0  0  0  0  0  0  0  0  0  0  0
   70.5059   75.5802   91.9836 C   0  0  0  0  0  0  0  0  0  0  0  0
   70.0988   74.4466   92.6893 C   0  0  0  0  0  0  0  0  0  0  0  0
   68.8248   73.9133   92.4872 C   0  0  0  0  0  0  0  0  0  0  0  0
   67.9390   74.5118   91.5739 C   0  0  0  0  0  0  0  0  0  0  0  0
   68.3605   75.6489   90.8575 C   0  0  0  0  0  0  0  0  0  0  0  0
   69.9903   77.3467   90.3474 O   0  0  0  0  0  0  0  0  0  0  0  0
   70.7994   77.3559   89.1698 C   0  0  0  0  0  0  0  0  0  0  0  0
   73.0615   81.0076   88.8094 C   0  0  0  0  0  0  0  0  0  0  0  0
   71.6603   81.0497   88.7756 C   0  0  0  0  0  0  0  0  0  0  0  0
   70.9230   79.8698   88.9147 C   0  0  0  0  0  0  0  0  0  0  0  0
   71.5787   78.6395   89.0954 C   0  0  0  0  0  0  0  0  0  0  0  0
   72.9821   78.6039   89.1233 C   0  0  0  0  0  0  0  0  0  0  0  0
   73.7192   79.7844   88.9890 C   0  0  0  0  0  0  0  0  0  0  0  0
   74.4363   83.1939   88.5485 N   0  0  0  0  0  0  0  0  0  0  0  0
   73.8236   82.2188   88.6633 C   0  0  0  0  0  0  0  0  0  0  0  0
   62.9950   75.3216   91.4123 C   0  0  0  0  0  0  0  0  0  0  0  0
   63.1155   76.4008   90.4827 O   0  0  0  0  0  0  0  0  0  0  0  0
   64.3197   76.9933   90.0637 C   0  0  0  0  0  0  0  0  0  0  0  0
   64.8829   77.9799   90.8768 C   0  0  0  0  0  0  0  0  0  0  0  0
   66.0580   78.6278   90.4961 C   0  0  0  0  0  0  0  0  0  0  0  0
   66.6941   78.3022   89.2939 C   0  0  0  0  0  0  0  0  0  0  0  0
   67.8113   79.0509   88.9200 O   0  0  0  0  0  0  0  0  0  0  0  0
   66.1705   77.2645   88.4848 C   0  0  0  0  0  0  0  0  0  0  0  0
   64.9694   76.6381   88.8661 C   0  0  0  0  0  0  0  0  0  0  0  0
   68.1293   79.7302   89.4816 H   0  0  0  0  0  0  0  0  0  0  0  0
   66.8732   76.7821   87.2768 C   0  0  0  0  0  0  0  0  0  0  0  0
   68.0036   76.2379   87.3800 O   0  0  0  0  0  0  0  0  0  0  0  0
   66.3211   76.9775   86.0146 O   0  0  0  0  0  0  0  0  0  0  0  0
   65.4802   77.3819   85.9286 H   0  0  0  0  0  0  0  0  0  0  0  0
 21 22  3  0  0  0
 22 15  1  0  0  0
 15 16  2  0  0  0
 16 17  1  0  0  0
 17 18  2  0  0  0
 18 14  1  0  0  0
 14 13  1  0  0  0
 13  7  1  0  0  0
  7  8  2  0  0  0
  8  9  1  0  0  0
  9 10  2  0  0  0
 10 11  1  0  0  0
 11  1  1  0  0  0
  1  2  2  0  0  0
  2  3  1  0  0  0
  3  4  2  0  0  0
  4  5  1  0  0  0
  5 23  1  0  0  0
 23 24  1  0  0  0
 24 25  1  0  0  0
 25 26  2  0  0  0
 26 27  1  0  0  0
 27 28  2  0  0  0
 28 29  1  0  0  0
 28 30  1  0  0  0
 30 33  1  0  0  0
 33 34  2  0  0  0
 33 35  1  0  0  0
 30 31  2  0  0  0
  5  6  2  0  0  0
 11 12  2  0  0  0
 18 19  1  0  0  0
 19 20  2  0  0  0
 20 15  1  0  0  0
 12  7  1  0  0  0
  6  1  1  0  0  0
 31 25  1  0  0  0
 29 32  1  0  0  0
 35 36  1  0  0  0
M  END
> <Activity>
23.7

> <minimizedAffinity>
-9.99412

$$$$
HIPS7001


 36 39  0  0  0  0  0  0  0  0999 V2000
   68.1399   76.8837   90.2466 C   0  0  0  0  0  0  0  0  0  0  0  0
   69.0182   77.1705   91.3051 C   0  0  0  0  0  0  0  0  0  0  0  0
   69.0383   76.3644   92.4442 C   0  0  0  0  0  0  0  0  0  0  0  0
   68.1781   75.2714   92.5489 C   0  0  0  0  0  0  0  0  0  0  0  0
   67.2948   74.9577   91.4969 C   0  0  0  0  0  0  0  0  0  0  0  0
   67.2908   75.7658   90.3477 C   0  0  0  0  0  0  0  0  0  0  0  0
   68.8743   79.7276   87.8338 C   0  0  0  0  0  0  0  0  0  0  0  0
   68.0140   79.4005   86.7695 C   0  0  0  0  0  0  0  0  0  0  0  0
   67.1940   78.2736   86.8495 C   0  0  0  0  0  0  0  0  0  0  0  0
   67.2197   77.4656   87.9875 C   0  0  0  0  0  0  0  0  0  0  0  0
   68.0711   77.7765   89.0624 C   0  0  0  0  0  0  0  0  0  0  0  0
   68.8876   78.9211   88.9791 C   0  0  0  0  0  0  0  0  0  0  0  0
   69.7307   80.8393   87.7923 O   0  0  0  0  0  0  0  0  0  0  0  0
   70.4874   81.3287   88.9011 C   0  0  0  0  0  0  0  0  0  0  0  0
   74.3466   79.4093   88.8341 C   0  0  0  0  0  0  0  0  0  0  0  0
   74.2647   80.8091   88.8507 C   0  0  0  0  0  0  0  0  0  0  0  0
   73.0149   81.4347   88.8951 C   0  0  0  0  0  0  0  0  0  0  0  0
   71.8374   80.6676   88.9300 C   0  0  0  0  0  0  0  0  0  0  0  0
   71.9265   79.2665   88.9081 C   0  0  0  0  0  0  0  0  0  0  0  0
   73.1763   78.6410   88.8686 C   0  0  0  0  0  0  0  0  0  0  0  0
   76.6642   78.2437   88.7448 N   0  0  0  0  0  0  0  0  0  0  0  0
   75.6303   78.7621   88.7852 C   0  0  0  0  0  0  0  0  0  0  0  0
   66.3298   73.7949   91.5604 C   0  0  0  0  0  0  0  0  0  0  0  0
   64.9692   74.2000   91.7283 O   0  0  0  0  0  0  0  0  0  0  0  0
   64.1792   74.8457   90.7611 C   0  0  0  0  0  0  0  0  0  0  0  0
   64.3252   76.2270   90.6106 C   0  0  0  0  0  0  0  0  0  0  0  0
   63.5439   76.9272   89.6916 C   0  0  0  0  0  0  0  0  0  0  0  0
   62.6000   76.2603   88.9041 C   0  0  0  0  0  0  0  0  0  0  0  0
   61.7809   77.0266   88.0732 O   0  0  0  0  0  0  0  0  0  0  0  0
   62.4784   74.8526   89.0007 C   0  0  0  0  0  0  0  0  0  0  0  0
   63.2524   74.1617   89.9512 C   0  0  0  0  0  0  0  0  0  0  0  0
   61.8907   77.9564   88.0354 H   0  0  0  0  0  0  0  0  0  0  0  0
   61.6000   74.0781   88.0983 C   0  0  0  0  0  0  0  0  0  0  0  0
   60.3748   74.3560   88.0194 O   0  0  0  0  0  0  0  0  0  0  0  0
   62.1048   73.0014   87.3757 O   0  0  0  0  0  0  0  0  0  0  0  0
   63.0155   72.7874   87.4286 H   0  0  0  0  0  0  0  0  0  0  0  0
 21 22  3  0  0  0
 22 15  1  0  0  0
 15 16  2  0  0  0
 16 17  1  0  0  0
 17 18  2  0  0  0
 18 14  1  0  0  0
 14 13  1  0  0  0
 13  7  1  0  0  0
  7  8  2  0  0  0
  8  9  1  0  0  0
  9 10  2  0  0  0
 10 11  1  0  0  0
 11  1  1  0  0  0
  1  2  2  0  0  0
  2  3  1  0  0  0
  3  4  2  0  0  0
  4  5  1  0  0  0
  5 23  1  0  0  0
 23 24  1  0  0  0
 24 25  1  0  0  0
 25 26  2  0  0  0
 26 27  1  0  0  0
 27 28  2  0  0  0
 28 29  1  0  0  0
 28 30  1  0  0  0
 30 33  1  0  0  0
 33 34  2  0  0  0
 33 35  1  0  0  0
 30 31  2  0  0  0
  5  6  2  0  0  0
 11 12  2  0  0  0
 18 19  1  0  0  0
 19 20  2  0  0  0
 20 15  1  0  0  0
 12  7  1  0  0  0
  6  1  1  0  0  0
 31 25  1  0  0  0
 29 32  1  0  0  0
 35 36  1  0  0  0
M  END
> <Activity>
23.7

> <minimizedAffinity>
-9.98018

$$$$
HIPS7001


 36 39  0  0  0  0  0  0  0  0999 V2000
   68.5918   75.8108   90.6928 C   0  0  0  0  0  0  0  0  0  0  0  0
   69.6114   75.5418   91.6213 C   0  0  0  0  0  0  0  0  0  0  0  0
   69.4696   74.5057   92.5455 C   0  0  0  0  0  0  0  0  0  0  0  0
   68.3087   73.7328   92.5645 C   0  0  0  0  0  0  0  0  0  0  0  0
   67.2760   73.9768   91.6374 C   0  0  0  0  0  0  0  0  0  0  0  0
   67.4327   75.0125   90.7012 C   0  0  0  0  0  0  0  0  0  0  0  0
   69.9219   78.9176   88.9527 C   0  0  0  0  0  0  0  0  0  0  0  0
   68.9967   79.0482   87.9007 C   0  0  0  0  0  0  0  0  0  0  0  0
   67.9436   78.1406   87.7742 C   0  0  0  0  0  0  0  0  0  0  0  0
   67.7996   77.0993   88.6925 C   0  0  0  0  0  0  0  0  0  0  0  0
   68.7125   76.9527   89.7517 C   0  0  0  0  0  0  0  0  0  0  0  0
   69.7662   77.8786   89.8794 C   0  0  0  0  0  0  0  0  0  0  0  0
   71.0074   79.7937   89.1109 O   0  0  0  0  0  0  0  0  0  0  0  0
   72.3816   79.4203   88.9943 C   0  0  0  0  0  0  0  0  0  0  0  0
   74.8302   82.9263   88.4517 C   0  0  0  0  0  0  0  0  0  0  0  0
   73.4508   83.0654   88.6618 C   0  0  0  0  0  0  0  0  0  0  0  0
   72.6571   81.9315   88.8605 C   0  0  0  0  0  0  0  0  0  0  0  0
   73.2355   80.6502   88.8577 C   0  0  0  0  0  0  0  0  0  0  0  0
   74.6166   80.5177   88.6417 C   0  0  0  0  0  0  0  0  0  0  0  0
   75.4109   81.6519   88.4479 C   0  0  0  0  0  0  0  0  0  0  0  0
   76.3106   85.0250   88.0750 N   0  0  0  0  0  0  0  0  0  0  0  0
   75.6495   84.0902   88.2436 C   0  0  0  0  0  0  0  0  0  0  0  0
   65.9896   73.1817   91.6201 C   0  0  0  0  0  0  0  0  0  0  0  0
   64.8288   73.9826   91.8538 O   0  0  0  0  0  0  0  0  0  0  0  0
   64.1054   74.6858   90.8747 C   0  0  0  0  0  0  0  0  0  0  0  0
   64.3028   76.0655   90.7780 C   0  0  0  0  0  0  0  0  0  0  0  0
   63.5876   76.8214   89.8493 C   0  0  0  0  0  0  0  0  0  0  0  0
   62.6598   76.2129   88.9980 C   0  0  0  0  0  0  0  0  0  0  0  0
   61.9050   77.0331   88.1578 O   0  0  0  0  0  0  0  0  0  0  0  0
   62.4884   74.8077   89.0410 C   0  0  0  0  0  0  0  0  0  0  0  0
   63.1951   74.0603   90.0013 C   0  0  0  0  0  0  0  0  0  0  0  0
   62.0465   77.9594   88.1566 H   0  0  0  0  0  0  0  0  0  0  0  0
   61.6277   74.0931   88.0743 C   0  0  0  0  0  0  0  0  0  0  0  0
   60.3927   74.3327   88.0326 O   0  0  0  0  0  0  0  0  0  0  0  0
   62.1621   73.1109   87.2462 O   0  0  0  0  0  0  0  0  0  0  0  0
   63.0804   72.9261   87.2707 H   0  0  0  0  0  0  0  0  0  0  0  0
 21 22  3  0  0  0
 22 15  1  0  0  0
 15 16  2  0  0  0
 16 17  1  0  0  0
 17 18  2  0  0  0
 18 14  1  0  0  0
 14 13  1  0  0  0
 13  7  1  0  0  0
  7  8  2  0  0  0
  8  9  1  0  0  0
  9 10  2  0  0  0
 10 11  1  0  0  0
 11  1  1  0  0  0
  1  2  2  0  0  0
  2  3  1  0  0  0
  3  4  2  0  0  0
  4  5  1  0  0  0
  5 23  1  0  0  0
 23 24  1  0  0  0
 24 25  1  0  0  0
 25 26  2  0  0  0
 26 27  1  0  0  0
 27 28  2  0  0  0
 28 29  1  0  0  0
 28 30  1  0  0  0
 30 33  1  0  0  0
 33 34  2  0  0  0
 33 35  1  0  0  0
 30 31  2  0  0  0
  5  6  2  0  0  0
 11 12  2  0  0  0
 18 19  1  0  0  0
 19 20  2  0  0  0
 20 15  1  0  0  0
 12  7  1  0  0  0
  6  1  1  0  0  0
 31 25  1  0  0  0
 29 32  1  0  0  0
 35 36  1  0  0  0
M  END
> <Activity>
23.7

> <minimizedAffinity>
-9.86630

$$$$
HIPS7001


 36 39  0  0  0  0  0  0  0  0999 V2000
   68.7698   76.9277   91.2723 C   0  0  0  0  0  0  0  0  0  0  0  0
   69.2349   77.3776   92.5194 C   0  0  0  0  0  0  0  0  0  0  0  0
   69.1648   76.5489   93.6401 C   0  0  0  0  0  0  0  0  0  0  0  0
   68.6217   75.2684   93.5365 C   0  0  0  0  0  0  0  0  0  0  0  0
   68.1572   74.7908   92.2948 C   0  0  0  0  0  0  0  0  0  0  0  0
   68.2444   75.6261   91.1686 C   0  0  0  0  0  0  0  0  0  0  0  0
   69.9787   79.3649   88.6176 C   0  0  0  0  0  0  0  0  0  0  0  0
   68.8381   79.4507   87.7981 C   0  0  0  0  0  0  0  0  0  0  0  0
   67.6852   78.7328   88.1209 C   0  0  0  0  0  0  0  0  0  0  0  0
   67.6552   77.9275   89.2606 C   0  0  0  0  0  0  0  0  0  0  0  0
   68.7839   77.8298   90.0933 C   0  0  0  0  0  0  0  0  0  0  0  0
   69.9399   78.5655   89.7673 C   0  0  0  0  0  0  0  0  0  0  0  0
   71.1669   80.0529   88.3247 O   0  0  0  0  0  0  0  0  0  0  0  0
   72.4360   79.7812   88.9222 C   0  0  0  0  0  0  0  0  0  0  0  0
   74.9942   83.2076   88.3774 C   0  0  0  0  0  0  0  0  0  0  0  0
   73.6433   83.3917   88.7049 C   0  0  0  0  0  0  0  0  0  0  0  0
   72.8159   82.2822   88.9044 C   0  0  0  0  0  0  0  0  0  0  0  0
   73.3326   80.9802   88.7849 C   0  0  0  0  0  0  0  0  0  0  0  0
   74.6851   80.8031   88.4517 C   0  0  0  0  0  0  0  0  0  0  0  0
   75.5134   81.9126   88.2571 C   0  0  0  0  0  0  0  0  0  0  0  0
   76.5342   85.2624   87.9970 N   0  0  0  0  0  0  0  0  0  0  0  0
   75.8477   84.3464   88.1681 C   0  0  0  0  0  0  0  0  0  0  0  0
   67.5454   73.4181   92.1251 C   0  0  0  0  0  0  0  0  0  0  0  0
   66.6921   73.3186   90.9826 O   0  0  0  0  0  0  0  0  0  0  0  0
   65.3660   73.7789   90.9053 C   0  0  0  0  0  0  0  0  0  0  0  0
   64.3676   73.0062   91.5037 C   0  0  0  0  0  0  0  0  0  0  0  0
   63.0299   73.3943   91.4298 C   0  0  0  0  0  0  0  0  0  0  0  0
   62.6630   74.5633   90.7555 C   0  0  0  0  0  0  0  0  0  0  0  0
   61.3023   74.8487   90.6316 O   0  0  0  0  0  0  0  0  0  0  0  0
   63.6661   75.3897   90.1929 C   0  0  0  0  0  0  0  0  0  0  0  0
   65.0089   74.9729   90.2500 C   0  0  0  0  0  0  0  0  0  0  0  0
   60.6669   74.2783   91.0176 H   0  0  0  0  0  0  0  0  0  0  0  0
   63.3529   76.7034   89.5911 C   0  0  0  0  0  0  0  0  0  0  0  0
   63.8989   77.7468   90.0356 O   0  0  0  0  0  0  0  0  0  0  0  0
   62.4113   76.8055   88.5718 O   0  0  0  0  0  0  0  0  0  0  0  0
   61.9999   76.0339   88.2349 H   0  0  0  0  0  0  0  0  0  0  0  0
 21 22  3  0  0  0
 22 15  1  0  0  0
 15 16  2  0  0  0
 16 17  1  0  0  0
 17 18  2  0  0  0
 18 14  1  0  0  0
 14 13  1  0  0  0
 13  7  1  0  0  0
  7  8  2  0  0  0
  8  9  1  0  0  0
  9 10  2  0  0  0
 10 11  1  0  0  0
 11  1  1  0  0  0
  1  2  2  0  0  0
  2  3  1  0  0  0
  3  4  2  0  0  0
  4  5  1  0  0  0
  5 23  1  0  0  0
 23 24  1  0  0  0
 24 25  1  0  0  0
 25 26  2  0  0  0
 26 27  1  0  0  0
 27 28  2  0  0  0
 28 29  1  0  0  0
 28 30  1  0  0  0
 30 33  1  0  0  0
 33 34  2  0  0  0
 33 35  1  0  0  0
 30 31  2  0  0  0
  5  6  2  0  0  0
 11 12  2  0  0  0
 18 19  1  0  0  0
 19 20  2  0  0  0
 20 15  1  0  0  0
 12  7  1  0  0  0
  6  1  1  0  0  0
 31 25  1  0  0  0
 29 32  1  0  0  0
 35 36  1  0  0  0
M  END
> <Activity>
23.7

> <minimizedAffinity>
-9.62711

$$$$
HIPS7001


 36 39  0  0  0  0  0  0  0  0999 V2000
   68.4131   78.0561   90.0419 C   0  0  0  0  0  0  0  0  0  0  0  0
   68.9487   79.0770   89.2388 C   0  0  0  0  0  0  0  0  0  0  0  0
   68.6126   79.1617   87.8869 C   0  0  0  0  0  0  0  0  0  0  0  0
   67.7495   78.2267   87.3157 C   0  0  0  0  0  0  0  0  0  0  0  0
   67.1919   77.1993   88.1024 C   0  0  0  0  0  0  0  0  0  0  0  0
   67.5243   77.1294   89.4656 C   0  0  0  0  0  0  0  0  0  0  0  0
   68.6548   78.6575   93.7875 C   0  0  0  0  0  0  0  0  0  0  0  0
   69.5061   77.6046   94.1701 C   0  0  0  0  0  0  0  0  0  0  0  0
   70.0059   76.7212   93.2117 C   0  0  0  0  0  0  0  0  0  0  0  0
   69.6670   76.8786   91.8668 C   0  0  0  0  0  0  0  0  0  0  0  0
   68.8192   77.9254   91.4639 C   0  0  0  0  0  0  0  0  0  0  0  0
   68.3275   78.8193   92.4350 C   0  0  0  0  0  0  0  0  0  0  0  0
   68.1124   79.5597   94.7163 O   0  0  0  0  0  0  0  0  0  0  0  0
   68.7751   80.7288   95.2016 C   0  0  0  0  0  0  0  0  0  0  0  0
   65.7918   83.3181   96.9272 C   0  0  0  0  0  0  0  0  0  0  0  0
   66.6074   82.5411   97.7623 C   0  0  0  0  0  0  0  0  0  0  0  0
   67.5911   81.7170   97.2069 C   0  0  0  0  0  0  0  0  0  0  0  0
   67.7727   81.6674   95.8138 C   0  0  0  0  0  0  0  0  0  0  0  0
   66.9492   82.4442   94.9831 C   0  0  0  0  0  0  0  0  0  0  0  0
   65.9689   83.2718   95.5388 C   0  0  0  0  0  0  0  0  0  0  0  0
   63.9611   84.8479   97.9501 N   0  0  0  0  0  0  0  0  0  0  0  0
   64.7765   84.1646   97.4945 C   0  0  0  0  0  0  0  0  0  0  0  0
   66.2628   76.1494   87.5351 C   0  0  0  0  0  0  0  0  0  0  0  0
   64.8820   76.4277   87.7787 O   0  0  0  0  0  0  0  0  0  0  0  0
   64.0588   75.7565   88.6998 C   0  0  0  0  0  0  0  0  0  0  0  0
   62.6793   75.9609   88.6170 C   0  0  0  0  0  0  0  0  0  0  0  0
   61.8155   75.3492   89.5254 C   0  0  0  0  0  0  0  0  0  0  0  0
   62.3138   74.5206   90.5358 C   0  0  0  0  0  0  0  0  0  0  0  0
   61.4114   74.0150   91.4731 O   0  0  0  0  0  0  0  0  0  0  0  0
   63.7034   74.2550   90.6001 C   0  0  0  0  0  0  0  0  0  0  0  0
   64.5668   74.9001   89.6954 C   0  0  0  0  0  0  0  0  0  0  0  0
   60.4984   74.2121   91.3982 H   0  0  0  0  0  0  0  0  0  0  0  0
   64.2718   73.2808   91.5560 C   0  0  0  0  0  0  0  0  0  0  0  0
   63.7927   73.1825   92.7159 O   0  0  0  0  0  0  0  0  0  0  0  0
   65.3745   72.5087   91.2040 O   0  0  0  0  0  0  0  0  0  0  0  0
   65.7376   72.5755   90.3428 H   0  0  0  0  0  0  0  0  0  0  0  0
 21 22  3  0  0  0
 22 15  1  0  0  0
 15 16  2  0  0  0
 16 17  1  0  0  0
 17 18  2  0  0  0
 18 14  1  0  0  0
 14 13  1  0  0  0
 13  7  1  0  0  0
  7  8  2  0  0  0
  8  9  1  0  0  0
  9 10  2  0  0  0
 10 11  1  0  0  0
 11  1  1  0  0  0
  1  2  2  0  0  0
  2  3  1  0  0  0
  3  4  2  0  0  0
  4  5  1  0  0  0
  5 23  1  0  0  0
 23 24  1  0  0  0
 24 25  1  0  0  0
 25 26  2  0  0  0
 26 27  1  0  0  0
 27 28  2  0  0  0
 28 29  1  0  0  0
 28 30  1  0  0  0
 30 33  1  0  0  0
 33 34  2  0  0  0
 33 35  1  0  0  0
 30 31  2  0  0  0
  5  6  2  0  0  0
 11 12  2  0  0  0
 18 19  1  0  0  0
 19 20  2  0  0  0
 20 15  1  0  0  0
 12  7  1  0  0  0
  6  1  1  0  0  0
 31 25  1  0  0  0
 29 32  1  0  0  0
 35 36  1  0  0  0
M  END
> <Activity>
23.7

> <minimizedAffinity>
-9.57617

$$$$
HIPS7001


 36 39  0  0  0  0  0  0  0  0999 V2000
   69.2005   77.9514   89.0353 C   0  0  0  0  0  0  0  0  0  0  0  0
   68.1962   77.7129   88.0820 C   0  0  0  0  0  0  0  0  0  0  0  0
   67.8349   78.7081   87.1727 C   0  0  0  0  0  0  0  0  0  0  0  0
   68.4595   79.9548   87.2079 C   0  0  0  0  0  0  0  0  0  0  0  0
   69.4760   80.2151   88.1483 C   0  0  0  0  0  0  0  0  0  0  0  0
   69.8436   79.2032   89.0508 C   0  0  0  0  0  0  0  0  0  0  0  0
   68.8418   75.2357   91.6707 C   0  0  0  0  0  0  0  0  0  0  0  0
   70.1892   74.8845   91.8738 C   0  0  0  0  0  0  0  0  0  0  0  0
   71.2002   75.5400   91.1689 C   0  0  0  0  0  0  0  0  0  0  0  0
   70.8815   76.5506   90.2603 C   0  0  0  0  0  0  0  0  0  0  0  0
   69.5414   76.9174   90.0445 C   0  0  0  0  0  0  0  0  0  0  0  0
   68.5274   76.2592   90.7672 C   0  0  0  0  0  0  0  0  0  0  0  0
   67.7892   74.5932   92.3416 O   0  0  0  0  0  0  0  0  0  0  0  0
   67.1643   73.3829   91.9102 C   0  0  0  0  0  0  0  0  0  0  0  0
   63.3042   74.3290   90.2408 C   0  0  0  0  0  0  0  0  0  0  0  0
   64.4075   75.1447   89.9513 C   0  0  0  0  0  0  0  0  0  0  0  0
   65.6656   74.8280   90.4730 C   0  0  0  0  0  0  0  0  0  0  0  0
   65.8334   73.6908   91.2822 C   0  0  0  0  0  0  0  0  0  0  0  0
   64.7234   72.8812   91.5723 C   0  0  0  0  0  0  0  0  0  0  0  0
   63.4664   73.1953   91.0466 C   0  0  0  0  0  0  0  0  0  0  0  0
   60.9658   74.9151   89.2784 N   0  0  0  0  0  0  0  0  0  0  0  0
   62.0077   74.6534   89.7088 C   0  0  0  0  0  0  0  0  0  0  0  0
   70.1777   81.5516   88.2432 C   0  0  0  0  0  0  0  0  0  0  0  0
   71.2533   81.5579   89.1846 O   0  0  0  0  0  0  0  0  0  0  0  0
   72.6178   81.6878   88.8718 C   0  0  0  0  0  0  0  0  0  0  0  0
   73.3828   80.5226   88.7769 C   0  0  0  0  0  0  0  0  0  0  0  0
   74.7488   80.5908   88.5035 C   0  0  0  0  0  0  0  0  0  0  0  0
   75.3782   81.8261   88.3197 C   0  0  0  0  0  0  0  0  0  0  0  0
   76.7631   81.8364   88.1457 O   0  0  0  0  0  0  0  0  0  0  0  0
   74.6087   83.0146   88.3544 C   0  0  0  0  0  0  0  0  0  0  0  0
   73.2372   82.9342   88.6586 C   0  0  0  0  0  0  0  0  0  0  0  0
   77.2391   81.0295   88.1280 H   0  0  0  0  0  0  0  0  0  0  0  0
   75.1905   84.3346   88.0305 C   0  0  0  0  0  0  0  0  0  0  0  0
   76.2277   84.7294   88.6246 O   0  0  0  0  0  0  0  0  0  0  0  0
   74.5665   85.1743   87.1131 O   0  0  0  0  0  0  0  0  0  0  0  0
   73.7940   84.8885   86.6664 H   0  0  0  0  0  0  0  0  0  0  0  0
 21 22  3  0  0  0
 22 15  1  0  0  0
 15 16  2  0  0  0
 16 17  1  0  0  0
 17 18  2  0  0  0
 18 14  1  0  0  0
 14 13  1  0  0  0
 13  7  1  0  0  0
  7  8  2  0  0  0
  8  9  1  0  0  0
  9 10  2  0  0  0
 10 11  1  0  0  0
 11  1  1  0  0  0
  1  2  2  0  0  0
  2  3  1  0  0  0
  3  4  2  0  0  0
  4  5  1  0  0  0
  5 23  1  0  0  0
 23 24  1  0  0  0
 24 25  1  0  0  0
 25 26  2  0  0  0
 26 27  1  0  0  0
 27 28  2  0  0  0
 28 29  1  0  0  0
 28 30  1  0  0  0
 30 33  1  0  0  0
 33 34  2  0  0  0
 33 35  1  0  0  0
 30 31  2  0  0  0
  5  6  2  0  0  0
 11 12  2  0  0  0
 18 19  1  0  0  0
 19 20  2  0  0  0
 20 15  1  0  0  0
 12  7  1  0  0  0
  6  1  1  0  0  0
 31 25  1  0  0  0
 29 32  1  0  0  0
 35 36  1  0  0  0
M  END
> <Activity>
23.7

> <minimizedAffinity>
-9.45508

$$$$
HIPS7001


 36 39  0  0  0  0  0  0  0  0999 V2000
   67.0144   77.1384   87.8697 C   0  0  0  0  0  0  0  0  0  0  0  0
   66.4598   76.8914   86.6025 C   0  0  0  0  0  0  0  0  0  0  0  0
   66.6137   77.8191   85.5714 C   0  0  0  0  0  0  0  0  0  0  0  0
   67.3103   79.0073   85.7910 C   0  0  0  0  0  0  0  0  0  0  0  0
   67.8837   79.2737   87.0502 C   0  0  0  0  0  0  0  0  0  0  0  0
   67.7364   78.3282   88.0788 C   0  0  0  0  0  0  0  0  0  0  0  0
   67.6672   74.8997   90.8715 C   0  0  0  0  0  0  0  0  0  0  0  0
   66.3622   74.4623   91.1642 C   0  0  0  0  0  0  0  0  0  0  0  0
   65.2874   74.8825   90.3787 C   0  0  0  0  0  0  0  0  0  0  0  0
   65.5006   75.7369   89.2956 C   0  0  0  0  0  0  0  0  0  0  0  0
   66.7973   76.1836   88.9857 C   0  0  0  0  0  0  0  0  0  0  0  0
   67.8782   75.7469   89.7760 C   0  0  0  0  0  0  0  0  0  0  0  0
   68.7769   74.5197   91.6429 O   0  0  0  0  0  0  0  0  0  0  0  0
   69.9356   75.3271   91.8594 C   0  0  0  0  0  0  0  0  0  0  0  0
   68.6161   79.1816   93.2678 C   0  0  0  0  0  0  0  0  0  0  0  0
   68.9900   78.1934   94.1898 C   0  0  0  0  0  0  0  0  0  0  0  0
   69.4398   76.9497   93.7359 C   0  0  0  0  0  0  0  0  0  0  0  0
   69.5262   76.6852   92.3579 C   0  0  0  0  0  0  0  0  0  0  0  0
   69.1454   77.6775   91.4402 C   0  0  0  0  0  0  0  0  0  0  0  0
   68.7003   78.9227   91.8941 C   0  0  0  0  0  0  0  0  0  0  0  0
   67.7760   81.4920   94.1013 N   0  0  0  0  0  0  0  0  0  0  0  0
   68.1497   80.4612   93.7308 C   0  0  0  0  0  0  0  0  0  0  0  0
   68.6367   80.5505   87.3509 C   0  0  0  0  0  0  0  0  0  0  0  0
   69.3789   80.4931   88.5713 O   0  0  0  0  0  0  0  0  0  0  0  0
   70.7682   80.3074   88.6797 C   0  0  0  0  0  0  0  0  0  0  0  0
   71.2440   79.0062   88.8597 C   0  0  0  0  0  0  0  0  0  0  0  0
   72.6095   78.7641   89.0084 C   0  0  0  0  0  0  0  0  0  0  0  0
   73.5277   79.8187   88.9803 C   0  0  0  0  0  0  0  0  0  0  0  0
   74.8693   79.5263   89.2312 O   0  0  0  0  0  0  0  0  0  0  0  0
   73.0702   81.1374   88.7406 C   0  0  0  0  0  0  0  0  0  0  0  0
   71.6880   81.3719   88.6202 C   0  0  0  0  0  0  0  0  0  0  0  0
   75.1349   78.6411   89.3855 H   0  0  0  0  0  0  0  0  0  0  0  0
   74.0033   82.2702   88.5618 C   0  0  0  0  0  0  0  0  0  0  0  0
   73.5762   83.4532   88.6150 O   0  0  0  0  0  0  0  0  0  0  0  0
   75.3453   82.0400   88.2754 O   0  0  0  0  0  0  0  0  0  0  0  0
   75.6716   81.1626   88.2338 H   0  0  0  0  0  0  0  0  0  0  0  0
 21 22  3  0  0  0
 22 15  1  0  0  0
 15 16  2  0  0  0
 16 17  1  0  0  0
 17 18  2  0  0  0
 18 14  1  0  0  0
 14 13  1  0  0  0
 13  7  1  0  0  0
  7  8  2  0  0  0
  8  9  1  0  0  0
  9 10  2  0  0  0
 10 11  1  0  0  0
 11  1  1  0  0  0
  1  2  2  0  0  0
  2  3  1  0  0  0
  3  4  2  0  0  0
  4  5  1  0  0  0
  5 23  1  0  0  0
 23 24  1  0  0  0
 24 25  1  0  0  0
 25 26  2  0  0  0
 26 27  1  0  0  0
 27 28  2  0  0  0
 28 29  1  0  0  0
 28 30  1  0  0  0
 30 33  1  0  0  0
 33 34  2  0  0  0
 33 35  1  0  0  0
 30 31  2  0  0  0
  5  6  2  0  0  0
 11 12  2  0  0  0
 18 19  1  0  0  0
 19 20  2  0  0  0
 20 15  1  0  0  0
 12  7  1  0  0  0
  6  1  1  0  0  0
 31 25  1  0  0  0
 29 32  1  0  0  0
 35 36  1  0  0  0
M  END
> <Activity>
23.7

> <minimizedAffinity>
-9.33469

$$$$
HIPS7784


 38 41  0  0  0  0  0  0  0  0999 V2000
   68.6335   75.3181   91.6471 C   0  0  0  0  0  0  0  0  0  0  0  0
   69.3505   75.0809   90.4697 C   0  0  0  0  0  0  0  0  0  0  0  0
   69.9387   76.1135   89.8117 N   0  0  0  0  0  0  0  0  0  0  0  0
   69.8593   77.3899   90.2794 C   0  0  0  0  0  0  0  0  0  0  0  0
   69.1807   77.6342   91.4336 N   0  0  0  0  0  0  0  0  0  0  0  0
   68.5758   76.6326   92.1237 C   0  0  0  0  0  0  0  0  0  0  0  0
   70.5029   78.5028   89.5376 C   0  0  0  0  0  0  0  0  0  0  0  0
   71.8981   78.5322   89.3597 C   0  0  0  0  0  0  0  0  0  0  0  0
   72.5000   79.5746   88.6521 C   0  0  0  0  0  0  0  0  0  0  0  0
   71.7216   80.5939   88.1039 C   0  0  0  0  0  0  0  0  0  0  0  0
   70.3260   80.5787   88.2577 C   0  0  0  0  0  0  0  0  0  0  0  0
   69.7273   79.5415   88.9892 C   0  0  0  0  0  0  0  0  0  0  0  0
   69.4975   81.5951   87.6728 N   0  0  0  0  0  0  0  0  0  0  0  0
   69.7004   82.5380   87.8701 H   0  0  0  0  0  0  0  0  0  0  0  0
   68.1537   81.2364   86.6329 S   0  0  0  0  0  0  0  0  0  0  0  0
   68.1108   82.2198   85.4973 O   0  0  0  0  0  0  0  0  0  0  0  0
   66.8804   81.3568   87.4230 O   0  0  0  0  0  0  0  0  0  0  0  0
   68.2761   79.5705   85.9922 C   0  0  0  0  0  0  0  0  0  0  0  0
   67.6426   78.5875   86.9374 C   0  0  0  0  0  0  0  0  0  0  0  0
   67.0698   79.0318   88.1412 C   0  0  0  0  0  0  0  0  0  0  0  0
   66.5046   78.1158   89.0346 C   0  0  0  0  0  0  0  0  0  0  0  0
   66.5141   76.7495   88.7376 C   0  0  0  0  0  0  0  0  0  0  0  0
   67.0838   76.2991   87.5431 C   0  0  0  0  0  0  0  0  0  0  0  0
   67.6455   77.2123   86.6451 C   0  0  0  0  0  0  0  0  0  0  0  0
   67.9784   74.1878   92.3958 C   0  0  0  0  0  0  0  0  0  0  0  0
   67.0475   73.4946   91.5637 O   0  0  0  0  0  0  0  0  0  0  0  0
   63.8782   75.4288   91.0096 C   0  0  0  0  0  0  0  0  0  0  0  0
   65.2500   75.1404   91.1674 C   0  0  0  0  0  0  0  0  0  0  0  0
   65.6896   73.8254   91.4102 C   0  0  0  0  0  0  0  0  0  0  0  0
   64.7475   72.7991   91.5071 C   0  0  0  0  0  0  0  0  0  0  0  0
   63.3875   73.0678   91.3573 C   0  0  0  0  0  0  0  0  0  0  0  0
   62.9431   74.3730   91.1061 C   0  0  0  0  0  0  0  0  0  0  0  0
   61.5767   74.6110   90.9518 O   0  0  0  0  0  0  0  0  0  0  0  0
   60.9673   73.9023   91.0180 H   0  0  0  0  0  0  0  0  0  0  0  0
   63.4876   77.6880   91.6673 O   0  0  0  0  0  0  0  0  0  0  0  0
   63.4493   76.8279   90.7458 C   0  0  0  0  0  0  0  0  0  0  0  0
   63.0012   77.2142   89.4838 O   0  0  0  0  0  0  0  0  0  0  0  0
   62.9661   76.5884   88.7873 H   0  0  0  0  0  0  0  0  0  0  0  0
 35 36  2  0  0  0
 36 37  1  0  0  0
 36 27  1  0  0  0
 27 28  2  0  0  0
 28 29  1  0  0  0
 29 26  1  0  0  0
 26 25  1  0  0  0
 25  1  1  0  0  0
  1  2  2  0  0  0
  2  3  2  0  0  0
  3  4  2  0  0  0
  4  7  1  0  0  0
  7  8  2  0  0  0
  8  9  1  0  0  0
  9 10  2  0  0  0
 10 11  1  0  0  0
 11 13  1  0  0  0
 13 15  1  0  0  0
 15 16  2  0  0  0
 15 17  2  0  0  0
 15 18  1  0  0  0
 18 19  1  0  0  0
 19 20  2  0  0  0
 20 21  1  0  0  0
 21 22  2  0  0  0
 22 23  1  0  0  0
 23 24  2  0  0  0
 11 12  2  0  0  0
  4  5  2  0  0  0
  5  6  2  0  0  0
 29 30  2  0  0  0
 30 31  1  0  0  0
 31 32  2  0  0  0
 32 33  1  0  0  0
 32 27  1  0  0  0
  6  1  1  0  0  0
 12  7  1  0  0  0
 24 19  1  0  0  0
 37 38  1  0  0  0
 13 14  1  0  0  0
 33 34  1  0  0  0
M  END
> <Activity>
29.3

> <minimizedAffinity>
-9.91374

$$$$
HIPS7784


 38 41  0  0  0  0  0  0  0  0999 V2000
   70.5161   79.4901   89.3988 C   0  0  0  0  0  0  0  0  0  0  0  0
   71.2682   78.3341   89.1652 C   0  0  0  0  0  0  0  0  0  0  0  0
   70.9824   77.1891   89.8380 N   0  0  0  0  0  0  0  0  0  0  0  0
   69.9617   77.1307   90.7375 C   0  0  0  0  0  0  0  0  0  0  0  0
   69.2091   78.2423   90.9622 N   0  0  0  0  0  0  0  0  0  0  0  0
   69.4598   79.4091   90.3133 C   0  0  0  0  0  0  0  0  0  0  0  0
   69.6747   75.8703   91.4668 C   0  0  0  0  0  0  0  0  0  0  0  0
   70.7231   75.0874   91.9833 C   0  0  0  0  0  0  0  0  0  0  0  0
   70.4499   73.9077   92.6785 C   0  0  0  0  0  0  0  0  0  0  0  0
   69.1316   73.4981   92.8778 C   0  0  0  0  0  0  0  0  0  0  0  0
   68.0686   74.2701   92.3824 C   0  0  0  0  0  0  0  0  0  0  0  0
   68.3482   75.4431   91.6645 C   0  0  0  0  0  0  0  0  0  0  0  0
   66.7015   73.8916   92.6048 N   0  0  0  0  0  0  0  0  0  0  0  0
   66.3830   73.8040   93.5323 H   0  0  0  0  0  0  0  0  0  0  0  0
   65.5844   73.5812   91.3120 S   0  0  0  0  0  0  0  0  0  0  0  0
   65.5638   72.1117   90.9974 O   0  0  0  0  0  0  0  0  0  0  0  0
   66.0348   74.3297   90.0885 O   0  0  0  0  0  0  0  0  0  0  0  0
   63.9401   74.1337   91.7499 C   0  0  0  0  0  0  0  0  0  0  0  0
   63.2710   74.7981   90.5786 C   0  0  0  0  0  0  0  0  0  0  0  0
   62.5618   74.0299   89.6396 C   0  0  0  0  0  0  0  0  0  0  0  0
   61.9621   74.6427   88.5344 C   0  0  0  0  0  0  0  0  0  0  0  0
   62.0725   76.0248   88.3534 C   0  0  0  0  0  0  0  0  0  0  0  0
   62.7780   76.7959   89.2818 C   0  0  0  0  0  0  0  0  0  0  0  0
   63.3748   76.1875   90.3907 C   0  0  0  0  0  0  0  0  0  0  0  0
   70.8116   80.7685   88.6602 C   0  0  0  0  0  0  0  0  0  0  0  0
   69.6980   81.1657   87.8592 O   0  0  0  0  0  0  0  0  0  0  0  0
   67.5562   78.1789   87.0946 C   0  0  0  0  0  0  0  0  0  0  0  0
   68.4759   79.0228   87.7516 C   0  0  0  0  0  0  0  0  0  0  0  0
   68.7944   80.2910   87.2304 C   0  0  0  0  0  0  0  0  0  0  0  0
   68.1964   80.7077   86.0392 C   0  0  0  0  0  0  0  0  0  0  0  0
   67.2879   79.8842   85.3753 C   0  0  0  0  0  0  0  0  0  0  0  0
   66.9590   78.6241   85.8931 C   0  0  0  0  0  0  0  0  0  0  0  0
   66.0399   77.8250   85.2119 O   0  0  0  0  0  0  0  0  0  0  0  0
   65.6512   78.1319   84.4164 H   0  0  0  0  0  0  0  0  0  0  0  0
   68.1620   76.0388   87.9559 O   0  0  0  0  0  0  0  0  0  0  0  0
   67.2364   76.8489   87.6775 C   0  0  0  0  0  0  0  0  0  0  0  0
   65.9174   76.4743   87.9274 O   0  0  0  0  0  0  0  0  0  0  0  0
   65.2170   77.0636   87.7268 H   0  0  0  0  0  0  0  0  0  0  0  0
 35 36  2  0  0  0
 36 37  1  0  0  0
 36 27  1  0  0  0
 27 28  2  0  0  0
 28 29  1  0  0  0
 29 26  1  0  0  0
 26 25  1  0  0  0
 25  1  1  0  0  0
  1  2  2  0  0  0
  2  3  2  0  0  0
  3  4  2  0  0  0
  4  7  1  0  0  0
  7  8  2  0  0  0
  8  9  1  0  0  0
  9 10  2  0  0  0
 10 11  1  0  0  0
 11 13  1  0  0  0
 13 15  1  0  0  0
 15 16  2  0  0  0
 15 17  2  0  0  0
 15 18  1  0  0  0
 18 19  1  0  0  0
 19 20  2  0  0  0
 20 21  1  0  0  0
 21 22  2  0  0  0
 22 23  1  0  0  0
 23 24  2  0  0  0
 11 12  2  0  0  0
  4  5  2  0  0  0
  5  6  2  0  0  0
 29 30  2  0  0  0
 30 31  1  0  0  0
 31 32  2  0  0  0
 32 33  1  0  0  0
 32 27  1  0  0  0
  6  1  1  0  0  0
 12  7  1  0  0  0
 24 19  1  0  0  0
 37 38  1  0  0  0
 13 14  1  0  0  0
 33 34  1  0  0  0
M  END
> <Activity>
29.3

> <minimizedAffinity>
-8.79246

$$$$
HIPS7784


 38 41  0  0  0  0  0  0  0  0999 V2000
   67.5160   79.1794   87.3633 C   0  0  0  0  0  0  0  0  0  0  0  0
   67.4919   77.8911   86.8192 C   0  0  0  0  0  0  0  0  0  0  0  0
   66.9524   76.8641   87.5259 N   0  0  0  0  0  0  0  0  0  0  0  0
   66.4154   77.0586   88.7620 C   0  0  0  0  0  0  0  0  0  0  0  0
   66.4147   78.3100   89.2974 N   0  0  0  0  0  0  0  0  0  0  0  0
   66.9447   79.3660   88.6272 C   0  0  0  0  0  0  0  0  0  0  0  0
   65.8398   75.9187   89.5185 C   0  0  0  0  0  0  0  0  0  0  0  0
   64.4769   75.5928   89.3951 C   0  0  0  0  0  0  0  0  0  0  0  0
   63.9403   74.5132   90.0995 C   0  0  0  0  0  0  0  0  0  0  0  0
   64.7540   73.7385   90.9260 C   0  0  0  0  0  0  0  0  0  0  0  0
   66.1199   74.0371   91.0547 C   0  0  0  0  0  0  0  0  0  0  0  0
   66.6503   75.1369   90.3630 C   0  0  0  0  0  0  0  0  0  0  0  0
   66.9879   73.2344   91.8695 N   0  0  0  0  0  0  0  0  0  0  0  0
   66.8075   72.2691   91.9387 H   0  0  0  0  0  0  0  0  0  0  0  0
   68.3415   73.8893   92.7382 S   0  0  0  0  0  0  0  0  0  0  0  0
   69.3630   72.8132   92.9773 O   0  0  0  0  0  0  0  0  0  0  0  0
   67.8643   74.4047   94.0673 O   0  0  0  0  0  0  0  0  0  0  0  0
   69.0819   75.2416   91.8305 C   0  0  0  0  0  0  0  0  0  0  0  0
   68.8930   76.5417   92.5620 C   0  0  0  0  0  0  0  0  0  0  0  0
   69.7900   76.9204   93.5752 C   0  0  0  0  0  0  0  0  0  0  0  0
   69.6002   78.1161   94.2757 C   0  0  0  0  0  0  0  0  0  0  0  0
   68.5098   78.9387   93.9763 C   0  0  0  0  0  0  0  0  0  0  0  0
   67.6116   78.5682   92.9712 C   0  0  0  0  0  0  0  0  0  0  0  0
   67.8009   77.3758   92.2653 C   0  0  0  0  0  0  0  0  0  0  0  0
   68.1037   80.3335   86.5953 C   0  0  0  0  0  0  0  0  0  0  0  0
   68.8917   81.1664   87.4468 O   0  0  0  0  0  0  0  0  0  0  0  0
   72.3722   81.4157   88.8311 C   0  0  0  0  0  0  0  0  0  0  0  0
   71.1253   81.7945   88.2912 C   0  0  0  0  0  0  0  0  0  0  0  0
   70.1496   80.8299   87.9772 C   0  0  0  0  0  0  0  0  0  0  0  0
   70.4318   79.4796   88.1947 C   0  0  0  0  0  0  0  0  0  0  0  0
   71.6608   79.0879   88.7244 C   0  0  0  0  0  0  0  0  0  0  0  0
   72.6336   80.0434   89.0481 C   0  0  0  0  0  0  0  0  0  0  0  0
   73.8511   79.6230   89.5850 O   0  0  0  0  0  0  0  0  0  0  0  0
   74.0118   78.7104   89.7238 H   0  0  0  0  0  0  0  0  0  0  0  0
   74.0338   82.3959   90.2336 O   0  0  0  0  0  0  0  0  0  0  0  0
   73.3770   82.4616   89.1591 C   0  0  0  0  0  0  0  0  0  0  0  0
   73.6123   83.5265   88.2913 O   0  0  0  0  0  0  0  0  0  0  0  0
   73.1334   83.5913   87.4885 H   0  0  0  0  0  0  0  0  0  0  0  0
 35 36  2  0  0  0
 36 37  1  0  0  0
 36 27  1  0  0  0
 27 28  2  0  0  0
 28 29  1  0  0  0
 29 26  1  0  0  0
 26 25  1  0  0  0
 25  1  1  0  0  0
  1  2  2  0  0  0
  2  3  2  0  0  0
  3  4  2  0  0  0
  4  7  1  0  0  0
  7  8  2  0  0  0
  8  9  1  0  0  0
  9 10  2  0  0  0
 10 11  1  0  0  0
 11 13  1  0  0  0
 13 15  1  0  0  0
 15 16  2  0  0  0
 15 17  2  0  0  0
 15 18  1  0  0  0
 18 19  1  0  0  0
 19 20  2  0  0  0
 20 21  1  0  0  0
 21 22  2  0  0  0
 22 23  1  0  0  0
 23 24  2  0  0  0
 11 12  2  0  0  0
  4  5  2  0  0  0
  5  6  2  0  0  0
 29 30  2  0  0  0
 30 31  1  0  0  0
 31 32  2  0  0  0
 32 33  1  0  0  0
 32 27  1  0  0  0
  6  1  1  0  0  0
 12  7  1  0  0  0
 24 19  1  0  0  0
 37 38  1  0  0  0
 13 14  1  0  0  0
 33 34  1  0  0  0
M  END
> <Activity>
29.3

> <minimizedAffinity>
-8.59621

$$$$
HIPS7784


 38 41  0  0  0  0  0  0  0  0999 V2000
   68.6491   75.2749   91.3498 C   0  0  0  0  0  0  0  0  0  0  0  0
   69.4058   75.0941   90.1874 C   0  0  0  0  0  0  0  0  0  0  0  0
   70.0009   76.1595   89.5905 N   0  0  0  0  0  0  0  0  0  0  0  0
   69.8900   77.4148   90.1062 C   0  0  0  0  0  0  0  0  0  0  0  0
   69.1722   77.6041   91.2470 N   0  0  0  0  0  0  0  0  0  0  0  0
   68.5591   76.5683   91.8767 C   0  0  0  0  0  0  0  0  0  0  0  0
   70.5420   78.5644   89.4307 C   0  0  0  0  0  0  0  0  0  0  0  0
   71.9421   78.6217   89.3065 C   0  0  0  0  0  0  0  0  0  0  0  0
   72.5523   79.6989   88.6610 C   0  0  0  0  0  0  0  0  0  0  0  0
   71.7779   80.7261   88.1218 C   0  0  0  0  0  0  0  0  0  0  0  0
   70.3781   80.6838   88.2224 C   0  0  0  0  0  0  0  0  0  0  0  0
   69.7700   79.6109   88.8921 C   0  0  0  0  0  0  0  0  0  0  0  0
   69.5549   81.7086   87.6445 N   0  0  0  0  0  0  0  0  0  0  0  0
   69.7743   82.6496   87.8331 H   0  0  0  0  0  0  0  0  0  0  0  0
   68.1899   81.3633   86.6281 S   0  0  0  0  0  0  0  0  0  0  0  0
   68.1245   82.3605   85.5057 O   0  0  0  0  0  0  0  0  0  0  0  0
   66.9331   81.4746   87.4455 O   0  0  0  0  0  0  0  0  0  0  0  0
   68.2980   79.7053   85.9647 C   0  0  0  0  0  0  0  0  0  0  0  0
   67.6940   78.7096   86.9159 C   0  0  0  0  0  0  0  0  0  0  0  0
   67.6791   77.3420   86.5935 C   0  0  0  0  0  0  0  0  0  0  0  0
   67.0930   76.4175   87.4644 C   0  0  0  0  0  0  0  0  0  0  0  0
   66.5103   76.8515   88.6591 C   0  0  0  0  0  0  0  0  0  0  0  0
   66.5191   78.2105   88.9863 C   0  0  0  0  0  0  0  0  0  0  0  0
   67.1085   79.1373   88.1204 C   0  0  0  0  0  0  0  0  0  0  0  0
   67.9856   74.1076   92.0312 C   0  0  0  0  0  0  0  0  0  0  0  0
   67.0254   73.4917   91.1720 O   0  0  0  0  0  0  0  0  0  0  0  0
   63.3516   73.5272   91.9433 C   0  0  0  0  0  0  0  0  0  0  0  0
   64.7201   73.1903   92.0035 C   0  0  0  0  0  0  0  0  0  0  0  0
   65.6524   73.7925   91.1378 C   0  0  0  0  0  0  0  0  0  0  0  0
   65.2069   74.7271   90.2005 C   0  0  0  0  0  0  0  0  0  0  0  0
   63.8570   75.0686   90.1255 C   0  0  0  0  0  0  0  0  0  0  0  0
   62.9245   74.4800   90.9903 C   0  0  0  0  0  0  0  0  0  0  0  0
   61.5814   74.8476   90.8983 O   0  0  0  0  0  0  0  0  0  0  0  0
   61.3114   75.4804   90.2622 H   0  0  0  0  0  0  0  0  0  0  0  0
   62.0333   71.6847   92.6890 O   0  0  0  0  0  0  0  0  0  0  0  0
   62.3952   72.8778   92.8785 C   0  0  0  0  0  0  0  0  0  0  0  0
   61.8848   73.5690   93.9759 O   0  0  0  0  0  0  0  0  0  0  0  0
   62.1427   74.4561   94.1322 H   0  0  0  0  0  0  0  0  0  0  0  0
 35 36  2  0  0  0
 36 37  1  0  0  0
 36 27  1  0  0  0
 27 28  2  0  0  0
 28 29  1  0  0  0
 29 26  1  0  0  0
 26 25  1  0  0  0
 25  1  1  0  0  0
  1  2  2  0  0  0
  2  3  2  0  0  0
  3  4  2  0  0  0
  4  7  1  0  0  0
  7  8  2  0  0  0
  8  9  1  0  0  0
  9 10  2  0  0  0
 10 11  1  0  0  0
 11 13  1  0  0  0
 13 15  1  0  0  0
 15 16  2  0  0  0
 15 17  2  0  0  0
 15 18  1  0  0  0
 18 19  1  0  0  0
 19 20  2  0  0  0
 20 21  1  0  0  0
 21 22  2  0  0  0
 22 23  1  0  0  0
 23 24  2  0  0  0
 11 12  2  0  0  0
  4  5  2  0  0  0
  5  6  2  0  0  0
 29 30  2  0  0  0
 30 31  1  0  0  0
 31 32  2  0  0  0
 32 33  1  0  0  0
 32 27  1  0  0  0
  6  1  1  0  0  0
 12  7  1  0  0  0
 24 19  1  0  0  0
 37 38  1  0  0  0
 13 14  1  0  0  0
 33 34  1  0  0  0
M  END
> <Activity>
29.3

> <minimizedAffinity>
-8.25721

$$$$
HIPS7784


 38 41  0  0  0  0  0  0  0  0999 V2000
   67.4788   79.4396   87.3890 C   0  0  0  0  0  0  0  0  0  0  0  0
   67.4080   78.1834   86.7780 C   0  0  0  0  0  0  0  0  0  0  0  0
   66.8436   77.1376   87.4362 N   0  0  0  0  0  0  0  0  0  0  0  0
   66.3264   77.2828   88.6874 C   0  0  0  0  0  0  0  0  0  0  0  0
   66.3713   78.5034   89.2880 N   0  0  0  0  0  0  0  0  0  0  0  0
   66.9274   79.5765   88.6679 C   0  0  0  0  0  0  0  0  0  0  0  0
   65.7230   76.1229   89.3897 C   0  0  0  0  0  0  0  0  0  0  0  0
   64.3674   75.7977   89.2009 C   0  0  0  0  0  0  0  0  0  0  0  0
   63.8050   74.6994   89.8544 C   0  0  0  0  0  0  0  0  0  0  0  0
   64.5856   73.9053   90.6944 C   0  0  0  0  0  0  0  0  0  0  0  0
   65.9440   74.2031   90.8878 C   0  0  0  0  0  0  0  0  0  0  0  0
   66.4997   75.3212   90.2473 C   0  0  0  0  0  0  0  0  0  0  0  0
   66.7795   73.3815   91.7176 N   0  0  0  0  0  0  0  0  0  0  0  0
   66.5916   72.4162   91.7641 H   0  0  0  0  0  0  0  0  0  0  0  0
   68.1063   74.0133   92.6428 S   0  0  0  0  0  0  0  0  0  0  0  0
   69.0855   72.9143   92.9463 O   0  0  0  0  0  0  0  0  0  0  0  0
   67.5791   74.5608   93.9398 O   0  0  0  0  0  0  0  0  0  0  0  0
   68.9264   75.3320   91.7543 C   0  0  0  0  0  0  0  0  0  0  0  0
   68.8182   76.6296   92.5063 C   0  0  0  0  0  0  0  0  0  0  0  0
   69.6750   76.8941   93.5882 C   0  0  0  0  0  0  0  0  0  0  0  0
   69.5575   78.0887   94.3064 C   0  0  0  0  0  0  0  0  0  0  0  0
   68.5793   79.0243   93.9558 C   0  0  0  0  0  0  0  0  0  0  0  0
   67.7216   78.7679   92.8821 C   0  0  0  0  0  0  0  0  0  0  0  0
   67.8392   77.5768   92.1586 C   0  0  0  0  0  0  0  0  0  0  0  0
   68.0947   80.6140   86.6757 C   0  0  0  0  0  0  0  0  0  0  0  0
   69.1015   81.2303   87.4797 O   0  0  0  0  0  0  0  0  0  0  0  0
   71.3423   78.6602   89.0500 C   0  0  0  0  0  0  0  0  0  0  0  0
   70.1825   79.2793   88.5388 C   0  0  0  0  0  0  0  0  0  0  0  0
   70.2319   80.5817   88.0073 C   0  0  0  0  0  0  0  0  0  0  0  0
   71.4475   81.2691   88.0004 C   0  0  0  0  0  0  0  0  0  0  0  0
   72.6026   80.6729   88.5051 C   0  0  0  0  0  0  0  0  0  0  0  0
   72.5630   79.3730   89.0275 C   0  0  0  0  0  0  0  0  0  0  0  0
   73.7364   78.7983   89.5177 O   0  0  0  0  0  0  0  0  0  0  0  0
   74.5389   79.2815   89.4969 H   0  0  0  0  0  0  0  0  0  0  0  0
   71.7975   76.9994   90.7003 O   0  0  0  0  0  0  0  0  0  0  0  0
   71.2560   77.2800   89.5965 C   0  0  0  0  0  0  0  0  0  0  0  0
   70.5785   76.2768   88.9057 O   0  0  0  0  0  0  0  0  0  0  0  0
   70.1702   76.4674   88.0842 H   0  0  0  0  0  0  0  0  0  0  0  0
 35 36  2  0  0  0
 36 37  1  0  0  0
 36 27  1  0  0  0
 27 28  2  0  0  0
 28 29  1  0  0  0
 29 26  1  0  0  0
 26 25  1  0  0  0
 25  1  1  0  0  0
  1  2  2  0  0  0
  2  3  2  0  0  0
  3  4  2  0  0  0
  4  7  1  0  0  0
  7  8  2  0  0  0
  8  9  1  0  0  0
  9 10  2  0  0  0
 10 11  1  0  0  0
 11 13  1  0  0  0
 13 15  1  0  0  0
 15 16  2  0  0  0
 15 17  2  0  0  0
 15 18  1  0  0  0
 18 19  1  0  0  0
 19 20  2  0  0  0
 20 21  1  0  0  0
 21 22  2  0  0  0
 22 23  1  0  0  0
 23 24  2  0  0  0
 11 12  2  0  0  0
  4  5  2  0  0  0
  5  6  2  0  0  0
 29 30  2  0  0  0
 30 31  1  0  0  0
 31 32  2  0  0  0
 32 33  1  0  0  0
 32 27  1  0  0  0
  6  1  1  0  0  0
 12  7  1  0  0  0
 24 19  1  0  0  0
 37 38  1  0  0  0
 13 14  1  0  0  0
 33 34  1  0  0  0
M  END
> <Activity>
29.3

> <minimizedAffinity>
-8.22416

$$$$
HIPS7784


 38 41  0  0  0  0  0  0  0  0999 V2000
   70.3590   75.7772   90.6763 C   0  0  0  0  0  0  0  0  0  0  0  0
   69.7726   75.4967   91.9148 C   0  0  0  0  0  0  0  0  0  0  0  0
   68.5371   74.9348   91.9708 N   0  0  0  0  0  0  0  0  0  0  0  0
   67.8486   74.6210   90.8387 C   0  0  0  0  0  0  0  0  0  0  0  0
   68.4136   74.8709   89.6260 N   0  0  0  0  0  0  0  0  0  0  0  0
   69.6459   75.4328   89.5224 C   0  0  0  0  0  0  0  0  0  0  0  0
   66.4961   74.0158   90.9259 C   0  0  0  0  0  0  0  0  0  0  0  0
   66.3291   72.7011   91.3976 C   0  0  0  0  0  0  0  0  0  0  0  0
   65.0546   72.1380   91.4889 C   0  0  0  0  0  0  0  0  0  0  0  0
   63.9307   72.8785   91.1229 C   0  0  0  0  0  0  0  0  0  0  0  0
   64.0721   74.1971   90.6616 C   0  0  0  0  0  0  0  0  0  0  0  0
   65.3565   74.7513   90.5496 C   0  0  0  0  0  0  0  0  0  0  0  0
   62.9300   74.9945   90.3131 N   0  0  0  0  0  0  0  0  0  0  0  0
   62.1007   74.8792   90.8310 H   0  0  0  0  0  0  0  0  0  0  0  0
   62.9453   76.1531   89.0197 S   0  0  0  0  0  0  0  0  0  0  0  0
   63.1082   77.5389   89.5781 O   0  0  0  0  0  0  0  0  0  0  0  0
   61.6358   76.0805   88.2848 O   0  0  0  0  0  0  0  0  0  0  0  0
   64.2693   75.8002   87.8693 C   0  0  0  0  0  0  0  0  0  0  0  0
   65.4521   76.6920   88.1274 C   0  0  0  0  0  0  0  0  0  0  0  0
   66.4491   76.8459   87.1492 C   0  0  0  0  0  0  0  0  0  0  0  0
   67.5640   77.6532   87.3981 C   0  0  0  0  0  0  0  0  0  0  0  0
   67.6965   78.3060   88.6274 C   0  0  0  0  0  0  0  0  0  0  0  0
   66.7102   78.1565   89.6068 C   0  0  0  0  0  0  0  0  0  0  0  0
   65.5917   77.3541   89.3598 C   0  0  0  0  0  0  0  0  0  0  0  0
   71.7298   76.3944   90.5905 C   0  0  0  0  0  0  0  0  0  0  0  0
   71.9183   77.0497   89.3356 O   0  0  0  0  0  0  0  0  0  0  0  0
   71.3727   80.7471   88.9830 C   0  0  0  0  0  0  0  0  0  0  0  0
   71.1023   79.3728   89.1503 C   0  0  0  0  0  0  0  0  0  0  0  0
   72.1443   78.4265   89.1621 C   0  0  0  0  0  0  0  0  0  0  0  0
   73.4608   78.8607   88.9931 C   0  0  0  0  0  0  0  0  0  0  0  0
   73.7449   80.2152   88.8229 C   0  0  0  0  0  0  0  0  0  0  0  0
   72.7135   81.1641   88.8194 C   0  0  0  0  0  0  0  0  0  0  0  0
   73.0282   82.5137   88.6559 O   0  0  0  0  0  0  0  0  0  0  0  0
   73.9211   82.7769   88.5484 H   0  0  0  0  0  0  0  0  0  0  0  0
   70.1066   82.5253   89.9442 O   0  0  0  0  0  0  0  0  0  0  0  0
   70.2485   81.7204   88.9839 C   0  0  0  0  0  0  0  0  0  0  0  0
   69.3371   81.7635   87.9303 O   0  0  0  0  0  0  0  0  0  0  0  0
   69.4272   81.1729   87.2084 H   0  0  0  0  0  0  0  0  0  0  0  0
 35 36  2  0  0  0
 36 37  1  0  0  0
 36 27  1  0  0  0
 27 28  2  0  0  0
 28 29  1  0  0  0
 29 26  1  0  0  0
 26 25  1  0  0  0
 25  1  1  0  0  0
  1  2  2  0  0  0
  2  3  2  0  0  0
  3  4  2  0  0  0
  4  7  1  0  0  0
  7  8  2  0  0  0
  8  9  1  0  0  0
  9 10  2  0  0  0
 10 11  1  0  0  0
 11 13  1  0  0  0
 13 15  1  0  0  0
 15 16  2  0  0  0
 15 17  2  0  0  0
 15 18  1  0  0  0
 18 19  1  0  0  0
 19 20  2  0  0  0
 20 21  1  0  0  0
 21 22  2  0  0  0
 22 23  1  0  0  0
 23 24  2  0  0  0
 11 12  2  0  0  0
  4  5  2  0  0  0
  5  6  2  0  0  0
 29 30  2  0  0  0
 30 31  1  0  0  0
 31 32  2  0  0  0
 32 33  1  0  0  0
 32 27  1  0  0  0
  6  1  1  0  0  0
 12  7  1  0  0  0
 24 19  1  0  0  0
 37 38  1  0  0  0
 13 14  1  0  0  0
 33 34  1  0  0  0
M  END
> <Activity>
29.3

> <minimizedAffinity>
-7.92338

$$$$
HIPS7784


 38 41  0  0  0  0  0  0  0  0999 V2000
   70.8465   78.9705   89.5055 C   0  0  0  0  0  0  0  0  0  0  0  0
   71.3608   77.7076   89.1939 C   0  0  0  0  0  0  0  0  0  0  0  0
   70.8628   76.6009   89.8042 N   0  0  0  0  0  0  0  0  0  0  0  0
   69.8541   76.6862   90.7149 C   0  0  0  0  0  0  0  0  0  0  0  0
   69.3307   77.9062   91.0151 N   0  0  0  0  0  0  0  0  0  0  0  0
   69.7986   79.0396   90.4305 C   0  0  0  0  0  0  0  0  0  0  0  0
   69.3329   75.4633   91.3750 C   0  0  0  0  0  0  0  0  0  0  0  0
   69.9346   74.9708   92.5474 C   0  0  0  0  0  0  0  0  0  0  0  0
   69.4356   73.8263   93.1724 C   0  0  0  0  0  0  0  0  0  0  0  0
   68.3265   73.1644   92.6460 C   0  0  0  0  0  0  0  0  0  0  0  0
   67.7018   73.6450   91.4841 C   0  0  0  0  0  0  0  0  0  0  0  0
   68.2204   74.7823   90.8461 C   0  0  0  0  0  0  0  0  0  0  0  0
   66.5367   73.0049   90.9414 N   0  0  0  0  0  0  0  0  0  0  0  0
   66.6547   72.1788   90.4191 H   0  0  0  0  0  0  0  0  0  0  0  0
   64.9289   73.6220   91.1646 S   0  0  0  0  0  0  0  0  0  0  0  0
   64.8265   74.3084   92.4976 O   0  0  0  0  0  0  0  0  0  0  0  0
   63.9583   72.4743   91.1377 O   0  0  0  0  0  0  0  0  0  0  0  0
   64.5023   74.7651   89.8561 C   0  0  0  0  0  0  0  0  0  0  0  0
   64.6925   76.1870   90.3069 C   0  0  0  0  0  0  0  0  0  0  0  0
   65.9118   76.8458   90.0746 C   0  0  0  0  0  0  0  0  0  0  0  0
   66.1004   78.1591   90.5177 C   0  0  0  0  0  0  0  0  0  0  0  0
   65.0773   78.8217   91.2029 C   0  0  0  0  0  0  0  0  0  0  0  0
   63.8621   78.1727   91.4398 C   0  0  0  0  0  0  0  0  0  0  0  0
   63.6680   76.8613   90.9940 C   0  0  0  0  0  0  0  0  0  0  0  0
   71.3794   80.2100   88.8370 C   0  0  0  0  0  0  0  0  0  0  0  0
   70.3150   81.0142   88.3272 O   0  0  0  0  0  0  0  0  0  0  0  0
   67.7420   78.7962   86.7294 C   0  0  0  0  0  0  0  0  0  0  0  0
   68.8115   79.2177   87.5469 C   0  0  0  0  0  0  0  0  0  0  0  0
   69.2594   80.5519   87.5218 C   0  0  0  0  0  0  0  0  0  0  0  0
   68.6390   81.4626   86.6638 C   0  0  0  0  0  0  0  0  0  0  0  0
   67.5829   81.0614   85.8465 C   0  0  0  0  0  0  0  0  0  0  0  0
   67.1255   79.7370   85.8730 C   0  0  0  0  0  0  0  0  0  0  0  0
   66.0610   79.3659   85.0506 O   0  0  0  0  0  0  0  0  0  0  0  0
   65.6611   79.9992   84.4875 H   0  0  0  0  0  0  0  0  0  0  0  0
   67.9698   76.5217   87.4103 O   0  0  0  0  0  0  0  0  0  0  0  0
   67.2890   77.3811   86.7873 C   0  0  0  0  0  0  0  0  0  0  0  0
   66.1108   76.9796   86.1602 O   0  0  0  0  0  0  0  0  0  0  0  0
   65.5923   77.6047   85.6927 H   0  0  0  0  0  0  0  0  0  0  0  0
 35 36  2  0  0  0
 36 37  1  0  0  0
 36 27  1  0  0  0
 27 28  2  0  0  0
 28 29  1  0  0  0
 29 26  1  0  0  0
 26 25  1  0  0  0
 25  1  1  0  0  0
  1  2  2  0  0  0
  2  3  2  0  0  0
  3  4  2  0  0  0
  4  7  1  0  0  0
  7  8  2  0  0  0
  8  9  1  0  0  0
  9 10  2  0  0  0
 10 11  1  0  0  0
 11 13  1  0  0  0
 13 15  1  0  0  0
 15 16  2  0  0  0
 15 17  2  0  0  0
 15 18  1  0  0  0
 18 19  1  0  0  0
 19 20  2  0  0  0
 20 21  1  0  0  0
 21 22  2  0  0  0
 22 23  1  0  0  0
 23 24  2  0  0  0
 11 12  2  0  0  0
  4  5  2  0  0  0
  5  6  2  0  0  0
 29 30  2  0  0  0
 30 31  1  0  0  0
 31 32  2  0  0  0
 32 33  1  0  0  0
 32 27  1  0  0  0
  6  1  1  0  0  0
 12  7  1  0  0  0
 24 19  1  0  0  0
 37 38  1  0  0  0
 13 14  1  0  0  0
 33 34  1  0  0  0
M  END
> <Activity>
29.3

> <minimizedAffinity>
-7.76915

$$$$
HIPS7784


 38 41  0  0  0  0  0  0  0  0999 V2000
   65.8145   75.8070   90.0691 C   0  0  0  0  0  0  0  0  0  0  0  0
   65.3330   77.1187   90.1346 C   0  0  0  0  0  0  0  0  0  0  0  0
   65.8484   78.0740   89.3179 N   0  0  0  0  0  0  0  0  0  0  0  0
   66.8261   77.7840   88.4156 C   0  0  0  0  0  0  0  0  0  0  0  0
   67.2922   76.5083   88.3272 N   0  0  0  0  0  0  0  0  0  0  0  0
   66.8071   75.5214   89.1248 C   0  0  0  0  0  0  0  0  0  0  0  0
   67.3796   78.8473   87.5404 C   0  0  0  0  0  0  0  0  0  0  0  0
   67.1119   78.8492   86.1594 C   0  0  0  0  0  0  0  0  0  0  0  0
   67.6249   79.8567   85.3400 C   0  0  0  0  0  0  0  0  0  0  0  0
   68.4005   80.8797   85.8851 C   0  0  0  0  0  0  0  0  0  0  0  0
   68.6701   80.9055   87.2628 C   0  0  0  0  0  0  0  0  0  0  0  0
   68.1719   79.8785   88.0791 C   0  0  0  0  0  0  0  0  0  0  0  0
   69.4345   81.9663   87.8561 N   0  0  0  0  0  0  0  0  0  0  0  0
   69.3734   82.8666   87.4625 H   0  0  0  0  0  0  0  0  0  0  0  0
   70.4619   81.7331   89.2366 S   0  0  0  0  0  0  0  0  0  0  0  0
   70.3297   80.3227   89.7385 O   0  0  0  0  0  0  0  0  0  0  0  0
   70.0339   82.6750   90.3273 O   0  0  0  0  0  0  0  0  0  0  0  0
   72.1682   82.0744   88.8205 C   0  0  0  0  0  0  0  0  0  0  0  0
   72.9687   80.8027   88.7666 C   0  0  0  0  0  0  0  0  0  0  0  0
   72.3453   79.5877   88.4354 C   0  0  0  0  0  0  0  0  0  0  0  0
   73.0826   78.3991   88.4117 C   0  0  0  0  0  0  0  0  0  0  0  0
   74.4450   78.4128   88.7262 C   0  0  0  0  0  0  0  0  0  0  0  0
   75.0722   79.6170   89.0587 C   0  0  0  0  0  0  0  0  0  0  0  0
   74.3395   80.8081   89.0787 C   0  0  0  0  0  0  0  0  0  0  0  0
   65.2538   74.7309   90.9606 C   0  0  0  0  0  0  0  0  0  0  0  0
   65.9943   74.6379   92.1782 O   0  0  0  0  0  0  0  0  0  0  0  0
   68.5851   77.2284   92.9969 C   0  0  0  0  0  0  0  0  0  0  0  0
   67.3306   76.6371   92.7390 C   0  0  0  0  0  0  0  0  0  0  0  0
   67.2256   75.2673   92.4322 C   0  0  0  0  0  0  0  0  0  0  0  0
   68.3855   74.4918   92.3722 C   0  0  0  0  0  0  0  0  0  0  0  0
   69.6336   75.0616   92.6210 C   0  0  0  0  0  0  0  0  0  0  0  0
   69.7451   76.4225   92.9362 C   0  0  0  0  0  0  0  0  0  0  0  0
   71.0062   76.9636   93.1890 O   0  0  0  0  0  0  0  0  0  0  0  0
   71.7672   76.4186   93.1454 H   0  0  0  0  0  0  0  0  0  0  0  0
   69.1175   79.0518   94.4393 O   0  0  0  0  0  0  0  0  0  0  0  0
   68.6588   78.6765   93.3262 C   0  0  0  0  0  0  0  0  0  0  0  0
   68.2271   79.6410   92.4173 O   0  0  0  0  0  0  0  0  0  0  0  0
   67.8835   79.3803   91.5854 H   0  0  0  0  0  0  0  0  0  0  0  0
 35 36  2  0  0  0
 36 37  1  0  0  0
 36 27  1  0  0  0
 27 28  2  0  0  0
 28 29  1  0  0  0
 29 26  1  0  0  0
 26 25  1  0  0  0
 25  1  1  0  0  0
  1  2  2  0  0  0
  2  3  2  0  0  0
  3  4  2  0  0  0
  4  7  1  0  0  0
  7  8  2  0  0  0
  8  9  1  0  0  0
  9 10  2  0  0  0
 10 11  1  0  0  0
 11 13  1  0  0  0
 13 15  1  0  0  0
 15 16  2  0  0  0
 15 17  2  0  0  0
 15 18  1  0  0  0
 18 19  1  0  0  0
 19 20  2  0  0  0
 20 21  1  0  0  0
 21 22  2  0  0  0
 22 23  1  0  0  0
 23 24  2  0  0  0
 11 12  2  0  0  0
  4  5  2  0  0  0
  5  6  2  0  0  0
 29 30  2  0  0  0
 30 31  1  0  0  0
 31 32  2  0  0  0
 32 33  1  0  0  0
 32 27  1  0  0  0
  6  1  1  0  0  0
 12  7  1  0  0  0
 24 19  1  0  0  0
 37 38  1  0  0  0
 13 14  1  0  0  0
 33 34  1  0  0  0
M  END
> <Activity>
29.3

> <minimizedAffinity>
-7.71509

$$$$
HIPS7784


 38 41  0  0  0  0  0  0  0  0999 V2000
   71.2628   79.0568   89.4340 C   0  0  0  0  0  0  0  0  0  0  0  0
   70.1931   79.3110   90.2986 C   0  0  0  0  0  0  0  0  0  0  0  0
   69.5481   78.2801   90.9041 N   0  0  0  0  0  0  0  0  0  0  0  0
   69.9268   76.9882   90.6996 C   0  0  0  0  0  0  0  0  0  0  0  0
   70.9776   76.7259   89.8753 N   0  0  0  0  0  0  0  0  0  0  0  0
   71.6507   77.7251   89.2479 C   0  0  0  0  0  0  0  0  0  0  0  0
   69.2004   75.8784   91.3656 C   0  0  0  0  0  0  0  0  0  0  0  0
   69.8834   74.9743   92.1994 C   0  0  0  0  0  0  0  0  0  0  0  0
   69.1957   73.9376   92.8334 C   0  0  0  0  0  0  0  0  0  0  0  0
   67.8198   73.7939   92.6550 C   0  0  0  0  0  0  0  0  0  0  0  0
   67.1151   74.6921   91.8376 C   0  0  0  0  0  0  0  0  0  0  0  0
   67.8138   75.7188   91.1840 C   0  0  0  0  0  0  0  0  0  0  0  0
   65.6932   74.5899   91.6656 N   0  0  0  0  0  0  0  0  0  0  0  0
   65.2055   73.9069   92.1804 H   0  0  0  0  0  0  0  0  0  0  0  0
   64.7949   75.6163   90.5908 S   0  0  0  0  0  0  0  0  0  0  0  0
   65.3783   75.5415   89.2078 O   0  0  0  0  0  0  0  0  0  0  0  0
   64.8908   77.0352   91.0783 O   0  0  0  0  0  0  0  0  0  0  0  0
   63.0714   75.1381   90.5519 C   0  0  0  0  0  0  0  0  0  0  0  0
   62.8204   73.9723   91.4678 C   0  0  0  0  0  0  0  0  0  0  0  0
   63.5551   72.7838   91.3179 C   0  0  0  0  0  0  0  0  0  0  0  0
   63.3039   71.6886   92.1510 C   0  0  0  0  0  0  0  0  0  0  0  0
   62.3127   71.7681   93.1341 C   0  0  0  0  0  0  0  0  0  0  0  0
   61.5760   72.9461   93.2884 C   0  0  0  0  0  0  0  0  0  0  0  0
   61.8276   74.0449   92.4605 C   0  0  0  0  0  0  0  0  0  0  0  0
   71.9958   80.1843   88.7567 C   0  0  0  0  0  0  0  0  0  0  0  0
   71.0806   81.1050   88.1614 O   0  0  0  0  0  0  0  0  0  0  0  0
   67.9607   79.3060   87.1019 C   0  0  0  0  0  0  0  0  0  0  0  0
   69.1425   79.6168   87.8065 C   0  0  0  0  0  0  0  0  0  0  0  0
   69.9028   80.7550   87.4781 C   0  0  0  0  0  0  0  0  0  0  0  0
   69.4811   81.5768   86.4306 C   0  0  0  0  0  0  0  0  0  0  0  0
   68.3172   81.2818   85.7217 C   0  0  0  0  0  0  0  0  0  0  0  0
   67.5502   80.1555   86.0490 C   0  0  0  0  0  0  0  0  0  0  0  0
   66.3853   79.8899   85.3281 O   0  0  0  0  0  0  0  0  0  0  0  0
   66.1243   80.4609   84.6326 H   0  0  0  0  0  0  0  0  0  0  0  0
   67.1656   77.0887   86.7279 O   0  0  0  0  0  0  0  0  0  0  0  0
   67.1773   78.1003   87.4807 C   0  0  0  0  0  0  0  0  0  0  0  0
   66.4471   78.0637   88.6674 O   0  0  0  0  0  0  0  0  0  0  0  0
   66.4444   78.8063   89.2389 H   0  0  0  0  0  0  0  0  0  0  0  0
 35 36  2  0  0  0
 36 37  1  0  0  0
 36 27  1  0  0  0
 27 28  2  0  0  0
 28 29  1  0  0  0
 29 26  1  0  0  0
 26 25  1  0  0  0
 25  1  1  0  0  0
  1  2  2  0  0  0
  2  3  2  0  0  0
  3  4  2  0  0  0
  4  7  1  0  0  0
  7  8  2  0  0  0
  8  9  1  0  0  0
  9 10  2  0  0  0
 10 11  1  0  0  0
 11 13  1  0  0  0
 13 15  1  0  0  0
 15 16  2  0  0  0
 15 17  2  0  0  0
 15 18  1  0  0  0
 18 19  1  0  0  0
 19 20  2  0  0  0
 20 21  1  0  0  0
 21 22  2  0  0  0
 22 23  1  0  0  0
 23 24  2  0  0  0
 11 12  2  0  0  0
  4  5  2  0  0  0
  5  6  2  0  0  0
 29 30  2  0  0  0
 30 31  1  0  0  0
 31 32  2  0  0  0
 32 33  1  0  0  0
 32 27  1  0  0  0
  6  1  1  0  0  0
 12  7  1  0  0  0
 24 19  1  0  0  0
 37 38  1  0  0  0
 13 14  1  0  0  0
 33 34  1  0  0  0
M  END
> <Activity>
29.3

> <minimizedAffinity>
-7.48882

$$$$
HIPS7784


 38 41  0  0  0  0  0  0  0  0999 V2000
   65.3687   76.1576   89.8329 C   0  0  0  0  0  0  0  0  0  0  0  0
   66.0897   75.7711   88.6983 C   0  0  0  0  0  0  0  0  0  0  0  0
   66.6996   76.7090   87.9277 N   0  0  0  0  0  0  0  0  0  0  0  0
   66.6382   78.0329   88.2400 C   0  0  0  0  0  0  0  0  0  0  0  0
   65.9558   78.4231   89.3511 N   0  0  0  0  0  0  0  0  0  0  0  0
   65.3296   77.5202   90.1498 C   0  0  0  0  0  0  0  0  0  0  0  0
   67.3054   79.0396   87.3772 C   0  0  0  0  0  0  0  0  0  0  0  0
   66.8146   79.3155   86.0881 C   0  0  0  0  0  0  0  0  0  0  0  0
   67.4376   80.2709   85.2826 C   0  0  0  0  0  0  0  0  0  0  0  0
   68.5486   80.9707   85.7529 C   0  0  0  0  0  0  0  0  0  0  0  0
   69.0482   80.7213   87.0412 C   0  0  0  0  0  0  0  0  0  0  0  0
   68.4332   79.7440   87.8387 C   0  0  0  0  0  0  0  0  0  0  0  0
   70.1675   81.4529   87.5644 N   0  0  0  0  0  0  0  0  0  0  0  0
   70.4383   82.2843   87.1122 H   0  0  0  0  0  0  0  0  0  0  0  0
   71.0650   80.9375   88.9589 S   0  0  0  0  0  0  0  0  0  0  0  0
   70.1199   80.5997   90.0775 O   0  0  0  0  0  0  0  0  0  0  0  0
   71.9587   82.0607   89.4057 O   0  0  0  0  0  0  0  0  0  0  0  0
   72.0801   79.5168   88.5688 C   0  0  0  0  0  0  0  0  0  0  0  0
   71.4479   78.2526   89.0817 C   0  0  0  0  0  0  0  0  0  0  0  0
   72.0186   77.5658   90.1668 C   0  0  0  0  0  0  0  0  0  0  0  0
   71.4479   76.3748   90.6276 C   0  0  0  0  0  0  0  0  0  0  0  0
   70.3088   75.8560   90.0043 C   0  0  0  0  0  0  0  0  0  0  0  0
   69.7361   76.5319   88.9230 C   0  0  0  0  0  0  0  0  0  0  0  0
   70.3010   77.7256   88.4625 C   0  0  0  0  0  0  0  0  0  0  0  0
   64.6898   75.1346   90.7045 C   0  0  0  0  0  0  0  0  0  0  0  0
   65.6191   74.5342   91.6076 O   0  0  0  0  0  0  0  0  0  0  0  0
   68.0226   77.1643   92.7901 C   0  0  0  0  0  0  0  0  0  0  0  0
   66.8752   76.5679   92.2264 C   0  0  0  0  0  0  0  0  0  0  0  0
   66.7496   75.1678   92.1527 C   0  0  0  0  0  0  0  0  0  0  0  0
   67.7850   74.3646   92.6356 C   0  0  0  0  0  0  0  0  0  0  0  0
   68.9274   74.9383   93.1925 C   0  0  0  0  0  0  0  0  0  0  0  0
   69.0555   76.3313   93.2776 C   0  0  0  0  0  0  0  0  0  0  0  0
   70.2061   76.8773   93.8479 O   0  0  0  0  0  0  0  0  0  0  0  0
   70.8833   76.3140   94.1673 H   0  0  0  0  0  0  0  0  0  0  0  0
   68.2436   79.2229   93.9743 O   0  0  0  0  0  0  0  0  0  0  0  0
   68.1188   78.6465   92.8596 C   0  0  0  0  0  0  0  0  0  0  0  0
   68.0749   79.4226   91.7027 O   0  0  0  0  0  0  0  0  0  0  0  0
   67.9824   79.0113   90.8659 H   0  0  0  0  0  0  0  0  0  0  0  0
 35 36  2  0  0  0
 36 37  1  0  0  0
 36 27  1  0  0  0
 27 28  2  0  0  0
 28 29  1  0  0  0
 29 26  1  0  0  0
 26 25  1  0  0  0
 25  1  1  0  0  0
  1  2  2  0  0  0
  2  3  2  0  0  0
  3  4  2  0  0  0
  4  7  1  0  0  0
  7  8  2  0  0  0
  8  9  1  0  0  0
  9 10  2  0  0  0
 10 11  1  0  0  0
 11 13  1  0  0  0
 13 15  1  0  0  0
 15 16  2  0  0  0
 15 17  2  0  0  0
 15 18  1  0  0  0
 18 19  1  0  0  0
 19 20  2  0  0  0
 20 21  1  0  0  0
 21 22  2  0  0  0
 22 23  1  0  0  0
 23 24  2  0  0  0
 11 12  2  0  0  0
  4  5  2  0  0  0
  5  6  2  0  0  0
 29 30  2  0  0  0
 30 31  1  0  0  0
 31 32  2  0  0  0
 32 33  1  0  0  0
 32 27  1  0  0  0
  6  1  1  0  0  0
 12  7  1  0  0  0
 24 19  1  0  0  0
 37 38  1  0  0  0
 13 14  1  0  0  0
 33 34  1  0  0  0
M  END
> <Activity>
29.3

> <minimizedAffinity>
-7.28426

$$$$
HIPS6986


 30 32  0  0  0  0  0  0  0  0999 V2000
   69.7710   76.7246   90.3108 C   0  0  0  0  0  0  0  0  0  0  0  0
   70.9910   76.0379   90.4473 C   0  0  0  0  0  0  0  0  0  0  0  0
   71.0780   74.9023   91.2559 C   0  0  0  0  0  0  0  0  0  0  0  0
   69.9541   74.4420   91.9445 C   0  0  0  0  0  0  0  0  0  0  0  0
   68.7297   75.1185   91.8319 C   0  0  0  0  0  0  0  0  0  0  0  0
   68.6401   76.2466   90.9995 C   0  0  0  0  0  0  0  0  0  0  0  0
   70.5121   80.1562   88.8420 C   0  0  0  0  0  0  0  0  0  0  0  0
   69.4916   80.2573   87.8775 C   0  0  0  0  0  0  0  0  0  0  0  0
   68.5755   79.2170   87.7120 C   0  0  0  0  0  0  0  0  0  0  0  0
   68.6652   78.0676   88.4998 C   0  0  0  0  0  0  0  0  0  0  0  0
   69.6804   77.9435   89.4650 C   0  0  0  0  0  0  0  0  0  0  0  0
   70.6008   78.9967   89.6231 C   0  0  0  0  0  0  0  0  0  0  0  0
   71.4613   81.1702   89.0553 O   0  0  0  0  0  0  0  0  0  0  0  0
   73.5262   82.4522   89.0073 C   0  0  0  0  0  0  0  0  0  0  0  0
   72.7971   81.1858   88.5468 C   0  0  0  0  0  0  0  0  0  0  0  0
   73.5269   79.9436   89.0531 C   0  0  0  0  0  0  0  0  0  0  0  0
   67.5131   74.6212   92.5616 C   0  0  0  0  0  0  0  0  0  0  0  0
   66.7397   73.7930   91.6958 O   0  0  0  0  0  0  0  0  0  0  0  0
   65.3959   74.0207   91.3645 C   0  0  0  0  0  0  0  0  0  0  0  0
   64.3825   73.0870   91.6395 C   0  0  0  0  0  0  0  0  0  0  0  0
   63.0573   73.3716   91.3058 C   0  0  0  0  0  0  0  0  0  0  0  0
   62.7219   74.5826   90.6843 C   0  0  0  0  0  0  0  0  0  0  0  0
   61.3878   74.8395   90.3662 O   0  0  0  0  0  0  0  0  0  0  0  0
   63.7317   75.5278   90.3908 C   0  0  0  0  0  0  0  0  0  0  0  0
   65.0638   75.2285   90.7414 C   0  0  0  0  0  0  0  0  0  0  0  0
   60.7280   74.2050   90.5659 H   0  0  0  0  0  0  0  0  0  0  0  0
   63.4224   76.8222   89.7286 C   0  0  0  0  0  0  0  0  0  0  0  0
   64.0311   77.8722   90.0716 O   0  0  0  0  0  0  0  0  0  0  0  0
   62.4603   76.9000   88.7257 O   0  0  0  0  0  0  0  0  0  0  0  0
   61.9985   76.1297   88.4586 H   0  0  0  0  0  0  0  0  0  0  0  0
 14 15  1  0  0  0
 15 16  1  0  0  0
 15 13  1  0  0  0
 13  7  1  0  0  0
  7  8  2  0  0  0
  8  9  1  0  0  0
  9 10  2  0  0  0
 10 11  1  0  0  0
 11  1  1  0  0  0
  1  2  2  0  0  0
  2  3  1  0  0  0
  3  4  2  0  0  0
  4  5  1  0  0  0
  5 17  1  0  0  0
 17 18  1  0  0  0
 18 19  1  0  0  0
 19 20  2  0  0  0
 20 21  1  0  0  0
 21 22  2  0  0  0
 22 23  1  0  0  0
 22 24  1  0  0  0
 24 27  1  0  0  0
 27 28  2  0  0  0
 27 29  1  0  0  0
 24 25  2  0  0  0
  5  6  2  0  0  0
 11 12  2  0  0  0
 12  7  1  0  0  0
  6  1  1  0  0  0
 25 19  1  0  0  0
 23 26  1  0  0  0
 29 30  1  0  0  0
M  END
> <Activity>
32.3

> <minimizedAffinity>
-9.93959

$$$$
HIPS6986


 30 32  0  0  0  0  0  0  0  0999 V2000
   67.4413   74.7226   91.8385 C   0  0  0  0  0  0  0  0  0  0  0  0
   68.3140   73.9512   92.6272 C   0  0  0  0  0  0  0  0  0  0  0  0
   69.5931   74.4211   92.9346 C   0  0  0  0  0  0  0  0  0  0  0  0
   70.0212   75.6599   92.4537 C   0  0  0  0  0  0  0  0  0  0  0  0
   69.1711   76.4407   91.6555 C   0  0  0  0  0  0  0  0  0  0  0  0
   67.8770   75.9756   91.3676 C   0  0  0  0  0  0  0  0  0  0  0  0
   63.7967   74.6330   90.7469 C   0  0  0  0  0  0  0  0  0  0  0  0
   63.5176   73.2585   90.8687 C   0  0  0  0  0  0  0  0  0  0  0  0
   64.5086   72.3759   91.3021 C   0  0  0  0  0  0  0  0  0  0  0  0
   65.7845   72.8487   91.6159 C   0  0  0  0  0  0  0  0  0  0  0  0
   66.0863   74.2168   91.4955 C   0  0  0  0  0  0  0  0  0  0  0  0
   65.0813   75.0988   91.0558 C   0  0  0  0  0  0  0  0  0  0  0  0
   62.8404   75.5689   90.3177 O   0  0  0  0  0  0  0  0  0  0  0  0
   63.6408   75.5467   88.0224 C   0  0  0  0  0  0  0  0  0  0  0  0
   62.4605   75.8147   88.9619 C   0  0  0  0  0  0  0  0  0  0  0  0
   61.2884   74.9014   88.6098 C   0  0  0  0  0  0  0  0  0  0  0  0
   69.6219   77.7805   91.1441 C   0  0  0  0  0  0  0  0  0  0  0  0
   69.9673   77.6759   89.7645 O   0  0  0  0  0  0  0  0  0  0  0  0
   69.0415   77.6272   88.7119 C   0  0  0  0  0  0  0  0  0  0  0  0
   68.5223   76.4180   88.2192 C   0  0  0  0  0  0  0  0  0  0  0  0
   67.5884   76.4267   87.1818 C   0  0  0  0  0  0  0  0  0  0  0  0
   67.1657   77.6356   86.6120 C   0  0  0  0  0  0  0  0  0  0  0  0
   66.2283   77.6118   85.5787 O   0  0  0  0  0  0  0  0  0  0  0  0
   67.6871   78.8603   87.0890 C   0  0  0  0  0  0  0  0  0  0  0  0
   68.6234   78.8347   88.1424 C   0  0  0  0  0  0  0  0  0  0  0  0
   65.8904   76.7936   85.2715 H   0  0  0  0  0  0  0  0  0  0  0  0
   67.2709   80.1652   86.5114 C   0  0  0  0  0  0  0  0  0  0  0  0
   67.2823   80.3391   85.2622 O   0  0  0  0  0  0  0  0  0  0  0  0
   66.8653   81.2135   87.3323 O   0  0  0  0  0  0  0  0  0  0  0  0
   66.8508   81.1015   88.2625 H   0  0  0  0  0  0  0  0  0  0  0  0
 14 15  1  0  0  0
 15 16  1  0  0  0
 15 13  1  0  0  0
 13  7  1  0  0  0
  7  8  2  0  0  0
  8  9  1  0  0  0
  9 10  2  0  0  0
 10 11  1  0  0  0
 11  1  1  0  0  0
  1  2  2  0  0  0
  2  3  1  0  0  0
  3  4  2  0  0  0
  4  5  1  0  0  0
  5 17  1  0  0  0
 17 18  1  0  0  0
 18 19  1  0  0  0
 19 20  2  0  0  0
 20 21  1  0  0  0
 21 22  2  0  0  0
 22 23  1  0  0  0
 22 24  1  0  0  0
 24 27  1  0  0  0
 27 28  2  0  0  0
 27 29  1  0  0  0
 24 25  2  0  0  0
  5  6  2  0  0  0
 11 12  2  0  0  0
 12  7  1  0  0  0
  6  1  1  0  0  0
 25 19  1  0  0  0
 23 26  1  0  0  0
 29 30  1  0  0  0
M  END
> <Activity>
32.3

> <minimizedAffinity>
-9.93189

$$$$
HIPS6986


 30 32  0  0  0  0  0  0  0  0999 V2000
   69.2727   75.8117   91.1430 C   0  0  0  0  0  0  0  0  0  0  0  0
   70.0062   75.4476   92.2868 C   0  0  0  0  0  0  0  0  0  0  0  0
   69.5613   74.4137   93.1141 C   0  0  0  0  0  0  0  0  0  0  0  0
   68.3773   73.7361   92.8173 C   0  0  0  0  0  0  0  0  0  0  0  0
   67.6239   74.0906   91.6876 C   0  0  0  0  0  0  0  0  0  0  0  0
   68.0863   75.1152   90.8450 C   0  0  0  0  0  0  0  0  0  0  0  0
   69.2341   78.7897   88.7740 C   0  0  0  0  0  0  0  0  0  0  0  0
   70.6141   79.0113   88.6048 C   0  0  0  0  0  0  0  0  0  0  0  0
   71.5417   78.1970   89.2570 C   0  0  0  0  0  0  0  0  0  0  0  0
   71.1086   77.1583   90.0835 C   0  0  0  0  0  0  0  0  0  0  0  0
   69.7349   76.9232   90.2711 C   0  0  0  0  0  0  0  0  0  0  0  0
   68.8071   77.7508   89.6111 C   0  0  0  0  0  0  0  0  0  0  0  0
   68.2540   79.5745   88.1430 O   0  0  0  0  0  0  0  0  0  0  0  0
   67.0731   79.3794   86.0271 C   0  0  0  0  0  0  0  0  0  0  0  0
   68.2655   79.9857   86.7741 C   0  0  0  0  0  0  0  0  0  0  0  0
   68.2005   81.5105   86.7216 C   0  0  0  0  0  0  0  0  0  0  0  0
   66.3542   73.3571   91.3561 C   0  0  0  0  0  0  0  0  0  0  0  0
   65.2306   74.1352   91.7631 O   0  0  0  0  0  0  0  0  0  0  0  0
   64.4418   74.9096   90.8997 C   0  0  0  0  0  0  0  0  0  0  0  0
   64.5740   76.3053   90.8052 C   0  0  0  0  0  0  0  0  0  0  0  0
   63.7765   77.0267   89.9152 C   0  0  0  0  0  0  0  0  0  0  0  0
   62.8289   76.3733   89.1151 C   0  0  0  0  0  0  0  0  0  0  0  0
   62.0489   77.1215   88.2327 O   0  0  0  0  0  0  0  0  0  0  0  0
   62.6759   74.9706   89.2066 C   0  0  0  0  0  0  0  0  0  0  0  0
   63.4944   74.2560   90.1044 C   0  0  0  0  0  0  0  0  0  0  0  0
   62.1599   78.0505   88.1814 H   0  0  0  0  0  0  0  0  0  0  0  0
   61.6808   74.2372   88.3809 C   0  0  0  0  0  0  0  0  0  0  0  0
   60.4525   74.5064   88.4792 O   0  0  0  0  0  0  0  0  0  0  0  0
   62.0825   73.2450   87.4913 O   0  0  0  0  0  0  0  0  0  0  0  0
   62.9910   73.0323   87.4057 H   0  0  0  0  0  0  0  0  0  0  0  0
 14 15  1  0  0  0
 15 16  1  0  0  0
 15 13  1  0  0  0
 13  7  1  0  0  0
  7  8  2  0  0  0
  8  9  1  0  0  0
  9 10  2  0  0  0
 10 11  1  0  0  0
 11  1  1  0  0  0
  1  2  2  0  0  0
  2  3  1  0  0  0
  3  4  2  0  0  0
  4  5  1  0  0  0
  5 17  1  0  0  0
 17 18  1  0  0  0
 18 19  1  0  0  0
 19 20  2  0  0  0
 20 21  1  0  0  0
 21 22  2  0  0  0
 22 23  1  0  0  0
 22 24  1  0  0  0
 24 27  1  0  0  0
 27 28  2  0  0  0
 27 29  1  0  0  0
 24 25  2  0  0  0
  5  6  2  0  0  0
 11 12  2  0  0  0
 12  7  1  0  0  0
  6  1  1  0  0  0
 25 19  1  0  0  0
 23 26  1  0  0  0
 29 30  1  0  0  0
M  END
> <Activity>
32.3

> <minimizedAffinity>
-9.68353

$$$$
HIPS6986


 30 32  0  0  0  0  0  0  0  0999 V2000
   68.7696   75.9946   90.6852 C   0  0  0  0  0  0  0  0  0  0  0  0
   69.7439   75.7369   91.6666 C   0  0  0  0  0  0  0  0  0  0  0  0
   69.5695   74.6959   92.5815 C   0  0  0  0  0  0  0  0  0  0  0  0
   68.4199   73.9050   92.5356 C   0  0  0  0  0  0  0  0  0  0  0  0
   67.4298   74.1519   91.5722 C   0  0  0  0  0  0  0  0  0  0  0  0
   67.6192   75.1847   90.6389 C   0  0  0  0  0  0  0  0  0  0  0  0
   70.0572   79.1883   89.0651 C   0  0  0  0  0  0  0  0  0  0  0  0
   69.2573   79.2391   87.9077 C   0  0  0  0  0  0  0  0  0  0  0  0
   68.3111   78.2423   87.6631 C   0  0  0  0  0  0  0  0  0  0  0  0
   68.1521   77.1863   88.5628 C   0  0  0  0  0  0  0  0  0  0  0  0
   68.9448   77.1130   89.7220 C   0  0  0  0  0  0  0  0  0  0  0  0
   69.8976   78.1216   89.9590 C   0  0  0  0  0  0  0  0  0  0  0  0
   71.0243   80.1626   89.3655 O   0  0  0  0  0  0  0  0  0  0  0  0
   72.6304   81.9073   88.8310 C   0  0  0  0  0  0  0  0  0  0  0  0
   72.1792   80.4649   88.5796 C   0  0  0  0  0  0  0  0  0  0  0  0
   73.2939   79.4908   88.9546 C   0  0  0  0  0  0  0  0  0  0  0  0
   66.1951   73.2965   91.5101 C   0  0  0  0  0  0  0  0  0  0  0  0
   65.0549   74.0733   91.8710 O   0  0  0  0  0  0  0  0  0  0  0  0
   64.2996   74.8449   90.9757 C   0  0  0  0  0  0  0  0  0  0  0  0
   64.4207   76.2426   90.8963 C   0  0  0  0  0  0  0  0  0  0  0  0
   63.6585   76.9613   89.9737 C   0  0  0  0  0  0  0  0  0  0  0  0
   62.7575   76.3031   89.1253 C   0  0  0  0  0  0  0  0  0  0  0  0
   62.0121   77.0488   88.2113 O   0  0  0  0  0  0  0  0  0  0  0  0
   62.6158   74.8982   89.2006 C   0  0  0  0  0  0  0  0  0  0  0  0
   63.3986   74.1864   90.1320 C   0  0  0  0  0  0  0  0  0  0  0  0
   62.1152   77.9792   88.1712 H   0  0  0  0  0  0  0  0  0  0  0  0
   61.6694   74.1597   88.3240 C   0  0  0  0  0  0  0  0  0  0  0  0
   60.4331   74.4032   88.3772 O   0  0  0  0  0  0  0  0  0  0  0  0
   62.1262   73.1908   87.4352 O   0  0  0  0  0  0  0  0  0  0  0  0
   63.0415   72.9974   87.3827 H   0  0  0  0  0  0  0  0  0  0  0  0
 14 15  1  0  0  0
 15 16  1  0  0  0
 15 13  1  0  0  0
 13  7  1  0  0  0
  7  8  2  0  0  0
  8  9  1  0  0  0
  9 10  2  0  0  0
 10 11  1  0  0  0
 11  1  1  0  0  0
  1  2  2  0  0  0
  2  3  1  0  0  0
  3  4  2  0  0  0
  4  5  1  0  0  0
  5 17  1  0  0  0
 17 18  1  0  0  0
 18 19  1  0  0  0
 19 20  2  0  0  0
 20 21  1  0  0  0
 21 22  2  0  0  0
 22 23  1  0  0  0
 22 24  1  0  0  0
 24 27  1  0  0  0
 27 28  2  0  0  0
 27 29  1  0  0  0
 24 25  2  0  0  0
  5  6  2  0  0  0
 11 12  2  0  0  0
 12  7  1  0  0  0
  6  1  1  0  0  0
 25 19  1  0  0  0
 23 26  1  0  0  0
 29 30  1  0  0  0
M  END
> <Activity>
32.3

> <minimizedAffinity>
-9.54698

$$$$
HIPS6986


 30 32  0  0  0  0  0  0  0  0999 V2000
   67.6739   74.2771   91.5369 C   0  0  0  0  0  0  0  0  0  0  0  0
   68.2676   74.0316   92.7883 C   0  0  0  0  0  0  0  0  0  0  0  0
   69.6207   74.3086   92.9968 C   0  0  0  0  0  0  0  0  0  0  0  0
   70.4003   74.8250   91.9601 C   0  0  0  0  0  0  0  0  0  0  0  0
   69.8313   75.0666   90.7003 C   0  0  0  0  0  0  0  0  0  0  0  0
   68.4647   74.8089   90.5008 C   0  0  0  0  0  0  0  0  0  0  0  0
   63.9851   74.6929   90.6987 C   0  0  0  0  0  0  0  0  0  0  0  0
   63.5190   73.3792   90.8963 C   0  0  0  0  0  0  0  0  0  0  0  0
   64.4004   72.3738   91.2981 C   0  0  0  0  0  0  0  0  0  0  0  0
   65.7508   72.6625   91.5050 C   0  0  0  0  0  0  0  0  0  0  0  0
   66.2385   73.9666   91.3076 C   0  0  0  0  0  0  0  0  0  0  0  0
   65.3428   74.9732   90.9004 C   0  0  0  0  0  0  0  0  0  0  0  0
   63.1461   75.7459   90.2964 O   0  0  0  0  0  0  0  0  0  0  0  0
   63.8127   75.6595   87.9603 C   0  0  0  0  0  0  0  0  0  0  0  0
   62.7035   75.9993   88.9612 C   0  0  0  0  0  0  0  0  0  0  0  0
   61.4664   75.1472   88.6866 C   0  0  0  0  0  0  0  0  0  0  0  0
   70.6626   75.6334   89.5833 C   0  0  0  0  0  0  0  0  0  0  0  0
   70.3561   77.0155   89.4111 O   0  0  0  0  0  0  0  0  0  0  0  0
   69.0916   77.5845   89.6224 C   0  0  0  0  0  0  0  0  0  0  0  0
   68.1398   77.7098   88.5963 C   0  0  0  0  0  0  0  0  0  0  0  0
   66.8883   78.2668   88.8649 C   0  0  0  0  0  0  0  0  0  0  0  0
   66.5690   78.7171   90.1534 C   0  0  0  0  0  0  0  0  0  0  0  0
   65.3084   79.2661   90.3913 O   0  0  0  0  0  0  0  0  0  0  0  0
   67.5199   78.6082   91.1942 C   0  0  0  0  0  0  0  0  0  0  0  0
   68.7760   78.0362   90.9083 C   0  0  0  0  0  0  0  0  0  0  0  0
   64.6870   79.3327   89.6931 H   0  0  0  0  0  0  0  0  0  0  0  0
   67.2260   79.0769   92.5739 C   0  0  0  0  0  0  0  0  0  0  0  0
   66.9345   80.2856   92.7852 O   0  0  0  0  0  0  0  0  0  0  0  0
   67.2684   78.1972   93.6518 O   0  0  0  0  0  0  0  0  0  0  0  0
   67.4832   77.2958   93.5127 H   0  0  0  0  0  0  0  0  0  0  0  0
 14 15  1  0  0  0
 15 16  1  0  0  0
 15 13  1  0  0  0
 13  7  1  0  0  0
  7  8  2  0  0  0
  8  9  1  0  0  0
  9 10  2  0  0  0
 10 11  1  0  0  0
 11  1  1  0  0  0
  1  2  2  0  0  0
  2  3  1  0  0  0
  3  4  2  0  0  0
  4  5  1  0  0  0
  5 17  1  0  0  0
 17 18  1  0  0  0
 18 19  1  0  0  0
 19 20  2  0  0  0
 20 21  1  0  0  0
 21 22  2  0  0  0
 22 23  1  0  0  0
 22 24  1  0  0  0
 24 27  1  0  0  0
 27 28  2  0  0  0
 27 29  1  0  0  0
 24 25  2  0  0  0
  5  6  2  0  0  0
 11 12  2  0  0  0
 12  7  1  0  0  0
  6  1  1  0  0  0
 25 19  1  0  0  0
 23 26  1  0  0  0
 29 30  1  0  0  0
M  END
> <Activity>
32.3

> <minimizedAffinity>
-9.46164

$$$$
HIPS6986


 30 32  0  0  0  0  0  0  0  0999 V2000
   67.5520   75.2708   91.9149 C   0  0  0  0  0  0  0  0  0  0  0  0
   67.6132   76.0866   93.0592 C   0  0  0  0  0  0  0  0  0  0  0  0
   68.8045   76.7259   93.4104 C   0  0  0  0  0  0  0  0  0  0  0  0
   69.9505   76.5538   92.6318 C   0  0  0  0  0  0  0  0  0  0  0  0
   69.9149   75.7351   91.4926 C   0  0  0  0  0  0  0  0  0  0  0  0
   68.7092   75.1124   91.1291 C   0  0  0  0  0  0  0  0  0  0  0  0
   63.9586   74.6621   90.8196 C   0  0  0  0  0  0  0  0  0  0  0  0
   63.8981   73.2568   90.8794 C   0  0  0  0  0  0  0  0  0  0  0  0
   65.0176   72.5213   91.2728 C   0  0  0  0  0  0  0  0  0  0  0  0
   66.2062   73.1730   91.6078 C   0  0  0  0  0  0  0  0  0  0  0  0
   66.2902   74.5755   91.5492 C   0  0  0  0  0  0  0  0  0  0  0  0
   65.1569   75.3085   91.1494 C   0  0  0  0  0  0  0  0  0  0  0  0
   62.8652   75.4555   90.4328 O   0  0  0  0  0  0  0  0  0  0  0  0
   63.6403   75.5183   88.1297 C   0  0  0  0  0  0  0  0  0  0  0  0
   62.4638   75.7281   89.0884 C   0  0  0  0  0  0  0  0  0  0  0  0
   61.3129   74.7931   88.7231 C   0  0  0  0  0  0  0  0  0  0  0  0
   71.1424   75.5551   90.6435 C   0  0  0  0  0  0  0  0  0  0  0  0
   70.8951   76.0545   89.3309 O   0  0  0  0  0  0  0  0  0  0  0  0
   70.5920   77.3905   89.0297 C   0  0  0  0  0  0  0  0  0  0  0  0
   71.4864   78.4434   89.2870 C   0  0  0  0  0  0  0  0  0  0  0  0
   71.1426   79.7537   88.9502 C   0  0  0  0  0  0  0  0  0  0  0  0
   69.9016   80.0378   88.3636 C   0  0  0  0  0  0  0  0  0  0  0  0
   69.5884   81.3573   88.0351 O   0  0  0  0  0  0  0  0  0  0  0  0
   68.9861   78.9908   88.1085 C   0  0  0  0  0  0  0  0  0  0  0  0
   69.3516   77.6724   88.4473 C   0  0  0  0  0  0  0  0  0  0  0  0
   70.2037   82.0421   88.2092 H   0  0  0  0  0  0  0  0  0  0  0  0
   67.6576   79.2467   87.4926 C   0  0  0  0  0  0  0  0  0  0  0  0
   67.1059   80.3738   87.6187 O   0  0  0  0  0  0  0  0  0  0  0  0
   67.0008   78.2536   86.7717 O   0  0  0  0  0  0  0  0  0  0  0  0
   67.3963   77.4105   86.6682 H   0  0  0  0  0  0  0  0  0  0  0  0
 14 15  1  0  0  0
 15 16  1  0  0  0
 15 13  1  0  0  0
 13  7  1  0  0  0
  7  8  2  0  0  0
  8  9  1  0  0  0
  9 10  2  0  0  0
 10 11  1  0  0  0
 11  1  1  0  0  0
  1  2  2  0  0  0
  2  3  1  0  0  0
  3  4  2  0  0  0
  4  5  1  0  0  0
  5 17  1  0  0  0
 17 18  1  0  0  0
 18 19  1  0  0  0
 19 20  2  0  0  0
 20 21  1  0  0  0
 21 22  2  0  0  0
 22 23  1  0  0  0
 22 24  1  0  0  0
 24 27  1  0  0  0
 27 28  2  0  0  0
 27 29  1  0  0  0
 24 25  2  0  0  0
  5  6  2  0  0  0
 11 12  2  0  0  0
 12  7  1  0  0  0
  6  1  1  0  0  0
 25 19  1  0  0  0
 23 26  1  0  0  0
 29 30  1  0  0  0
M  END
> <Activity>
32.3

> <minimizedAffinity>
-9.29222

$$$$
HIPS6986


 30 32  0  0  0  0  0  0  0  0999 V2000
   67.5097   75.4682   91.8926 C   0  0  0  0  0  0  0  0  0  0  0  0
   67.4938   76.4108   92.9366 C   0  0  0  0  0  0  0  0  0  0  0  0
   68.6559   77.1047   93.2821 C   0  0  0  0  0  0  0  0  0  0  0  0
   69.8488   76.8623   92.5984 C   0  0  0  0  0  0  0  0  0  0  0  0
   69.8899   75.9178   91.5612 C   0  0  0  0  0  0  0  0  0  0  0  0
   68.7141   75.2387   91.2009 C   0  0  0  0  0  0  0  0  0  0  0  0
   63.9451   74.6953   90.8070 C   0  0  0  0  0  0  0  0  0  0  0  0
   63.9448   73.2894   90.8807 C   0  0  0  0  0  0  0  0  0  0  0  0
   65.0950   72.6065   91.2802 C   0  0  0  0  0  0  0  0  0  0  0  0
   66.2548   73.3118   91.6076 C   0  0  0  0  0  0  0  0  0  0  0  0
   66.2786   74.7159   91.5350 C   0  0  0  0  0  0  0  0  0  0  0  0
   65.1148   75.3957   91.1292 C   0  0  0  0  0  0  0  0  0  0  0  0
   62.8184   75.4372   90.4135 O   0  0  0  0  0  0  0  0  0  0  0  0
   63.6215   75.5264   88.1208 C   0  0  0  0  0  0  0  0  0  0  0  0
   62.4319   75.7200   89.0667 C   0  0  0  0  0  0  0  0  0  0  0  0
   61.2914   74.7817   88.6785 C   0  0  0  0  0  0  0  0  0  0  0  0
   71.1685   75.6606   90.8134 C   0  0  0  0  0  0  0  0  0  0  0  0
   71.0526   76.1555   89.4810 O   0  0  0  0  0  0  0  0  0  0  0  0
   70.7421   77.4819   89.1469 C   0  0  0  0  0  0  0  0  0  0  0  0
   69.4500   77.8811   88.7652 C   0  0  0  0  0  0  0  0  0  0  0  0
   69.1903   79.2184   88.4610 C   0  0  0  0  0  0  0  0  0  0  0  0
   70.2126   80.1757   88.5209 C   0  0  0  0  0  0  0  0  0  0  0  0
   69.9209   81.5053   88.2144 O   0  0  0  0  0  0  0  0  0  0  0  0
   71.5206   79.7880   88.8925 C   0  0  0  0  0  0  0  0  0  0  0  0
   71.7645   78.4352   89.2042 C   0  0  0  0  0  0  0  0  0  0  0  0
   69.0501   81.7495   87.9695 H   0  0  0  0  0  0  0  0  0  0  0  0
   72.6358   80.7682   88.9646 C   0  0  0  0  0  0  0  0  0  0  0  0
   73.8304   80.3804   88.8493 O   0  0  0  0  0  0  0  0  0  0  0  0
   72.3849   82.1231   89.1615 O   0  0  0  0  0  0  0  0  0  0  0  0
   71.5034   82.4284   89.2492 H   0  0  0  0  0  0  0  0  0  0  0  0
 14 15  1  0  0  0
 15 16  1  0  0  0
 15 13  1  0  0  0
 13  7  1  0  0  0
  7  8  2  0  0  0
  8  9  1  0  0  0
  9 10  2  0  0  0
 10 11  1  0  0  0
 11  1  1  0  0  0
  1  2  2  0  0  0
  2  3  1  0  0  0
  3  4  2  0  0  0
  4  5  1  0  0  0
  5 17  1  0  0  0
 17 18  1  0  0  0
 18 19  1  0  0  0
 19 20  2  0  0  0
 20 21  1  0  0  0
 21 22  2  0  0  0
 22 23  1  0  0  0
 22 24  1  0  0  0
 24 27  1  0  0  0
 27 28  2  0  0  0
 27 29  1  0  0  0
 24 25  2  0  0  0
  5  6  2  0  0  0
 11 12  2  0  0  0
 12  7  1  0  0  0
  6  1  1  0  0  0
 25 19  1  0  0  0
 23 26  1  0  0  0
 29 30  1  0  0  0
M  END
> <Activity>
32.3

> <minimizedAffinity>
-9.22505

$$$$
HIPS6986


 30 32  0  0  0  0  0  0  0  0999 V2000
   70.2300   76.6188   90.5043 C   0  0  0  0  0  0  0  0  0  0  0  0
   71.2544   75.6636   90.6349 C   0  0  0  0  0  0  0  0  0  0  0  0
   71.0499   74.5040   91.3863 C   0  0  0  0  0  0  0  0  0  0  0  0
   69.8268   74.2857   92.0231 C   0  0  0  0  0  0  0  0  0  0  0  0
   68.7951   75.2308   91.9158 C   0  0  0  0  0  0  0  0  0  0  0  0
   68.9960   76.3848   91.1402 C   0  0  0  0  0  0  0  0  0  0  0  0
   69.5774   79.6752   88.3330 C   0  0  0  0  0  0  0  0  0  0  0  0
   70.8783   80.2011   88.2183 C   0  0  0  0  0  0  0  0  0  0  0  0
   71.9517   79.5634   88.8429 C   0  0  0  0  0  0  0  0  0  0  0  0
   71.7434   78.4007   89.5876 C   0  0  0  0  0  0  0  0  0  0  0  0
   70.4513   77.8618   89.7199 C   0  0  0  0  0  0  0  0  0  0  0  0
   69.3750   78.5129   89.0884 C   0  0  0  0  0  0  0  0  0  0  0  0
   68.4589   80.2715   87.7261 O   0  0  0  0  0  0  0  0  0  0  0  0
   67.0576   79.5983   85.8573 C   0  0  0  0  0  0  0  0  0  0  0  0
   68.2566   80.4322   86.3204 C   0  0  0  0  0  0  0  0  0  0  0  0
   68.0146   81.9113   86.0277 C   0  0  0  0  0  0  0  0  0  0  0  0
   67.4719   74.9962   92.5895 C   0  0  0  0  0  0  0  0  0  0  0  0
   66.7290   74.0209   91.8610 O   0  0  0  0  0  0  0  0  0  0  0  0
   65.3926   74.1705   91.4621 C   0  0  0  0  0  0  0  0  0  0  0  0
   64.4183   73.1875   91.7052 C   0  0  0  0  0  0  0  0  0  0  0  0
   63.0975   73.3948   91.3038 C   0  0  0  0  0  0  0  0  0  0  0  0
   62.7285   74.5762   90.6457 C   0  0  0  0  0  0  0  0  0  0  0  0
   61.3996   74.7557   90.2599 O   0  0  0  0  0  0  0  0  0  0  0  0
   63.6995   75.5702   90.3837 C   0  0  0  0  0  0  0  0  0  0  0  0
   65.0271   75.3488   90.8026 C   0  0  0  0  0  0  0  0  0  0  0  0
   60.7657   74.0894   90.4392 H   0  0  0  0  0  0  0  0  0  0  0  0
   63.3540   76.8357   89.6847 C   0  0  0  0  0  0  0  0  0  0  0  0
   63.9186   77.9155   90.0103 O   0  0  0  0  0  0  0  0  0  0  0  0
   62.4058   76.8536   88.6658 O   0  0  0  0  0  0  0  0  0  0  0  0
   61.9766   76.0605   88.4112 H   0  0  0  0  0  0  0  0  0  0  0  0
 14 15  1  0  0  0
 15 16  1  0  0  0
 15 13  1  0  0  0
 13  7  1  0  0  0
  7  8  2  0  0  0
  8  9  1  0  0  0
  9 10  2  0  0  0
 10 11  1  0  0  0
 11  1  1  0  0  0
  1  2  2  0  0  0
  2  3  1  0  0  0
  3  4  2  0  0  0
  4  5  1  0  0  0
  5 17  1  0  0  0
 17 18  1  0  0  0
 18 19  1  0  0  0
 19 20  2  0  0  0
 20 21  1  0  0  0
 21 22  2  0  0  0
 22 23  1  0  0  0
 22 24  1  0  0  0
 24 27  1  0  0  0
 27 28  2  0  0  0
 27 29  1  0  0  0
 24 25  2  0  0  0
  5  6  2  0  0  0
 11 12  2  0  0  0
 12  7  1  0  0  0
  6  1  1  0  0  0
 25 19  1  0  0  0
 23 26  1  0  0  0
 29 30  1  0  0  0
M  END
> <Activity>
32.3

> <minimizedAffinity>
-9.19992

$$$$
HIPS6986


 30 32  0  0  0  0  0  0  0  0999 V2000
   69.3151   75.9291   91.2673 C   0  0  0  0  0  0  0  0  0  0  0  0
   69.8436   75.8677   92.5694 C   0  0  0  0  0  0  0  0  0  0  0  0
   69.4045   74.8914   93.4667 C   0  0  0  0  0  0  0  0  0  0  0  0
   68.4286   73.9704   93.0813 C   0  0  0  0  0  0  0  0  0  0  0  0
   67.8793   74.0207   91.7908 C   0  0  0  0  0  0  0  0  0  0  0  0
   68.3399   74.9892   90.8834 C   0  0  0  0  0  0  0  0  0  0  0  0
   69.2515   78.7676   88.7332 C   0  0  0  0  0  0  0  0  0  0  0  0
   70.6286   78.9470   88.5020 C   0  0  0  0  0  0  0  0  0  0  0  0
   71.5624   78.1497   89.1664 C   0  0  0  0  0  0  0  0  0  0  0  0
   71.1384   77.1701   90.0665 C   0  0  0  0  0  0  0  0  0  0  0  0
   69.7679   76.9782   90.3166 C   0  0  0  0  0  0  0  0  0  0  0  0
   68.8339   77.7882   89.6437 C   0  0  0  0  0  0  0  0  0  0  0  0
   68.2654   79.5378   88.0935 O   0  0  0  0  0  0  0  0  0  0  0  0
   67.0713   79.4604   85.9776 C   0  0  0  0  0  0  0  0  0  0  0  0
   68.2991   79.9777   86.7340 C   0  0  0  0  0  0  0  0  0  0  0  0
   68.3255   81.5044   86.7150 C   0  0  0  0  0  0  0  0  0  0  0  0
   66.8366   73.0247   91.3659 C   0  0  0  0  0  0  0  0  0  0  0  0
   65.5420   73.5028   91.7254 O   0  0  0  0  0  0  0  0  0  0  0  0
   64.8753   74.5580   91.0855 C   0  0  0  0  0  0  0  0  0  0  0  0
   63.7768   74.3504   90.2342 C   0  0  0  0  0  0  0  0  0  0  0  0
   63.1370   75.4379   89.6370 C   0  0  0  0  0  0  0  0  0  0  0  0
   63.5863   76.7454   89.8681 C   0  0  0  0  0  0  0  0  0  0  0  0
   62.9238   77.8120   89.2595 O   0  0  0  0  0  0  0  0  0  0  0  0
   64.6974   76.9701   90.7133 C   0  0  0  0  0  0  0  0  0  0  0  0
   65.3273   75.8619   91.3148 C   0  0  0  0  0  0  0  0  0  0  0  0
   62.1887   77.6499   88.7015 H   0  0  0  0  0  0  0  0  0  0  0  0
   65.2107   78.3390   90.9826 C   0  0  0  0  0  0  0  0  0  0  0  0
   65.6278   79.0585   90.0344 O   0  0  0  0  0  0  0  0  0  0  0  0
   65.2423   78.8485   92.2775 O   0  0  0  0  0  0  0  0  0  0  0  0
   64.9363   78.3275   92.9936 H   0  0  0  0  0  0  0  0  0  0  0  0
 14 15  1  0  0  0
 15 16  1  0  0  0
 15 13  1  0  0  0
 13  7  1  0  0  0
  7  8  2  0  0  0
  8  9  1  0  0  0
  9 10  2  0  0  0
 10 11  1  0  0  0
 11  1  1  0  0  0
  1  2  2  0  0  0
  2  3  1  0  0  0
  3  4  2  0  0  0
  4  5  1  0  0  0
  5 17  1  0  0  0
 17 18  1  0  0  0
 18 19  1  0  0  0
 19 20  2  0  0  0
 20 21  1  0  0  0
 21 22  2  0  0  0
 22 23  1  0  0  0
 22 24  1  0  0  0
 24 27  1  0  0  0
 27 28  2  0  0  0
 27 29  1  0  0  0
 24 25  2  0  0  0
  5  6  2  0  0  0
 11 12  2  0  0  0
 12  7  1  0  0  0
  6  1  1  0  0  0
 25 19  1  0  0  0
 23 26  1  0  0  0
 29 30  1  0  0  0
M  END
> <Activity>
32.3

> <minimizedAffinity>
-9.19769

$$$$
HIPS6986


 30 32  0  0  0  0  0  0  0  0999 V2000
   69.2954   75.5543   90.9882 C   0  0  0  0  0  0  0  0  0  0  0  0
   70.2059   75.2368   92.0124 C   0  0  0  0  0  0  0  0  0  0  0  0
   69.9656   74.1558   92.8637 C   0  0  0  0  0  0  0  0  0  0  0  0
   68.8125   73.3836   92.7109 C   0  0  0  0  0  0  0  0  0  0  0  0
   67.8850   73.6896   91.7031 C   0  0  0  0  0  0  0  0  0  0  0  0
   68.1413   74.7632   90.8340 C   0  0  0  0  0  0  0  0  0  0  0  0
   71.0220   78.4710   89.2578 C   0  0  0  0  0  0  0  0  0  0  0  0
   69.9919   78.9244   88.4120 C   0  0  0  0  0  0  0  0  0  0  0  0
   68.7515   78.2839   88.4097 C   0  0  0  0  0  0  0  0  0  0  0  0
   68.5233   77.1879   89.2442 C   0  0  0  0  0  0  0  0  0  0  0  0
   69.5403   76.7149   90.0924 C   0  0  0  0  0  0  0  0  0  0  0  0
   70.7884   77.3658   90.0863 C   0  0  0  0  0  0  0  0  0  0  0  0
   72.2897   79.0754   89.3051 O   0  0  0  0  0  0  0  0  0  0  0  0
   71.7723   81.3944   88.7912 C   0  0  0  0  0  0  0  0  0  0  0  0
   72.7061   80.2066   88.5369 C   0  0  0  0  0  0  0  0  0  0  0  0
   74.1364   80.5662   88.9328 C   0  0  0  0  0  0  0  0  0  0  0  0
   66.6472   72.8550   91.5260 C   0  0  0  0  0  0  0  0  0  0  0  0
   65.5097   73.5800   91.9889 O   0  0  0  0  0  0  0  0  0  0  0  0
   64.8724   74.6051   91.2745 C   0  0  0  0  0  0  0  0  0  0  0  0
   63.8112   74.3590   90.3870 C   0  0  0  0  0  0  0  0  0  0  0  0
   63.1989   75.4183   89.7149 C   0  0  0  0  0  0  0  0  0  0  0  0
   63.6395   76.7352   89.9066 C   0  0  0  0  0  0  0  0  0  0  0  0
   63.0050   77.7731   89.2231 O   0  0  0  0  0  0  0  0  0  0  0  0
   64.7135   76.9982   90.7879 C   0  0  0  0  0  0  0  0  0  0  0  0
   65.3157   75.9183   91.4647 C   0  0  0  0  0  0  0  0  0  0  0  0
   62.2944   77.5857   88.6418 H   0  0  0  0  0  0  0  0  0  0  0  0
   65.2164   78.3780   91.0177 C   0  0  0  0  0  0  0  0  0  0  0  0
   65.6098   79.0803   90.0467 O   0  0  0  0  0  0  0  0  0  0  0  0
   65.2643   78.9170   92.3001 O   0  0  0  0  0  0  0  0  0  0  0  0
   64.9760   78.4091   93.0328 H   0  0  0  0  0  0  0  0  0  0  0  0
 14 15  1  0  0  0
 15 16  1  0  0  0
 15 13  1  0  0  0
 13  7  1  0  0  0
  7  8  2  0  0  0
  8  9  1  0  0  0
  9 10  2  0  0  0
 10 11  1  0  0  0
 11  1  1  0  0  0
  1  2  2  0  0  0
  2  3  1  0  0  0
  3  4  2  0  0  0
  4  5  1  0  0  0
  5 17  1  0  0  0
 17 18  1  0  0  0
 18 19  1  0  0  0
 19 20  2  0  0  0
 20 21  1  0  0  0
 21 22  2  0  0  0
 22 23  1  0  0  0
 22 24  1  0  0  0
 24 27  1  0  0  0
 27 28  2  0  0  0
 27 29  1  0  0  0
 24 25  2  0  0  0
  5  6  2  0  0  0
 11 12  2  0  0  0
 12  7  1  0  0  0
  6  1  1  0  0  0
 25 19  1  0  0  0
 23 26  1  0  0  0
 29 30  1  0  0  0
M  END
> <Activity>
32.3

> <minimizedAffinity>
-9.09407

$$$$
HIPS7781


 41 44  0  0  0  0  0  0  0  0999 V2000
   68.3063   78.1435   91.5304 C   0  0  0  0  0  0  0  0  0  0  0  0
   69.1844   77.0692   91.7383 C   0  0  0  0  0  0  0  0  0  0  0  0
   69.7420   76.8456   92.9974 C   0  0  0  0  0  0  0  0  0  0  0  0
   69.4377   77.6970   94.0609 C   0  0  0  0  0  0  0  0  0  0  0  0
   68.5835   78.8021   93.8711 C   0  0  0  0  0  0  0  0  0  0  0  0
   68.0318   79.0217   92.5953 C   0  0  0  0  0  0  0  0  0  0  0  0
   68.2606   79.7120   94.9973 C   0  0  0  0  0  0  0  0  0  0  0  0
   67.9565   79.2060   96.2238 N   0  0  0  0  0  0  0  0  0  0  0  0
   67.6343   80.0167   97.2632 C   0  0  0  0  0  0  0  0  0  0  0  0
   67.6203   81.4060   97.0913 C   0  0  0  0  0  0  0  0  0  0  0  0
   67.9265   81.9110   95.8231 C   0  0  0  0  0  0  0  0  0  0  0  0
   68.2396   81.0601   94.8108 N   0  0  0  0  0  0  0  0  0  0  0  0
   67.2356   82.3164   98.2257 C   0  0  0  0  0  0  0  0  0  0  0  0
   67.3828   83.6828   97.8403 O   0  0  0  0  0  0  0  0  0  0  0  0
   66.4325   84.4339   97.1278 C   0  0  0  0  0  0  0  0  0  0  0  0
   66.7868   85.4674   96.2425 C   0  0  0  0  0  0  0  0  0  0  0  0
   65.7950   86.1648   95.5505 C   0  0  0  0  0  0  0  0  0  0  0  0
   64.4367   85.8660   95.7338 C   0  0  0  0  0  0  0  0  0  0  0  0
   63.5062   86.6587   95.0504 O   0  0  0  0  0  0  0  0  0  0  0  0
   64.0652   84.8095   96.6078 C   0  0  0  0  0  0  0  0  0  0  0  0
   65.0798   84.1184   97.3009 C   0  0  0  0  0  0  0  0  0  0  0  0
   63.8011   87.3446   94.4843 H   0  0  0  0  0  0  0  0  0  0  0  0
   62.6607   84.3646   96.7962 C   0  0  0  0  0  0  0  0  0  0  0  0
   61.7233   84.8422   96.0980 O   0  0  0  0  0  0  0  0  0  0  0  0
   62.3757   83.3458   97.7097 O   0  0  0  0  0  0  0  0  0  0  0  0
   63.0612   82.9819   98.2346 H   0  0  0  0  0  0  0  0  0  0  0  0
   69.7845   78.6132   89.1004 O   0  0  0  0  0  0  0  0  0  0  0  0
   68.5239   78.5754   89.0418 C   0  0  0  0  0  0  0  0  0  0  0  0
   67.7434   78.3496   90.2249 N   0  0  0  0  0  0  0  0  0  0  0  0
   66.7630   78.3350   90.1364 H   0  0  0  0  0  0  0  0  0  0  0  0
   67.8431   78.8140   87.7240 C   0  0  0  0  0  0  0  0  0  0  0  0
   67.7663   77.5353   86.8806 C   0  0  0  0  0  0  0  0  0  0  0  0
   67.2325   76.3251   87.6663 C   0  0  0  0  0  0  0  0  0  0  0  0
   66.1009   76.6644   88.4706 O   0  0  0  0  0  0  0  0  0  0  0  0
   65.3759   75.7695   89.2744 C   0  0  0  0  0  0  0  0  0  0  0  0
   66.0504   75.1209   90.3166 C   0  0  0  0  0  0  0  0  0  0  0  0
   65.3632   74.2543   91.1739 C   0  0  0  0  0  0  0  0  0  0  0  0
   63.9957   74.0233   90.9880 C   0  0  0  0  0  0  0  0  0  0  0  0
   63.1310   72.9538   92.0781 Cl  0  0  0  0  0  0  0  0  0  0  0  0
   63.3190   74.6475   89.9387 C   0  0  0  0  0  0  0  0  0  0  0  0
   64.0055   75.5122   89.0777 C   0  0  0  0  0  0  0  0  0  0  0  0
 27 28  2  0  0  0
 28 31  1  0  0  0
 31 32  1  0  0  0
 32 33  1  0  0  0
 33 34  1  0  0  0
 34 35  1  0  0  0
 35 36  2  0  0  0
 36 37  1  0  0  0
 37 38  2  0  0  0
 38 39  1  0  0  0
 38 40  1  0  0  0
 40 41  2  0  0  0
 28 29  1  0  0  0
 29  1  1  0  0  0
  1  2  2  0  0  0
  2  3  1  0  0  0
  3  4  2  0  0  0
  4  5  1  0  0  0
  5  7  1  0  0  0
  7  8  2  0  0  0
  8  9  2  0  0  0
  9 10  2  0  0  0
 10 13  1  0  0  0
 13 14  1  0  0  0
 14 15  1  0  0  0
 15 16  2  0  0  0
 16 17  1  0  0  0
 17 18  2  0  0  0
 18 19  1  0  0  0
 18 20  1  0  0  0
 20 23  1  0  0  0
 23 24  2  0  0  0
 23 25  1  0  0  0
 20 21  2  0  0  0
 10 11  1  0  0  0
 11 12  2  0  0  0
  5  6  2  0  0  0
 41 35  1  0  0  0
  6  1  1  0  0  0
 12  7  2  0  0  0
 21 15  1  0  0  0
 29 30  1  0  0  0
 19 22  1  0  0  0
 25 26  1  0  0  0
M  END
> <Activity>
32.3

> <minimizedAffinity>
-10.11092

$$$$
HIPS7781


 41 44  0  0  0  0  0  0  0  0999 V2000
   68.0255   75.0611   90.5960 C   0  0  0  0  0  0  0  0  0  0  0  0
   69.0568   75.0888   89.6451 C   0  0  0  0  0  0  0  0  0  0  0  0
   70.0258   76.0916   89.6825 C   0  0  0  0  0  0  0  0  0  0  0  0
   69.9716   77.0838   90.6628 C   0  0  0  0  0  0  0  0  0  0  0  0
   68.9282   77.0972   91.6105 C   0  0  0  0  0  0  0  0  0  0  0  0
   67.9525   76.0844   91.5594 C   0  0  0  0  0  0  0  0  0  0  0  0
   68.8640   78.1520   92.6516 C   0  0  0  0  0  0  0  0  0  0  0  0
   68.4215   79.4005   92.3382 N   0  0  0  0  0  0  0  0  0  0  0  0
   68.3764   80.3886   93.2672 C   0  0  0  0  0  0  0  0  0  0  0  0
   68.7789   80.1332   94.5834 C   0  0  0  0  0  0  0  0  0  0  0  0
   69.2393   78.8479   94.8885 C   0  0  0  0  0  0  0  0  0  0  0  0
   69.2703   77.8909   93.9241 N   0  0  0  0  0  0  0  0  0  0  0  0
   68.7634   81.2262   95.6172 C   0  0  0  0  0  0  0  0  0  0  0  0
   67.8412   82.2505   95.2460 O   0  0  0  0  0  0  0  0  0  0  0  0
   66.7728   82.7083   96.0359 C   0  0  0  0  0  0  0  0  0  0  0  0
   66.5578   82.2696   97.3545 C   0  0  0  0  0  0  0  0  0  0  0  0
   65.4874   82.7767   98.0934 C   0  0  0  0  0  0  0  0  0  0  0  0
   64.6012   83.7115   97.5376 C   0  0  0  0  0  0  0  0  0  0  0  0
   63.5172   84.1172   98.3259 O   0  0  0  0  0  0  0  0  0  0  0  0
   64.8194   84.1807   96.2146 C   0  0  0  0  0  0  0  0  0  0  0  0
   65.9032   83.6551   95.4821 C   0  0  0  0  0  0  0  0  0  0  0  0
   63.4165   83.7789   99.1939 H   0  0  0  0  0  0  0  0  0  0  0  0
   63.9876   85.2327   95.5764 C   0  0  0  0  0  0  0  0  0  0  0  0
   62.7462   85.3078   95.7945 O   0  0  0  0  0  0  0  0  0  0  0  0
   64.5968   86.2049   94.7780 O   0  0  0  0  0  0  0  0  0  0  0  0
   65.5172   86.1619   94.6077 H   0  0  0  0  0  0  0  0  0  0  0  0
   65.7765   74.7458   92.3716 O   0  0  0  0  0  0  0  0  0  0  0  0
   65.9350   73.9044   91.4438 C   0  0  0  0  0  0  0  0  0  0  0  0
   67.0421   74.0156   90.5372 N   0  0  0  0  0  0  0  0  0  0  0  0
   67.1330   73.3342   89.8325 H   0  0  0  0  0  0  0  0  0  0  0  0
   64.9750   72.7551   91.3235 C   0  0  0  0  0  0  0  0  0  0  0  0
   63.5155   73.2177   91.4127 C   0  0  0  0  0  0  0  0  0  0  0  0
   63.0447   73.9753   90.1592 C   0  0  0  0  0  0  0  0  0  0  0  0
   63.1699   75.3910   90.3093 O   0  0  0  0  0  0  0  0  0  0  0  0
   64.2154   76.1749   89.7942 C   0  0  0  0  0  0  0  0  0  0  0  0
   64.5803   77.3327   90.4927 C   0  0  0  0  0  0  0  0  0  0  0  0
   65.6448   78.1235   90.0460 C   0  0  0  0  0  0  0  0  0  0  0  0
   66.3468   77.7653   88.8897 C   0  0  0  0  0  0  0  0  0  0  0  0
   67.6959   78.7460   88.3440 Cl  0  0  0  0  0  0  0  0  0  0  0  0
   65.9768   76.6255   88.1739 C   0  0  0  0  0  0  0  0  0  0  0  0
   64.9098   75.8348   88.6172 C   0  0  0  0  0  0  0  0  0  0  0  0
 27 28  2  0  0  0
 28 31  1  0  0  0
 31 32  1  0  0  0
 32 33  1  0  0  0
 33 34  1  0  0  0
 34 35  1  0  0  0
 35 36  2  0  0  0
 36 37  1  0  0  0
 37 38  2  0  0  0
 38 39  1  0  0  0
 38 40  1  0  0  0
 40 41  2  0  0  0
 28 29  1  0  0  0
 29  1  1  0  0  0
  1  2  2  0  0  0
  2  3  1  0  0  0
  3  4  2  0  0  0
  4  5  1  0  0  0
  5  7  1  0  0  0
  7  8  2  0  0  0
  8  9  2  0  0  0
  9 10  2  0  0  0
 10 13  1  0  0  0
 13 14  1  0  0  0
 14 15  1  0  0  0
 15 16  2  0  0  0
 16 17  1  0  0  0
 17 18  2  0  0  0
 18 19  1  0  0  0
 18 20  1  0  0  0
 20 23  1  0  0  0
 23 24  2  0  0  0
 23 25  1  0  0  0
 20 21  2  0  0  0
 10 11  1  0  0  0
 11 12  2  0  0  0
  5  6  2  0  0  0
 41 35  1  0  0  0
  6  1  1  0  0  0
 12  7  2  0  0  0
 21 15  1  0  0  0
 29 30  1  0  0  0
 19 22  1  0  0  0
 25 26  1  0  0  0
M  END
> <Activity>
32.3

> <minimizedAffinity>
-9.85437

$$$$
HIPS7781


 41 44  0  0  0  0  0  0  0  0999 V2000
   68.0732   77.7717   91.6585 C   0  0  0  0  0  0  0  0  0  0  0  0
   69.0106   76.7489   91.8675 C   0  0  0  0  0  0  0  0  0  0  0  0
   69.6917   76.6515   93.0810 C   0  0  0  0  0  0  0  0  0  0  0  0
   69.4526   77.5792   94.0963 C   0  0  0  0  0  0  0  0  0  0  0  0
   68.5394   78.6350   93.9006 C   0  0  0  0  0  0  0  0  0  0  0  0
   67.8628   78.7272   92.6701 C   0  0  0  0  0  0  0  0  0  0  0  0
   68.2852   79.6256   94.9751 C   0  0  0  0  0  0  0  0  0  0  0  0
   68.3768   80.9588   94.7160 N   0  0  0  0  0  0  0  0  0  0  0  0
   68.1725   81.8836   95.6878 C   0  0  0  0  0  0  0  0  0  0  0  0
   67.8486   81.4761   96.9874 C   0  0  0  0  0  0  0  0  0  0  0  0
   67.7665   80.1027   97.2406 C   0  0  0  0  0  0  0  0  0  0  0  0
   67.9831   79.2129   96.2364 N   0  0  0  0  0  0  0  0  0  0  0  0
   67.6491   82.4884   98.0824 C   0  0  0  0  0  0  0  0  0  0  0  0
   66.2627   82.7912   98.2350 O   0  0  0  0  0  0  0  0  0  0  0  0
   65.5414   83.7141   97.4585 C   0  0  0  0  0  0  0  0  0  0  0  0
   66.1635   84.7192   96.6967 C   0  0  0  0  0  0  0  0  0  0  0  0
   65.3908   85.5946   95.9316 C   0  0  0  0  0  0  0  0  0  0  0  0
   63.9910   85.5042   95.9192 C   0  0  0  0  0  0  0  0  0  0  0  0
   63.2913   86.4636   95.1767 O   0  0  0  0  0  0  0  0  0  0  0  0
   63.3501   84.4795   96.6659 C   0  0  0  0  0  0  0  0  0  0  0  0
   64.1460   83.6067   97.4355 C   0  0  0  0  0  0  0  0  0  0  0  0
   63.7599   87.1202   94.7001 H   0  0  0  0  0  0  0  0  0  0  0  0
   61.8826   84.2519   96.6429 C   0  0  0  0  0  0  0  0  0  0  0  0
   61.0809   85.1792   96.3401 O   0  0  0  0  0  0  0  0  0  0  0  0
   61.3785   82.9714   96.8874 O   0  0  0  0  0  0  0  0  0  0  0  0
   61.9616   82.2736   97.1131 H   0  0  0  0  0  0  0  0  0  0  0  0
   67.7052   75.6057   89.7922 O   0  0  0  0  0  0  0  0  0  0  0  0
   67.2222   76.7366   89.5064 C   0  0  0  0  0  0  0  0  0  0  0  0
   67.3832   77.8476   90.4008 N   0  0  0  0  0  0  0  0  0  0  0  0
   66.9975   78.7139   90.1363 H   0  0  0  0  0  0  0  0  0  0  0  0
   66.5121   76.9214   88.1955 C   0  0  0  0  0  0  0  0  0  0  0  0
   67.4703   77.3681   87.0844 C   0  0  0  0  0  0  0  0  0  0  0  0
   67.6898   78.8905   87.0527 C   0  0  0  0  0  0  0  0  0  0  0  0
   68.3091   79.3683   88.2488 O   0  0  0  0  0  0  0  0  0  0  0  0
   69.6925   79.5002   88.4525 C   0  0  0  0  0  0  0  0  0  0  0  0
   70.2768   80.7541   88.2336 C   0  0  0  0  0  0  0  0  0  0  0  0
   71.6430   80.9491   88.4656 C   0  0  0  0  0  0  0  0  0  0  0  0
   72.4369   79.8861   88.9104 C   0  0  0  0  0  0  0  0  0  0  0  0
   74.1453   80.1385   89.2225 Cl  0  0  0  0  0  0  0  0  0  0  0  0
   71.8687   78.6269   89.1103 C   0  0  0  0  0  0  0  0  0  0  0  0
   70.5027   78.4288   88.8753 C   0  0  0  0  0  0  0  0  0  0  0  0
 27 28  2  0  0  0
 28 31  1  0  0  0
 31 32  1  0  0  0
 32 33  1  0  0  0
 33 34  1  0  0  0
 34 35  1  0  0  0
 35 36  2  0  0  0
 36 37  1  0  0  0
 37 38  2  0  0  0
 38 39  1  0  0  0
 38 40  1  0  0  0
 40 41  2  0  0  0
 28 29  1  0  0  0
 29  1  1  0  0  0
  1  2  2  0  0  0
  2  3  1  0  0  0
  3  4  2  0  0  0
  4  5  1  0  0  0
  5  7  1  0  0  0
  7  8  2  0  0  0
  8  9  2  0  0  0
  9 10  2  0  0  0
 10 13  1  0  0  0
 13 14  1  0  0  0
 14 15  1  0  0  0
 15 16  2  0  0  0
 16 17  1  0  0  0
 17 18  2  0  0  0
 18 19  1  0  0  0
 18 20  1  0  0  0
 20 23  1  0  0  0
 23 24  2  0  0  0
 23 25  1  0  0  0
 20 21  2  0  0  0
 10 11  1  0  0  0
 11 12  2  0  0  0
  5  6  2  0  0  0
 41 35  1  0  0  0
  6  1  1  0  0  0
 12  7  2  0  0  0
 21 15  1  0  0  0
 29 30  1  0  0  0
 19 22  1  0  0  0
 25 26  1  0  0  0
M  END
> <Activity>
32.3

> <minimizedAffinity>
-9.74868

$$$$
HIPS7781


 41 44  0  0  0  0  0  0  0  0999 V2000
   67.6996   77.1707   91.9154 C   0  0  0  0  0  0  0  0  0  0  0  0
   68.8500   76.3678   91.9379 C   0  0  0  0  0  0  0  0  0  0  0  0
   69.8284   76.5619   92.9132 C   0  0  0  0  0  0  0  0  0  0  0  0
   69.6750   77.5657   93.8710 C   0  0  0  0  0  0  0  0  0  0  0  0
   68.5441   78.4068   93.8514 C   0  0  0  0  0  0  0  0  0  0  0  0
   67.5666   78.2061   92.8592 C   0  0  0  0  0  0  0  0  0  0  0  0
   68.3788   79.4775   94.8648 C   0  0  0  0  0  0  0  0  0  0  0  0
   68.0656   79.1630   96.1516 N   0  0  0  0  0  0  0  0  0  0  0  0
   67.8856   80.1256   97.0910 C   0  0  0  0  0  0  0  0  0  0  0  0
   68.0324   81.4753   96.7497 C   0  0  0  0  0  0  0  0  0  0  0  0
   68.3459   81.7836   95.4216 C   0  0  0  0  0  0  0  0  0  0  0  0
   68.5131   80.7858   94.5142 N   0  0  0  0  0  0  0  0  0  0  0  0
   67.8063   82.5552   97.7726 C   0  0  0  0  0  0  0  0  0  0  0  0
   66.4094   82.7843   97.9555 O   0  0  0  0  0  0  0  0  0  0  0  0
   65.6392   83.7217   97.2463 C   0  0  0  0  0  0  0  0  0  0  0  0
   66.2104   84.7531   96.4799 C   0  0  0  0  0  0  0  0  0  0  0  0
   65.3899   85.6423   95.7836 C   0  0  0  0  0  0  0  0  0  0  0  0
   63.9922   85.5396   95.8462 C   0  0  0  0  0  0  0  0  0  0  0  0
   63.2452   86.5128   95.1709 O   0  0  0  0  0  0  0  0  0  0  0  0
   63.4016   84.4889   96.5981 C   0  0  0  0  0  0  0  0  0  0  0  0
   64.2455   83.6023   97.2976 C   0  0  0  0  0  0  0  0  0  0  0  0
   63.6816   87.1866   94.6877 H   0  0  0  0  0  0  0  0  0  0  0  0
   61.9368   84.2488   96.6500 C   0  0  0  0  0  0  0  0  0  0  0  0
   61.1133   85.1570   96.3475 O   0  0  0  0  0  0  0  0  0  0  0  0
   61.4566   82.9750   96.9667 O   0  0  0  0  0  0  0  0  0  0  0  0
   62.0560   82.2913   97.1931 H   0  0  0  0  0  0  0  0  0  0  0  0
   65.7166   75.0784   91.9155 O   0  0  0  0  0  0  0  0  0  0  0  0
   65.7346   75.8921   90.9504 C   0  0  0  0  0  0  0  0  0  0  0  0
   66.7058   76.9479   90.9023 N   0  0  0  0  0  0  0  0  0  0  0  0
   66.6899   77.5560   90.1282 H   0  0  0  0  0  0  0  0  0  0  0  0
   64.7543   75.7183   89.8254 C   0  0  0  0  0  0  0  0  0  0  0  0
   65.1352   76.5586   88.6003 C   0  0  0  0  0  0  0  0  0  0  0  0
   66.5209   76.2052   88.0331 C   0  0  0  0  0  0  0  0  0  0  0  0
   67.0053   77.2075   87.1369 O   0  0  0  0  0  0  0  0  0  0  0  0
   67.8811   78.2509   87.4792 C   0  0  0  0  0  0  0  0  0  0  0  0
   68.8739   77.9952   88.4334 C   0  0  0  0  0  0  0  0  0  0  0  0
   69.7993   78.9874   88.7761 C   0  0  0  0  0  0  0  0  0  0  0  0
   69.7314   80.2476   88.1717 C   0  0  0  0  0  0  0  0  0  0  0  0
   70.9068   81.4831   88.5862 Cl  0  0  0  0  0  0  0  0  0  0  0  0
   68.7321   80.5197   87.2359 C   0  0  0  0  0  0  0  0  0  0  0  0
   67.8032   79.5295   86.8942 C   0  0  0  0  0  0  0  0  0  0  0  0
 27 28  2  0  0  0
 28 31  1  0  0  0
 31 32  1  0  0  0
 32 33  1  0  0  0
 33 34  1  0  0  0
 34 35  1  0  0  0
 35 36  2  0  0  0
 36 37  1  0  0  0
 37 38  2  0  0  0
 38 39  1  0  0  0
 38 40  1  0  0  0
 40 41  2  0  0  0
 28 29  1  0  0  0
 29  1  1  0  0  0
  1  2  2  0  0  0
  2  3  1  0  0  0
  3  4  2  0  0  0
  4  5  1  0  0  0
  5  7  1  0  0  0
  7  8  2  0  0  0
  8  9  2  0  0  0
  9 10  2  0  0  0
 10 13  1  0  0  0
 13 14  1  0  0  0
 14 15  1  0  0  0
 15 16  2  0  0  0
 16 17  1  0  0  0
 17 18  2  0  0  0
 18 19  1  0  0  0
 18 20  1  0  0  0
 20 23  1  0  0  0
 23 24  2  0  0  0
 23 25  1  0  0  0
 20 21  2  0  0  0
 10 11  1  0  0  0
 11 12  2  0  0  0
  5  6  2  0  0  0
 41 35  1  0  0  0
  6  1  1  0  0  0
 12  7  2  0  0  0
 21 15  1  0  0  0
 29 30  1  0  0  0
 19 22  1  0  0  0
 25 26  1  0  0  0
M  END
> <Activity>
32.3

> <minimizedAffinity>
-9.43488

$$$$
HIPS7781


 41 44  0  0  0  0  0  0  0  0999 V2000
   67.4599   74.4768   92.1165 C   0  0  0  0  0  0  0  0  0  0  0  0
   68.4082   73.6895   92.7868 C   0  0  0  0  0  0  0  0  0  0  0  0
   69.7565   74.0476   92.7793 C   0  0  0  0  0  0  0  0  0  0  0  0
   70.1755   75.1897   92.0947 C   0  0  0  0  0  0  0  0  0  0  0  0
   69.2477   75.9803   91.3869 C   0  0  0  0  0  0  0  0  0  0  0  0
   67.8912   75.6062   91.3960 C   0  0  0  0  0  0  0  0  0  0  0  0
   69.6889   77.1926   90.6544 C   0  0  0  0  0  0  0  0  0  0  0  0
   69.0354   78.3744   90.8254 N   0  0  0  0  0  0  0  0  0  0  0  0
   69.4049   79.4911   90.1488 C   0  0  0  0  0  0  0  0  0  0  0  0
   70.4860   79.4478   89.2604 C   0  0  0  0  0  0  0  0  0  0  0  0
   71.1424   78.2244   89.0886 C   0  0  0  0  0  0  0  0  0  0  0  0
   70.7345   77.1311   89.7852 N   0  0  0  0  0  0  0  0  0  0  0  0
   70.8884   80.6696   88.4802 C   0  0  0  0  0  0  0  0  0  0  0  0
   71.8012   81.4654   89.2357 O   0  0  0  0  0  0  0  0  0  0  0  0
   73.1369   81.7255   88.8847 C   0  0  0  0  0  0  0  0  0  0  0  0
   74.1217   80.7226   88.8397 C   0  0  0  0  0  0  0  0  0  0  0  0
   75.4280   81.0430   88.4657 C   0  0  0  0  0  0  0  0  0  0  0  0
   75.7883   82.3608   88.1470 C   0  0  0  0  0  0  0  0  0  0  0  0
   77.1343   82.6046   87.8469 O   0  0  0  0  0  0  0  0  0  0  0  0
   74.7988   83.3800   88.1662 C   0  0  0  0  0  0  0  0  0  0  0  0
   73.4858   83.0390   88.5496 C   0  0  0  0  0  0  0  0  0  0  0  0
   77.7497   81.8980   87.8472 H   0  0  0  0  0  0  0  0  0  0  0  0
   75.0673   84.7829   87.7592 C   0  0  0  0  0  0  0  0  0  0  0  0
   76.0176   85.4415   88.2667 O   0  0  0  0  0  0  0  0  0  0  0  0
   74.3042   85.3652   86.7432 O   0  0  0  0  0  0  0  0  0  0  0  0
   73.5960   84.8884   86.3573 H   0  0  0  0  0  0  0  0  0  0  0  0
   66.3269   72.1547   90.8381 O   0  0  0  0  0  0  0  0  0  0  0  0
   65.5618   72.9165   91.4924 C   0  0  0  0  0  0  0  0  0  0  0  0
   66.0773   74.0876   92.1426 N   0  0  0  0  0  0  0  0  0  0  0  0
   65.4453   74.6586   92.6362 H   0  0  0  0  0  0  0  0  0  0  0  0
   64.0923   72.6089   91.5481 C   0  0  0  0  0  0  0  0  0  0  0  0
   63.3015   73.7219   92.2466 C   0  0  0  0  0  0  0  0  0  0  0  0
   62.6410   74.7023   91.2620 C   0  0  0  0  0  0  0  0  0  0  0  0
   63.2244   76.0052   91.3296 O   0  0  0  0  0  0  0  0  0  0  0  0
   64.2510   76.4815   90.4977 C   0  0  0  0  0  0  0  0  0  0  0  0
   64.6083   75.7138   89.3821 C   0  0  0  0  0  0  0  0  0  0  0  0
   65.5937   76.1660   88.4973 C   0  0  0  0  0  0  0  0  0  0  0  0
   66.2357   77.3876   88.7285 C   0  0  0  0  0  0  0  0  0  0  0  0
   67.4550   77.9636   87.6054 Cl  0  0  0  0  0  0  0  0  0  0  0  0
   65.9027   78.1497   89.8496 C   0  0  0  0  0  0  0  0  0  0  0  0
   64.9196   77.6973   90.7380 C   0  0  0  0  0  0  0  0  0  0  0  0
 27 28  2  0  0  0
 28 31  1  0  0  0
 31 32  1  0  0  0
 32 33  1  0  0  0
 33 34  1  0  0  0
 34 35  1  0  0  0
 35 36  2  0  0  0
 36 37  1  0  0  0
 37 38  2  0  0  0
 38 39  1  0  0  0
 38 40  1  0  0  0
 40 41  2  0  0  0
 28 29  1  0  0  0
 29  1  1  0  0  0
  1  2  2  0  0  0
  2  3  1  0  0  0
  3  4  2  0  0  0
  4  5  1  0  0  0
  5  7  1  0  0  0
  7  8  2  0  0  0
  8  9  2  0  0  0
  9 10  2  0  0  0
 10 13  1  0  0  0
 13 14  1  0  0  0
 14 15  1  0  0  0
 15 16  2  0  0  0
 16 17  1  0  0  0
 17 18  2  0  0  0
 18 19  1  0  0  0
 18 20  1  0  0  0
 20 23  1  0  0  0
 23 24  2  0  0  0
 23 25  1  0  0  0
 20 21  2  0  0  0
 10 11  1  0  0  0
 11 12  2  0  0  0
  5  6  2  0  0  0
 41 35  1  0  0  0
  6  1  1  0  0  0
 12  7  2  0  0  0
 21 15  1  0  0  0
 29 30  1  0  0  0
 19 22  1  0  0  0
 25 26  1  0  0  0
M  END
> <Activity>
32.3

> <minimizedAffinity>
-9.12019

$$$$
HIPS7781


 41 44  0  0  0  0  0  0  0  0999 V2000
   67.6318   76.6245   91.8908 C   0  0  0  0  0  0  0  0  0  0  0  0
   68.8418   75.9178   91.8192 C   0  0  0  0  0  0  0  0  0  0  0  0
   69.9110   76.2614   92.6467 C   0  0  0  0  0  0  0  0  0  0  0  0
   69.7888   77.3203   93.5480 C   0  0  0  0  0  0  0  0  0  0  0  0
   68.5951   78.0667   93.6176 C   0  0  0  0  0  0  0  0  0  0  0  0
   67.5252   77.7153   92.7737 C   0  0  0  0  0  0  0  0  0  0  0  0
   68.4620   79.1954   94.5709 C   0  0  0  0  0  0  0  0  0  0  0  0
   68.1205   78.9625   95.8679 N   0  0  0  0  0  0  0  0  0  0  0  0
   67.9691   79.9799   96.7529 C   0  0  0  0  0  0  0  0  0  0  0  0
   68.1757   81.3026   96.3435 C   0  0  0  0  0  0  0  0  0  0  0  0
   68.5178   81.5271   95.0057 C   0  0  0  0  0  0  0  0  0  0  0  0
   68.6545   80.4767   94.1543 N   0  0  0  0  0  0  0  0  0  0  0  0
   67.9821   82.4434   97.3051 C   0  0  0  0  0  0  0  0  0  0  0  0
   66.5936   82.6447   97.5669 O   0  0  0  0  0  0  0  0  0  0  0  0
   65.7838   83.6185   96.9579 C   0  0  0  0  0  0  0  0  0  0  0  0
   66.3082   84.6748   96.1921 C   0  0  0  0  0  0  0  0  0  0  0  0
   65.4486   85.6005   95.5978 C   0  0  0  0  0  0  0  0  0  0  0  0
   64.0586   85.5094   95.7639 C   0  0  0  0  0  0  0  0  0  0  0  0
   63.2750   86.5173   95.1883 O   0  0  0  0  0  0  0  0  0  0  0  0
   63.5135   84.4346   96.5161 C   0  0  0  0  0  0  0  0  0  0  0  0
   64.3966   83.5113   97.1118 C   0  0  0  0  0  0  0  0  0  0  0  0
   63.6820   87.2061   94.7005 H   0  0  0  0  0  0  0  0  0  0  0  0
   62.0539   84.2075   96.6711 C   0  0  0  0  0  0  0  0  0  0  0  0
   61.2215   85.1344   96.4655 O   0  0  0  0  0  0  0  0  0  0  0  0
   61.5829   82.9277   96.9775 O   0  0  0  0  0  0  0  0  0  0  0  0
   62.1889   82.2301   97.1325 H   0  0  0  0  0  0  0  0  0  0  0  0
   66.0488   74.2251   92.1068 O   0  0  0  0  0  0  0  0  0  0  0  0
   65.7825   75.0420   91.1818 C   0  0  0  0  0  0  0  0  0  0  0  0
   66.5452   76.2483   91.0298 N   0  0  0  0  0  0  0  0  0  0  0  0
   66.3094   76.8545   90.2907 H   0  0  0  0  0  0  0  0  0  0  0  0
   64.6836   74.7177   90.2101 C   0  0  0  0  0  0  0  0  0  0  0  0
   64.3706   75.9007   89.2856 C   0  0  0  0  0  0  0  0  0  0  0  0
   62.8989   76.3445   89.3505 C   0  0  0  0  0  0  0  0  0  0  0  0
   62.0065   75.2318   89.4397 O   0  0  0  0  0  0  0  0  0  0  0  0
   61.4112   74.5763   88.3494 C   0  0  0  0  0  0  0  0  0  0  0  0
   62.0171   73.4088   87.8683 C   0  0  0  0  0  0  0  0  0  0  0  0
   61.4390   72.6938   86.8134 C   0  0  0  0  0  0  0  0  0  0  0  0
   60.2532   73.1483   86.2258 C   0  0  0  0  0  0  0  0  0  0  0  0
   59.5177   72.2378   84.9181 Cl  0  0  0  0  0  0  0  0  0  0  0  0
   59.6533   74.3227   86.6832 C   0  0  0  0  0  0  0  0  0  0  0  0
   60.2320   75.0415   87.7361 C   0  0  0  0  0  0  0  0  0  0  0  0
 27 28  2  0  0  0
 28 31  1  0  0  0
 31 32  1  0  0  0
 32 33  1  0  0  0
 33 34  1  0  0  0
 34 35  1  0  0  0
 35 36  2  0  0  0
 36 37  1  0  0  0
 37 38  2  0  0  0
 38 39  1  0  0  0
 38 40  1  0  0  0
 40 41  2  0  0  0
 28 29  1  0  0  0
 29  1  1  0  0  0
  1  2  2  0  0  0
  2  3  1  0  0  0
  3  4  2  0  0  0
  4  5  1  0  0  0
  5  7  1  0  0  0
  7  8  2  0  0  0
  8  9  2  0  0  0
  9 10  2  0  0  0
 10 13  1  0  0  0
 13 14  1  0  0  0
 14 15  1  0  0  0
 15 16  2  0  0  0
 16 17  1  0  0  0
 17 18  2  0  0  0
 18 19  1  0  0  0
 18 20  1  0  0  0
 20 23  1  0  0  0
 23 24  2  0  0  0
 23 25  1  0  0  0
 20 21  2  0  0  0
 10 11  1  0  0  0
 11 12  2  0  0  0
  5  6  2  0  0  0
 41 35  1  0  0  0
  6  1  1  0  0  0
 12  7  2  0  0  0
 21 15  1  0  0  0
 29 30  1  0  0  0
 19 22  1  0  0  0
 25 26  1  0  0  0
M  END
> <Activity>
32.3

> <minimizedAffinity>
-8.93443

$$$$
HIPS7781


 41 44  0  0  0  0  0  0  0  0999 V2000
   66.8408   77.7394   90.4695 C   0  0  0  0  0  0  0  0  0  0  0  0
   67.8887   77.8830   89.5477 C   0  0  0  0  0  0  0  0  0  0  0  0
   69.0172   78.6361   89.8722 C   0  0  0  0  0  0  0  0  0  0  0  0
   69.1088   79.2629   91.1161 C   0  0  0  0  0  0  0  0  0  0  0  0
   68.0561   79.1609   92.0480 C   0  0  0  0  0  0  0  0  0  0  0  0
   66.9198   78.4038   91.7076 C   0  0  0  0  0  0  0  0  0  0  0  0
   68.1471   79.8286   93.3695 C   0  0  0  0  0  0  0  0  0  0  0  0
   68.4034   79.1007   94.4908 N   0  0  0  0  0  0  0  0  0  0  0  0
   68.4676   79.6850   95.7139 C   0  0  0  0  0  0  0  0  0  0  0  0
   68.2799   81.0663   95.8424 C   0  0  0  0  0  0  0  0  0  0  0  0
   68.0088   81.7999   94.6825 C   0  0  0  0  0  0  0  0  0  0  0  0
   67.9503   81.1709   93.4792 N   0  0  0  0  0  0  0  0  0  0  0  0
   68.3179   81.7240   97.1950 C   0  0  0  0  0  0  0  0  0  0  0  0
   67.0070   82.1270   97.5905 O   0  0  0  0  0  0  0  0  0  0  0  0
   66.3315   83.2679   97.1247 C   0  0  0  0  0  0  0  0  0  0  0  0
   67.0002   84.3851   96.5934 C   0  0  0  0  0  0  0  0  0  0  0  0
   66.2698   85.4811   96.1307 C   0  0  0  0  0  0  0  0  0  0  0  0
   64.8689   85.5005   96.2007 C   0  0  0  0  0  0  0  0  0  0  0  0
   64.2200   86.6663   95.7753 O   0  0  0  0  0  0  0  0  0  0  0  0
   64.1790   84.3696   96.7140 C   0  0  0  0  0  0  0  0  0  0  0  0
   64.9328   83.2732   97.1799 C   0  0  0  0  0  0  0  0  0  0  0  0
   64.7198   87.3863   95.4439 H   0  0  0  0  0  0  0  0  0  0  0  0
   62.6978   84.2645   96.7446 C   0  0  0  0  0  0  0  0  0  0  0  0
   61.9736   85.0098   96.0275 O   0  0  0  0  0  0  0  0  0  0  0  0
   62.0918   83.2746   97.5234 O   0  0  0  0  0  0  0  0  0  0  0  0
   62.6166   82.7142   98.0604 H   0  0  0  0  0  0  0  0  0  0  0  0
   64.1878   78.0225   91.5610 O   0  0  0  0  0  0  0  0  0  0  0  0
   64.3870   77.1388   90.6817 C   0  0  0  0  0  0  0  0  0  0  0  0
   65.6913   76.9556   90.1115 N   0  0  0  0  0  0  0  0  0  0  0  0
   65.8051   76.2503   89.4342 H   0  0  0  0  0  0  0  0  0  0  0  0
   63.2514   76.2467   90.2673 C   0  0  0  0  0  0  0  0  0  0  0  0
   63.2188   74.9474   91.0814 C   0  0  0  0  0  0  0  0  0  0  0  0
   64.4603   74.0658   90.8611 C   0  0  0  0  0  0  0  0  0  0  0  0
   65.3555   74.1121   91.9741 O   0  0  0  0  0  0  0  0  0  0  0  0
   66.7152   74.4586   91.9111 C   0  0  0  0  0  0  0  0  0  0  0  0
   67.3944   74.2559   90.7031 C   0  0  0  0  0  0  0  0  0  0  0  0
   68.7378   74.6262   90.5750 C   0  0  0  0  0  0  0  0  0  0  0  0
   69.4144   75.1946   91.6600 C   0  0  0  0  0  0  0  0  0  0  0  0
   71.0925   75.6792   91.4902 Cl  0  0  0  0  0  0  0  0  0  0  0  0
   68.7529   75.3804   92.8750 C   0  0  0  0  0  0  0  0  0  0  0  0
   67.4099   75.0073   93.0063 C   0  0  0  0  0  0  0  0  0  0  0  0
 27 28  2  0  0  0
 28 31  1  0  0  0
 31 32  1  0  0  0
 32 33  1  0  0  0
 33 34  1  0  0  0
 34 35  1  0  0  0
 35 36  2  0  0  0
 36 37  1  0  0  0
 37 38  2  0  0  0
 38 39  1  0  0  0
 38 40  1  0  0  0
 40 41  2  0  0  0
 28 29  1  0  0  0
 29  1  1  0  0  0
  1  2  2  0  0  0
  2  3  1  0  0  0
  3  4  2  0  0  0
  4  5  1  0  0  0
  5  7  1  0  0  0
  7  8  2  0  0  0
  8  9  2  0  0  0
  9 10  2  0  0  0
 10 13  1  0  0  0
 13 14  1  0  0  0
 14 15  1  0  0  0
 15 16  2  0  0  0
 16 17  1  0  0  0
 17 18  2  0  0  0
 18 19  1  0  0  0
 18 20  1  0  0  0
 20 23  1  0  0  0
 23 24  2  0  0  0
 23 25  1  0  0  0
 20 21  2  0  0  0
 10 11  1  0  0  0
 11 12  2  0  0  0
  5  6  2  0  0  0
 41 35  1  0  0  0
  6  1  1  0  0  0
 12  7  2  0  0  0
 21 15  1  0  0  0
 29 30  1  0  0  0
 19 22  1  0  0  0
 25 26  1  0  0  0
M  END
> <Activity>
32.3

> <minimizedAffinity>
-8.88847

$$$$
HIPS7781


 41 44  0  0  0  0  0  0  0  0999 V2000
   68.2055   75.2990   90.8033 C   0  0  0  0  0  0  0  0  0  0  0  0
   69.3155   75.2953   89.9450 C   0  0  0  0  0  0  0  0  0  0  0  0
   70.2912   76.2870   90.0473 C   0  0  0  0  0  0  0  0  0  0  0  0
   70.1658   77.2993   91.0002 C   0  0  0  0  0  0  0  0  0  0  0  0
   69.0446   77.3441   91.8533 C   0  0  0  0  0  0  0  0  0  0  0  0
   68.0633   76.3422   91.7371 C   0  0  0  0  0  0  0  0  0  0  0  0
   68.9049   78.4203   92.8648 C   0  0  0  0  0  0  0  0  0  0  0  0
   69.2824   78.2039   94.1546 N   0  0  0  0  0  0  0  0  0  0  0  0
   69.1421   79.1644   95.1029 C   0  0  0  0  0  0  0  0  0  0  0  0
   68.6103   80.4139   94.7629 C   0  0  0  0  0  0  0  0  0  0  0  0
   68.2190   80.6186   93.4355 C   0  0  0  0  0  0  0  0  0  0  0  0
   68.3749   79.6258   92.5207 N   0  0  0  0  0  0  0  0  0  0  0  0
   68.4205   81.4783   95.8092 C   0  0  0  0  0  0  0  0  0  0  0  0
   67.0309   81.7043   96.0441 O   0  0  0  0  0  0  0  0  0  0  0  0
   66.3755   82.9411   95.9193 C   0  0  0  0  0  0  0  0  0  0  0  0
   66.9167   84.0206   95.1987 C   0  0  0  0  0  0  0  0  0  0  0  0
   66.2069   85.2184   95.0971 C   0  0  0  0  0  0  0  0  0  0  0  0
   64.9596   85.3769   95.7193 C   0  0  0  0  0  0  0  0  0  0  0  0
   64.3474   86.6326   95.6216 O   0  0  0  0  0  0  0  0  0  0  0  0
   64.3903   84.2874   96.4314 C   0  0  0  0  0  0  0  0  0  0  0  0
   65.1227   83.0866   96.5266 C   0  0  0  0  0  0  0  0  0  0  0  0
   64.7632   87.3204   95.1399 H   0  0  0  0  0  0  0  0  0  0  0  0
   63.0389   84.3337   97.0458 C   0  0  0  0  0  0  0  0  0  0  0  0
   62.0446   84.7796   96.4079 O   0  0  0  0  0  0  0  0  0  0  0  0
   62.8438   83.8071   98.3257 O   0  0  0  0  0  0  0  0  0  0  0  0
   63.5724   83.4726   98.8108 H   0  0  0  0  0  0  0  0  0  0  0  0
   65.8209   75.0309   92.4007 O   0  0  0  0  0  0  0  0  0  0  0  0
   66.0409   74.1767   91.4975 C   0  0  0  0  0  0  0  0  0  0  0  0
   67.2168   74.2642   90.6792 N   0  0  0  0  0  0  0  0  0  0  0  0
   67.3540   73.5735   89.9913 H   0  0  0  0  0  0  0  0  0  0  0  0
   65.0790   73.0372   91.3151 C   0  0  0  0  0  0  0  0  0  0  0  0
   63.6201   73.4982   91.4207 C   0  0  0  0  0  0  0  0  0  0  0  0
   63.0880   74.1207   90.1182 C   0  0  0  0  0  0  0  0  0  0  0  0
   63.1796   75.5468   90.1287 O   0  0  0  0  0  0  0  0  0  0  0  0
   64.2774   76.2954   89.6735 C   0  0  0  0  0  0  0  0  0  0  0  0
   64.6564   77.4268   90.4069 C   0  0  0  0  0  0  0  0  0  0  0  0
   65.7705   78.1806   90.0209 C   0  0  0  0  0  0  0  0  0  0  0  0
   66.5087   77.8117   88.8909 C   0  0  0  0  0  0  0  0  0  0  0  0
   67.9188   78.7451   88.4218 Cl  0  0  0  0  0  0  0  0  0  0  0  0
   66.1260   76.6988   88.1402 C   0  0  0  0  0  0  0  0  0  0  0  0
   65.0096   75.9454   88.5227 C   0  0  0  0  0  0  0  0  0  0  0  0
 27 28  2  0  0  0
 28 31  1  0  0  0
 31 32  1  0  0  0
 32 33  1  0  0  0
 33 34  1  0  0  0
 34 35  1  0  0  0
 35 36  2  0  0  0
 36 37  1  0  0  0
 37 38  2  0  0  0
 38 39  1  0  0  0
 38 40  1  0  0  0
 40 41  2  0  0  0
 28 29  1  0  0  0
 29  1  1  0  0  0
  1  2  2  0  0  0
  2  3  1  0  0  0
  3  4  2  0  0  0
  4  5  1  0  0  0
  5  7  1  0  0  0
  7  8  2  0  0  0
  8  9  2  0  0  0
  9 10  2  0  0  0
 10 13  1  0  0  0
 13 14  1  0  0  0
 14 15  1  0  0  0
 15 16  2  0  0  0
 16 17  1  0  0  0
 17 18  2  0  0  0
 18 19  1  0  0  0
 18 20  1  0  0  0
 20 23  1  0  0  0
 23 24  2  0  0  0
 23 25  1  0  0  0
 20 21  2  0  0  0
 10 11  1  0  0  0
 11 12  2  0  0  0
  5  6  2  0  0  0
 41 35  1  0  0  0
  6  1  1  0  0  0
 12  7  2  0  0  0
 21 15  1  0  0  0
 29 30  1  0  0  0
 19 22  1  0  0  0
 25 26  1  0  0  0
M  END
> <Activity>
32.3

> <minimizedAffinity>
-8.87269

$$$$
HIPS7781


 41 44  0  0  0  0  0  0  0  0999 V2000
   67.5617   74.4634   92.1158 C   0  0  0  0  0  0  0  0  0  0  0  0
   68.4321   73.5610   92.7455 C   0  0  0  0  0  0  0  0  0  0  0  0
   69.8112   73.7681   92.7107 C   0  0  0  0  0  0  0  0  0  0  0  0
   70.3384   74.8723   92.0388 C   0  0  0  0  0  0  0  0  0  0  0  0
   69.4879   75.7766   91.3711 C   0  0  0  0  0  0  0  0  0  0  0  0
   68.0988   75.5544   91.4074 C   0  0  0  0  0  0  0  0  0  0  0  0
   70.0437   76.9492   90.6523 C   0  0  0  0  0  0  0  0  0  0  0  0
   71.1268   76.8069   89.8401 N   0  0  0  0  0  0  0  0  0  0  0  0
   71.6681   77.8685   89.1909 C   0  0  0  0  0  0  0  0  0  0  0  0
   71.1067   79.1424   89.3391 C   0  0  0  0  0  0  0  0  0  0  0  0
   69.9994   79.2746   90.1837 C   0  0  0  0  0  0  0  0  0  0  0  0
   69.4937   78.1833   90.8164 N   0  0  0  0  0  0  0  0  0  0  0  0
   71.7138   80.3341   88.6501 C   0  0  0  0  0  0  0  0  0  0  0  0
   70.6922   81.2215   88.1960 O   0  0  0  0  0  0  0  0  0  0  0  0
   69.5812   80.8529   87.4184 C   0  0  0  0  0  0  0  0  0  0  0  0
   69.1759   81.5722   86.2800 C   0  0  0  0  0  0  0  0  0  0  0  0
   68.0731   81.1435   85.5392 C   0  0  0  0  0  0  0  0  0  0  0  0
   67.3414   80.0085   85.9191 C   0  0  0  0  0  0  0  0  0  0  0  0
   66.2106   79.6880   85.1576 O   0  0  0  0  0  0  0  0  0  0  0  0
   67.7529   79.2591   87.0537 C   0  0  0  0  0  0  0  0  0  0  0  0
   68.8667   79.7087   87.7919 C   0  0  0  0  0  0  0  0  0  0  0  0
   65.9801   80.2138   84.4171 H   0  0  0  0  0  0  0  0  0  0  0  0
   67.0947   77.9972   87.4782 C   0  0  0  0  0  0  0  0  0  0  0  0
   66.7248   77.8213   88.6726 O   0  0  0  0  0  0  0  0  0  0  0  0
   66.8099   77.0132   86.5273 O   0  0  0  0  0  0  0  0  0  0  0  0
   67.0783   77.1301   85.6372 H   0  0  0  0  0  0  0  0  0  0  0  0
   66.1521   72.2947   90.8431 O   0  0  0  0  0  0  0  0  0  0  0  0
   65.4899   73.1289   91.5209 C   0  0  0  0  0  0  0  0  0  0  0  0
   66.1455   74.2287   92.1694 N   0  0  0  0  0  0  0  0  0  0  0  0
   65.5910   74.8605   92.6820 H   0  0  0  0  0  0  0  0  0  0  0  0
   63.9970   72.9847   91.6068 C   0  0  0  0  0  0  0  0  0  0  0  0
   63.2884   74.3444   91.5709 C   0  0  0  0  0  0  0  0  0  0  0  0
   61.9236   74.2952   90.8626 C   0  0  0  0  0  0  0  0  0  0  0  0
   61.9754   74.8750   89.5573 O   0  0  0  0  0  0  0  0  0  0  0  0
   61.3884   74.3330   88.4021 C   0  0  0  0  0  0  0  0  0  0  0  0
   61.9880   73.2088   87.8205 C   0  0  0  0  0  0  0  0  0  0  0  0
   61.4170   72.6041   86.6951 C   0  0  0  0  0  0  0  0  0  0  0  0
   60.2449   73.1269   86.1376 C   0  0  0  0  0  0  0  0  0  0  0  0
   59.5180   72.3535   84.7400 Cl  0  0  0  0  0  0  0  0  0  0  0  0
   59.6517   74.2603   86.6963 C   0  0  0  0  0  0  0  0  0  0  0  0
   60.2234   74.8689   87.8202 C   0  0  0  0  0  0  0  0  0  0  0  0
 27 28  2  0  0  0
 28 31  1  0  0  0
 31 32  1  0  0  0
 32 33  1  0  0  0
 33 34  1  0  0  0
 34 35  1  0  0  0
 35 36  2  0  0  0
 36 37  1  0  0  0
 37 38  2  0  0  0
 38 39  1  0  0  0
 38 40  1  0  0  0
 40 41  2  0  0  0
 28 29  1  0  0  0
 29  1  1  0  0  0
  1  2  2  0  0  0
  2  3  1  0  0  0
  3  4  2  0  0  0
  4  5  1  0  0  0
  5  7  1  0  0  0
  7  8  2  0  0  0
  8  9  2  0  0  0
  9 10  2  0  0  0
 10 13  1  0  0  0
 13 14  1  0  0  0
 14 15  1  0  0  0
 15 16  2  0  0  0
 16 17  1  0  0  0
 17 18  2  0  0  0
 18 19  1  0  0  0
 18 20  1  0  0  0
 20 23  1  0  0  0
 23 24  2  0  0  0
 23 25  1  0  0  0
 20 21  2  0  0  0
 10 11  1  0  0  0
 11 12  2  0  0  0
  5  6  2  0  0  0
 41 35  1  0  0  0
  6  1  1  0  0  0
 12  7  2  0  0  0
 21 15  1  0  0  0
 29 30  1  0  0  0
 19 22  1  0  0  0
 25 26  1  0  0  0
M  END
> <Activity>
32.3

> <minimizedAffinity>
-8.82183

$$$$
HIPS7781


 41 44  0  0  0  0  0  0  0  0999 V2000
   66.5777   77.5233   89.6421 C   0  0  0  0  0  0  0  0  0  0  0  0
   67.5814   77.6992   88.6777 C   0  0  0  0  0  0  0  0  0  0  0  0
   68.7512   78.3908   88.9931 C   0  0  0  0  0  0  0  0  0  0  0  0
   68.9286   78.9233   90.2712 C   0  0  0  0  0  0  0  0  0  0  0  0
   67.9223   78.7881   91.2488 C   0  0  0  0  0  0  0  0  0  0  0  0
   66.7437   78.0941   90.9177 C   0  0  0  0  0  0  0  0  0  0  0  0
   68.1046   79.3559   92.6071 C   0  0  0  0  0  0  0  0  0  0  0  0
   68.7611   78.6466   93.5657 N   0  0  0  0  0  0  0  0  0  0  0  0
   68.9196   79.1342   94.8221 C   0  0  0  0  0  0  0  0  0  0  0  0
   68.4136   80.3966   95.1538 C   0  0  0  0  0  0  0  0  0  0  0  0
   67.7339   81.1101   94.1609 C   0  0  0  0  0  0  0  0  0  0  0  0
   67.5962   80.5798   92.9172 N   0  0  0  0  0  0  0  0  0  0  0  0
   68.5547   80.9378   96.5505 C   0  0  0  0  0  0  0  0  0  0  0  0
   68.3026   82.3426   96.5688 O   0  0  0  0  0  0  0  0  0  0  0  0
   67.0878   82.9463   96.9361 C   0  0  0  0  0  0  0  0  0  0  0  0
   66.2956   82.4782   97.9995 C   0  0  0  0  0  0  0  0  0  0  0  0
   65.1070   83.1336   98.3259 C   0  0  0  0  0  0  0  0  0  0  0  0
   64.6715   84.2506   97.5976 C   0  0  0  0  0  0  0  0  0  0  0  0
   63.4355   84.8063   97.9507 O   0  0  0  0  0  0  0  0  0  0  0  0
   65.4729   84.7482   96.5353 C   0  0  0  0  0  0  0  0  0  0  0  0
   66.6682   84.0718   96.2175 C   0  0  0  0  0  0  0  0  0  0  0  0
   62.9435   84.4419   98.6600 H   0  0  0  0  0  0  0  0  0  0  0  0
   65.1373   85.9748   95.7680 C   0  0  0  0  0  0  0  0  0  0  0  0
   66.0321   86.7950   95.4204 O   0  0  0  0  0  0  0  0  0  0  0  0
   63.8195   86.1928   95.3563 O   0  0  0  0  0  0  0  0  0  0  0  0
   63.1450   85.5925   95.6068 H   0  0  0  0  0  0  0  0  0  0  0  0
   64.0338   77.7026   90.9862 O   0  0  0  0  0  0  0  0  0  0  0  0
   64.1374   76.9319   89.9917 C   0  0  0  0  0  0  0  0  0  0  0  0
   65.3842   76.8043   89.2923 N   0  0  0  0  0  0  0  0  0  0  0  0
   65.4239   76.1867   88.5266 H   0  0  0  0  0  0  0  0  0  0  0  0
   62.9505   76.1123   89.5717 C   0  0  0  0  0  0  0  0  0  0  0  0
   63.2032   74.6096   89.7454 C   0  0  0  0  0  0  0  0  0  0  0  0
   64.0480   74.2793   90.9879 C   0  0  0  0  0  0  0  0  0  0  0  0
   65.3413   73.7802   90.6402 O   0  0  0  0  0  0  0  0  0  0  0  0
   66.5628   74.2791   91.1216 C   0  0  0  0  0  0  0  0  0  0  0  0
   67.6417   74.3582   90.2320 C   0  0  0  0  0  0  0  0  0  0  0  0
   68.8669   74.8897   90.6501 C   0  0  0  0  0  0  0  0  0  0  0  0
   69.0235   75.3381   91.9663 C   0  0  0  0  0  0  0  0  0  0  0  0
   70.5538   76.0252   92.4821 Cl  0  0  0  0  0  0  0  0  0  0  0  0
   67.9613   75.2431   92.8669 C   0  0  0  0  0  0  0  0  0  0  0  0
   66.7357   74.7084   92.4515 C   0  0  0  0  0  0  0  0  0  0  0  0
 27 28  2  0  0  0
 28 31  1  0  0  0
 31 32  1  0  0  0
 32 33  1  0  0  0
 33 34  1  0  0  0
 34 35  1  0  0  0
 35 36  2  0  0  0
 36 37  1  0  0  0
 37 38  2  0  0  0
 38 39  1  0  0  0
 38 40  1  0  0  0
 40 41  2  0  0  0
 28 29  1  0  0  0
 29  1  1  0  0  0
  1  2  2  0  0  0
  2  3  1  0  0  0
  3  4  2  0  0  0
  4  5  1  0  0  0
  5  7  1  0  0  0
  7  8  2  0  0  0
  8  9  2  0  0  0
  9 10  2  0  0  0
 10 13  1  0  0  0
 13 14  1  0  0  0
 14 15  1  0  0  0
 15 16  2  0  0  0
 16 17  1  0  0  0
 17 18  2  0  0  0
 18 19  1  0  0  0
 18 20  1  0  0  0
 20 23  1  0  0  0
 23 24  2  0  0  0
 23 25  1  0  0  0
 20 21  2  0  0  0
 10 11  1  0  0  0
 11 12  2  0  0  0
  5  6  2  0  0  0
 41 35  1  0  0  0
  6  1  1  0  0  0
 12  7  2  0  0  0
 21 15  1  0  0  0
 29 30  1  0  0  0
 19 22  1  0  0  0
 25 26  1  0  0  0
M  END
> <Activity>
32.3

> <minimizedAffinity>
-8.63572

$$$$
HIPS7785


 42 46  0  0  0  0  0  0  0  0999 V2000
   68.2189   77.2105   91.3299 C   0  0  0  0  0  0  0  0  0  0  0  0
   69.2141   77.0216   90.3957 C   0  0  0  0  0  0  0  0  0  0  0  0
   69.1004   76.1141   89.3621 C   0  0  0  0  0  0  0  0  0  0  0  0
   67.9391   75.3628   89.2595 C   0  0  0  0  0  0  0  0  0  0  0  0
   66.9174   75.5226   90.1767 C   0  0  0  0  0  0  0  0  0  0  0  0
   67.0816   76.4433   91.1909 C   0  0  0  0  0  0  0  0  0  0  0  0
   68.5413   80.0360   94.4687 C   0  0  0  0  0  0  0  0  0  0  0  0
   69.0648   78.7652   94.5920 C   0  0  0  0  0  0  0  0  0  0  0  0
   68.9528   77.8777   93.5815 N   0  0  0  0  0  0  0  0  0  0  0  0
   68.3399   78.1711   92.4232 C   0  0  0  0  0  0  0  0  0  0  0  0
   67.8285   79.4070   92.2979 N   0  0  0  0  0  0  0  0  0  0  0  0
   67.9130   80.3302   93.2754 C   0  0  0  0  0  0  0  0  0  0  0  0
   68.6548   81.0297   95.5729 C   0  0  0  0  0  0  0  0  0  0  0  0
   67.9390   82.1941   95.2177 O   0  0  0  0  0  0  0  0  0  0  0  0
   64.9920   84.0414   96.3881 C   0  0  0  0  0  0  0  0  0  0  0  0
   65.9961   83.5713   95.5589 C   0  0  0  0  0  0  0  0  0  0  0  0
   66.9373   82.6736   96.0163 C   0  0  0  0  0  0  0  0  0  0  0  0
   66.8655   82.2445   97.3252 C   0  0  0  0  0  0  0  0  0  0  0  0
   65.8782   82.6913   98.1821 C   0  0  0  0  0  0  0  0  0  0  0  0
   64.9671   83.5846   97.6736 C   0  0  0  0  0  0  0  0  0  0  0  0
   63.9643   84.0499   98.5132 O   0  0  0  0  0  0  0  0  0  0  0  0
   63.9218   83.7538   99.4012 H   0  0  0  0  0  0  0  0  0  0  0  0
   62.8029   84.7729   96.1129 O   0  0  0  0  0  0  0  0  0  0  0  0
   64.0065   84.9897   95.8861 C   0  0  0  0  0  0  0  0  0  0  0  0
   64.4251   86.1023   95.1738 O   0  0  0  0  0  0  0  0  0  0  0  0
   65.3383   86.2418   95.0170 H   0  0  0  0  0  0  0  0  0  0  0  0
   65.7455   74.7307   90.0316 N   0  0  0  0  0  0  0  0  0  0  0  0
   64.6023   75.0426   90.8050 C   0  0  0  0  0  0  0  0  0  0  0  0
   64.6898   76.0196   91.5902 O   0  0  0  0  0  0  0  0  0  0  0  0
   65.7296   73.9749   89.4010 H   0  0  0  0  0  0  0  0  0  0  0  0
   63.3297   74.2770   90.7296 C   0  0  0  0  0  0  0  0  0  0  0  0
   63.6042   72.8017   90.5426 C   0  0  0  0  0  0  0  0  0  0  0  0
   63.4833   72.1707   91.8915 C   0  0  0  0  0  0  0  0  0  0  0  0
   63.3281   73.3109   92.8776 C   0  0  0  0  0  0  0  0  0  0  0  0
   62.6291   74.3745   92.0422 C   0  0  0  0  0  0  0  0  0  0  0  0
   62.5149   74.7815   89.5963 C   0  0  0  0  0  0  0  0  0  0  0  0
   61.6982   73.9761   88.8318 C   0  0  0  0  0  0  0  0  0  0  0  0
   60.9452   74.4721   87.7685 C   0  0  0  0  0  0  0  0  0  0  0  0
   61.0036   75.8144   87.4512 C   0  0  0  0  0  0  0  0  0  0  0  0
   61.8129   76.6411   88.2004 C   0  0  0  0  0  0  0  0  0  0  0  0
   62.5381   76.1233   89.2359 C   0  0  0  0  0  0  0  0  0  0  0  0
   63.3258   76.9560   89.9519 F   0  0  0  0  0  0  0  0  0  0  0  0
 23 24  2  0  0  0
 24 25  1  0  0  0
 24 15  1  0  0  0
 15 16  2  0  0  0
 16 17  1  0  0  0
 17 14  1  0  0  0
 14 13  1  0  0  0
 13  7  1  0  0  0
  7  8  2  0  0  0
  8  9  2  0  0  0
  9 10  2  0  0  0
 10  1  1  0  0  0
  1  2  2  0  0  0
  2  3  1  0  0  0
  3  4  2  0  0  0
  4  5  1  0  0  0
  5 27  1  0  0  0
 27 28  1  0  0  0
 28 29  2  0  0  0
 28 31  1  0  0  0
 31 36  1  0  0  0
 36 37  2  0  0  0
 37 38  1  0  0  0
 38 39  2  0  0  0
 39 40  1  0  0  0
 40 41  2  0  0  0
 41 42  1  0  0  0
 31 32  1  0  0  0
 32 33  1  0  0  0
 33 34  1  0  0  0
 34 35  1  0  0  0
  5  6  2  0  0  0
 10 11  2  0  0  0
 11 12  2  0  0  0
 17 18  2  0  0  0
 18 19  1  0  0  0
 19 20  2  0  0  0
 20 21  1  0  0  0
 20 15  1  0  0  0
 12  7  1  0  0  0
  6  1  1  0  0  0
 35 31  1  0  0  0
 41 36  1  0  0  0
 25 26  1  0  0  0
 27 30  1  0  0  0
 21 22  1  0  0  0
M  END
> <Activity>
34.7

> <minimizedAffinity>
-10.37766

$$$$
HIPS7785


 42 46  0  0  0  0  0  0  0  0999 V2000
   68.4808   77.1795   91.4662 C   0  0  0  0  0  0  0  0  0  0  0  0
   69.5956   76.7596   90.7735 C   0  0  0  0  0  0  0  0  0  0  0  0
   69.5317   75.8290   89.7563 C   0  0  0  0  0  0  0  0  0  0  0  0
   68.2970   75.2952   89.4180 C   0  0  0  0  0  0  0  0  0  0  0  0
   67.1549   75.6904   90.0888 C   0  0  0  0  0  0  0  0  0  0  0  0
   67.2739   76.6237   91.0977 C   0  0  0  0  0  0  0  0  0  0  0  0
   68.6543   80.0754   94.5520 C   0  0  0  0  0  0  0  0  0  0  0  0
   69.1384   78.7971   94.7410 C   0  0  0  0  0  0  0  0  0  0  0  0
   69.0749   77.8871   93.7465 N   0  0  0  0  0  0  0  0  0  0  0  0
   68.5494   78.1644   92.5422 C   0  0  0  0  0  0  0  0  0  0  0  0
   68.0766   79.4075   92.3529 N   0  0  0  0  0  0  0  0  0  0  0  0
   68.1157   80.3530   93.3118 C   0  0  0  0  0  0  0  0  0  0  0  0
   68.7154   81.0938   95.6377 C   0  0  0  0  0  0  0  0  0  0  0  0
   67.9464   82.2158   95.2581 O   0  0  0  0  0  0  0  0  0  0  0  0
   64.9525   83.9915   96.4205 C   0  0  0  0  0  0  0  0  0  0  0  0
   65.9654   83.5396   95.5919 C   0  0  0  0  0  0  0  0  0  0  0  0
   66.9354   82.6768   96.0560 C   0  0  0  0  0  0  0  0  0  0  0  0
   66.8838   82.2642   97.3712 C   0  0  0  0  0  0  0  0  0  0  0  0
   65.8885   82.6937   98.2277 C   0  0  0  0  0  0  0  0  0  0  0  0
   64.9485   83.5524   97.7124 C   0  0  0  0  0  0  0  0  0  0  0  0
   63.9370   83.9995   98.5515 O   0  0  0  0  0  0  0  0  0  0  0  0
   63.9085   83.7150   99.4438 H   0  0  0  0  0  0  0  0  0  0  0  0
   62.7485   84.7024   96.2205 O   0  0  0  0  0  0  0  0  0  0  0  0
   63.9365   84.9030   95.9114 C   0  0  0  0  0  0  0  0  0  0  0  0
   64.3097   85.9639   95.1016 O   0  0  0  0  0  0  0  0  0  0  0  0
   65.2120   86.0923   94.8839 H   0  0  0  0  0  0  0  0  0  0  0  0
   65.9113   75.1163   89.7074 N   0  0  0  0  0  0  0  0  0  0  0  0
   64.7296   75.5295   90.3672 C   0  0  0  0  0  0  0  0  0  0  0  0
   64.8492   76.3961   91.2692 O   0  0  0  0  0  0  0  0  0  0  0  0
   65.8728   74.4399   88.9931 H   0  0  0  0  0  0  0  0  0  0  0  0
   63.3816   74.9905   90.0453 C   0  0  0  0  0  0  0  0  0  0  0  0
   62.3809   76.1134   89.8883 C   0  0  0  0  0  0  0  0  0  0  0  0
   62.2375   76.3553   88.4209 C   0  0  0  0  0  0  0  0  0  0  0  0
   63.2950   75.5034   87.7482 C   0  0  0  0  0  0  0  0  0  0  0  0
   63.4319   74.3306   88.7092 C   0  0  0  0  0  0  0  0  0  0  0  0
   62.9419   74.0770   91.1293 C   0  0  0  0  0  0  0  0  0  0  0  0
   61.8280   74.3055   91.9084 C   0  0  0  0  0  0  0  0  0  0  0  0
   61.4370   73.4349   92.9246 C   0  0  0  0  0  0  0  0  0  0  0  0
   62.1764   72.2970   93.1781 C   0  0  0  0  0  0  0  0  0  0  0  0
   63.2950   72.0457   92.4131 C   0  0  0  0  0  0  0  0  0  0  0  0
   63.6510   72.9190   91.4248 C   0  0  0  0  0  0  0  0  0  0  0  0
   64.7541   72.6497   90.6921 F   0  0  0  0  0  0  0  0  0  0  0  0
 23 24  2  0  0  0
 24 25  1  0  0  0
 24 15  1  0  0  0
 15 16  2  0  0  0
 16 17  1  0  0  0
 17 14  1  0  0  0
 14 13  1  0  0  0
 13  7  1  0  0  0
  7  8  2  0  0  0
  8  9  2  0  0  0
  9 10  2  0  0  0
 10  1  1  0  0  0
  1  2  2  0  0  0
  2  3  1  0  0  0
  3  4  2  0  0  0
  4  5  1  0  0  0
  5 27  1  0  0  0
 27 28  1  0  0  0
 28 29  2  0  0  0
 28 31  1  0  0  0
 31 36  1  0  0  0
 36 37  2  0  0  0
 37 38  1  0  0  0
 38 39  2  0  0  0
 39 40  1  0  0  0
 40 41  2  0  0  0
 41 42  1  0  0  0
 31 32  1  0  0  0
 32 33  1  0  0  0
 33 34  1  0  0  0
 34 35  1  0  0  0
  5  6  2  0  0  0
 10 11  2  0  0  0
 11 12  2  0  0  0
 17 18  2  0  0  0
 18 19  1  0  0  0
 19 20  2  0  0  0
 20 21  1  0  0  0
 20 15  1  0  0  0
 12  7  1  0  0  0
  6  1  1  0  0  0
 35 31  1  0  0  0
 41 36  1  0  0  0
 25 26  1  0  0  0
 27 30  1  0  0  0
 21 22  1  0  0  0
M  END
> <Activity>
34.7

> <minimizedAffinity>
-10.20778

$$$$
HIPS7785


 42 46  0  0  0  0  0  0  0  0999 V2000
   68.7658   78.7566   94.2739 C   0  0  0  0  0  0  0  0  0  0  0  0
   69.7455   77.8069   94.4669 C   0  0  0  0  0  0  0  0  0  0  0  0
   70.1602   76.9529   93.4651 C   0  0  0  0  0  0  0  0  0  0  0  0
   69.5679   77.0544   92.2152 C   0  0  0  0  0  0  0  0  0  0  0  0
   68.5814   77.9940   91.9810 C   0  0  0  0  0  0  0  0  0  0  0  0
   68.2035   78.8234   93.0166 C   0  0  0  0  0  0  0  0  0  0  0  0
   67.5087   81.4221   97.3158 C   0  0  0  0  0  0  0  0  0  0  0  0
   67.4435   80.0547   97.4895 C   0  0  0  0  0  0  0  0  0  0  0  0
   67.8484   79.2202   96.5093 N   0  0  0  0  0  0  0  0  0  0  0  0
   68.3276   79.6599   95.3344 C   0  0  0  0  0  0  0  0  0  0  0  0
   68.3933   80.9903   95.1602 N   0  0  0  0  0  0  0  0  0  0  0  0
   68.0023   81.8666   96.1059 C   0  0  0  0  0  0  0  0  0  0  0  0
   67.0663   82.3596   98.3860 C   0  0  0  0  0  0  0  0  0  0  0  0
   67.2775   83.6861   97.9501 O   0  0  0  0  0  0  0  0  0  0  0  0
   64.0144   84.7279   96.6333 C   0  0  0  0  0  0  0  0  0  0  0  0
   64.9743   84.0296   97.3459 C   0  0  0  0  0  0  0  0  0  0  0  0
   66.3098   84.3599   97.2568 C   0  0  0  0  0  0  0  0  0  0  0  0
   66.6824   85.4069   96.4397 C   0  0  0  0  0  0  0  0  0  0  0  0
   65.7533   86.1267   95.7136 C   0  0  0  0  0  0  0  0  0  0  0  0
   64.4372   85.7545   95.8402 C   0  0  0  0  0  0  0  0  0  0  0  0
   63.4826   86.4611   95.1215 O   0  0  0  0  0  0  0  0  0  0  0  0
   63.7433   87.1711   94.5685 H   0  0  0  0  0  0  0  0  0  0  0  0
   61.7728   85.0165   96.0900 O   0  0  0  0  0  0  0  0  0  0  0  0
   62.6079   84.3637   96.7409 C   0  0  0  0  0  0  0  0  0  0  0  0
   62.2325   83.3086   97.5572 O   0  0  0  0  0  0  0  0  0  0  0  0
   62.8820   82.8332   98.0368 H   0  0  0  0  0  0  0  0  0  0  0  0
   68.0030   78.0615   90.6840 N   0  0  0  0  0  0  0  0  0  0  0  0
   67.2852   76.9464   90.1900 C   0  0  0  0  0  0  0  0  0  0  0  0
   67.1986   75.9419   90.9398 O   0  0  0  0  0  0  0  0  0  0  0  0
   68.1005   78.8738   90.1364 H   0  0  0  0  0  0  0  0  0  0  0  0
   66.6448   76.9146   88.8483 C   0  0  0  0  0  0  0  0  0  0  0  0
   66.7438   78.2662   88.1771 C   0  0  0  0  0  0  0  0  0  0  0  0
   67.8966   78.1889   87.2298 C   0  0  0  0  0  0  0  0  0  0  0  0
   68.5731   76.8595   87.4971 C   0  0  0  0  0  0  0  0  0  0  0  0
   67.4150   75.9904   87.9675 C   0  0  0  0  0  0  0  0  0  0  0  0
   65.2184   76.5299   88.9897 C   0  0  0  0  0  0  0  0  0  0  0  0
   64.6052   75.5858   88.1941 C   0  0  0  0  0  0  0  0  0  0  0  0
   63.2618   75.2440   88.3425 C   0  0  0  0  0  0  0  0  0  0  0  0
   62.4985   75.8598   89.3141 C   0  0  0  0  0  0  0  0  0  0  0  0
   63.0881   76.8075   90.1227 C   0  0  0  0  0  0  0  0  0  0  0  0
   64.4069   77.1196   89.9512 C   0  0  0  0  0  0  0  0  0  0  0  0
   64.9587   78.0547   90.7559 F   0  0  0  0  0  0  0  0  0  0  0  0
 23 24  2  0  0  0
 24 25  1  0  0  0
 24 15  1  0  0  0
 15 16  2  0  0  0
 16 17  1  0  0  0
 17 14  1  0  0  0
 14 13  1  0  0  0
 13  7  1  0  0  0
  7  8  2  0  0  0
  8  9  2  0  0  0
  9 10  2  0  0  0
 10  1  1  0  0  0
  1  2  2  0  0  0
  2  3  1  0  0  0
  3  4  2  0  0  0
  4  5  1  0  0  0
  5 27  1  0  0  0
 27 28  1  0  0  0
 28 29  2  0  0  0
 28 31  1  0  0  0
 31 36  1  0  0  0
 36 37  2  0  0  0
 37 38  1  0  0  0
 38 39  2  0  0  0
 39 40  1  0  0  0
 40 41  2  0  0  0
 41 42  1  0  0  0
 31 32  1  0  0  0
 32 33  1  0  0  0
 33 34  1  0  0  0
 34 35  1  0  0  0
  5  6  2  0  0  0
 10 11  2  0  0  0
 11 12  2  0  0  0
 17 18  2  0  0  0
 18 19  1  0  0  0
 19 20  2  0  0  0
 20 21  1  0  0  0
 20 15  1  0  0  0
 12  7  1  0  0  0
  6  1  1  0  0  0
 35 31  1  0  0  0
 41 36  1  0  0  0
 25 26  1  0  0  0
 27 30  1  0  0  0
 21 22  1  0  0  0
M  END
> <Activity>
34.7

> <minimizedAffinity>
-9.61317

$$$$
HIPS7785


 42 46  0  0  0  0  0  0  0  0999 V2000
   68.6530   78.7136   94.0943 C   0  0  0  0  0  0  0  0  0  0  0  0
   69.6216   77.7457   94.2489 C   0  0  0  0  0  0  0  0  0  0  0  0
   69.9485   76.8549   93.2468 C   0  0  0  0  0  0  0  0  0  0  0  0
   69.2759   76.9368   92.0366 C   0  0  0  0  0  0  0  0  0  0  0  0
   68.2976   77.8937   91.8417 C   0  0  0  0  0  0  0  0  0  0  0  0
   68.0091   78.7600   92.8758 C   0  0  0  0  0  0  0  0  0  0  0  0
   67.6646   81.4912   97.1352 C   0  0  0  0  0  0  0  0  0  0  0  0
   67.5759   80.1311   97.3507 C   0  0  0  0  0  0  0  0  0  0  0  0
   67.8950   79.2605   96.3702 N   0  0  0  0  0  0  0  0  0  0  0  0
   68.3079   79.6560   95.1551 C   0  0  0  0  0  0  0  0  0  0  0  0
   68.3960   80.9792   94.9400 N   0  0  0  0  0  0  0  0  0  0  0  0
   68.0897   81.8902   95.8840 C   0  0  0  0  0  0  0  0  0  0  0  0
   67.3167   82.4681   98.2050 C   0  0  0  0  0  0  0  0  0  0  0  0
   67.4944   83.7773   97.7063 O   0  0  0  0  0  0  0  0  0  0  0  0
   64.1262   84.7933   96.6619 C   0  0  0  0  0  0  0  0  0  0  0  0
   65.1464   84.1071   97.2984 C   0  0  0  0  0  0  0  0  0  0  0  0
   66.4681   84.4393   97.0900 C   0  0  0  0  0  0  0  0  0  0  0  0
   66.7652   85.4757   96.2296 C   0  0  0  0  0  0  0  0  0  0  0  0
   65.7745   86.1833   95.5767 C   0  0  0  0  0  0  0  0  0  0  0  0
   64.4755   85.8098   95.8214 C   0  0  0  0  0  0  0  0  0  0  0  0
   63.4600   86.5042   95.1782 O   0  0  0  0  0  0  0  0  0  0  0  0
   63.6695   87.2071   94.5952 H   0  0  0  0  0  0  0  0  0  0  0  0
   61.8793   84.7842   96.0666 O   0  0  0  0  0  0  0  0  0  0  0  0
   62.7355   84.4273   96.8953 C   0  0  0  0  0  0  0  0  0  0  0  0
   62.3980   83.6968   98.0235 O   0  0  0  0  0  0  0  0  0  0  0  0
   63.0628   83.4406   98.6320 H   0  0  0  0  0  0  0  0  0  0  0  0
   67.6349   77.9400   90.5847 N   0  0  0  0  0  0  0  0  0  0  0  0
   68.4045   77.9064   89.3976 C   0  0  0  0  0  0  0  0  0  0  0  0
   69.6525   77.8361   89.5248 O   0  0  0  0  0  0  0  0  0  0  0  0
   66.6529   77.9949   90.5406 H   0  0  0  0  0  0  0  0  0  0  0  0
   67.8097   77.9516   88.0354 C   0  0  0  0  0  0  0  0  0  0  0  0
   68.3391   76.8197   87.1837 C   0  0  0  0  0  0  0  0  0  0  0  0
   67.3009   75.7455   87.2083 C   0  0  0  0  0  0  0  0  0  0  0  0
   66.2660   76.1830   88.2251 C   0  0  0  0  0  0  0  0  0  0  0  0
   66.3436   77.7011   88.1402 C   0  0  0  0  0  0  0  0  0  0  0  0
   68.1337   79.2516   87.3968 C   0  0  0  0  0  0  0  0  0  0  0  0
   69.0242   80.1580   87.9313 C   0  0  0  0  0  0  0  0  0  0  0  0
   69.3092   81.3758   87.3153 C   0  0  0  0  0  0  0  0  0  0  0  0
   68.6895   81.7075   86.1271 C   0  0  0  0  0  0  0  0  0  0  0  0
   67.7946   80.8183   85.5720 C   0  0  0  0  0  0  0  0  0  0  0  0
   67.5375   79.6332   86.2011 C   0  0  0  0  0  0  0  0  0  0  0  0
   66.6533   78.7814   85.6363 F   0  0  0  0  0  0  0  0  0  0  0  0
 23 24  2  0  0  0
 24 25  1  0  0  0
 24 15  1  0  0  0
 15 16  2  0  0  0
 16 17  1  0  0  0
 17 14  1  0  0  0
 14 13  1  0  0  0
 13  7  1  0  0  0
  7  8  2  0  0  0
  8  9  2  0  0  0
  9 10  2  0  0  0
 10  1  1  0  0  0
  1  2  2  0  0  0
  2  3  1  0  0  0
  3  4  2  0  0  0
  4  5  1  0  0  0
  5 27  1  0  0  0
 27 28  1  0  0  0
 28 29  2  0  0  0
 28 31  1  0  0  0
 31 36  1  0  0  0
 36 37  2  0  0  0
 37 38  1  0  0  0
 38 39  2  0  0  0
 39 40  1  0  0  0
 40 41  2  0  0  0
 41 42  1  0  0  0
 31 32  1  0  0  0
 32 33  1  0  0  0
 33 34  1  0  0  0
 34 35  1  0  0  0
  5  6  2  0  0  0
 10 11  2  0  0  0
 11 12  2  0  0  0
 17 18  2  0  0  0
 18 19  1  0  0  0
 19 20  2  0  0  0
 20 21  1  0  0  0
 20 15  1  0  0  0
 12  7  1  0  0  0
  6  1  1  0  0  0
 35 31  1  0  0  0
 41 36  1  0  0  0
 25 26  1  0  0  0
 27 30  1  0  0  0
 21 22  1  0  0  0
M  END
> <Activity>
34.7

> <minimizedAffinity>
-9.61029

$$$$
HIPS7785


 42 46  0  0  0  0  0  0  0  0999 V2000
   69.1512   78.6714   88.9913 C   0  0  0  0  0  0  0  0  0  0  0  0
   68.4180   79.1959   87.9490 C   0  0  0  0  0  0  0  0  0  0  0  0
   68.8135   80.3211   87.2546 C   0  0  0  0  0  0  0  0  0  0  0  0
   69.9950   80.9489   87.6201 C   0  0  0  0  0  0  0  0  0  0  0  0
   70.7591   80.4540   88.6602 C   0  0  0  0  0  0  0  0  0  0  0  0
   70.3188   79.3262   89.3216 C   0  0  0  0  0  0  0  0  0  0  0  0
   67.9169   75.2517   91.1640 C   0  0  0  0  0  0  0  0  0  0  0  0
   68.5017   75.1372   89.9194 C   0  0  0  0  0  0  0  0  0  0  0  0
   68.8890   76.2378   89.2413 N   0  0  0  0  0  0  0  0  0  0  0  0
   68.7321   77.4806   89.7254 C   0  0  0  0  0  0  0  0  0  0  0  0
   68.1632   77.5976   90.9367 N   0  0  0  0  0  0  0  0  0  0  0  0
   67.7590   76.5320   91.6551 C   0  0  0  0  0  0  0  0  0  0  0  0
   67.4827   74.0486   91.9281 C   0  0  0  0  0  0  0  0  0  0  0  0
   66.5631   73.3156   91.1461 O   0  0  0  0  0  0  0  0  0  0  0  0
   63.6059   75.2904   90.2393 C   0  0  0  0  0  0  0  0  0  0  0  0
   64.9269   74.8936   90.3581 C   0  0  0  0  0  0  0  0  0  0  0  0
   65.2661   73.7298   91.0148 C   0  0  0  0  0  0  0  0  0  0  0  0
   64.2614   72.9566   91.5584 C   0  0  0  0  0  0  0  0  0  0  0  0
   62.9323   73.3200   91.4600 C   0  0  0  0  0  0  0  0  0  0  0  0
   62.6519   74.4888   90.7951 C   0  0  0  0  0  0  0  0  0  0  0  0
   61.3241   74.8777   90.6815 O   0  0  0  0  0  0  0  0  0  0  0  0
   60.6471   74.3473   91.0533 H   0  0  0  0  0  0  0  0  0  0  0  0
   63.7558   77.5920   89.9506 O   0  0  0  0  0  0  0  0  0  0  0  0
   63.2677   76.5237   89.5413 C   0  0  0  0  0  0  0  0  0  0  0  0
   62.4183   76.4824   88.4471 O   0  0  0  0  0  0  0  0  0  0  0  0
   62.0643   75.6640   88.1594 H   0  0  0  0  0  0  0  0  0  0  0  0
   71.9629   81.1304   88.9993 N   0  0  0  0  0  0  0  0  0  0  0  0
   73.1772   80.7194   88.4003 C   0  0  0  0  0  0  0  0  0  0  0  0
   73.1212   79.7625   87.5879 O   0  0  0  0  0  0  0  0  0  0  0  0
   71.9516   81.8755   89.6428 H   0  0  0  0  0  0  0  0  0  0  0  0
   74.4888   81.3585   88.6879 C   0  0  0  0  0  0  0  0  0  0  0  0
   74.7736   82.4634   87.6955 C   0  0  0  0  0  0  0  0  0  0  0  0
   74.4089   83.7464   88.3689 C   0  0  0  0  0  0  0  0  0  0  0  0
   73.7386   83.3621   89.6726 C   0  0  0  0  0  0  0  0  0  0  0  0
   74.4136   82.0404   90.0117 C   0  0  0  0  0  0  0  0  0  0  0  0
   75.5629   80.3365   88.6200 C   0  0  0  0  0  0  0  0  0  0  0  0
   75.3542   78.9987   88.8792 C   0  0  0  0  0  0  0  0  0  0  0  0
   76.3803   78.0573   88.8137 C   0  0  0  0  0  0  0  0  0  0  0  0
   77.6592   78.4556   88.4795 C   0  0  0  0  0  0  0  0  0  0  0  0
   77.8941   79.7878   88.2158 C   0  0  0  0  0  0  0  0  0  0  0  0
   76.8666   80.6850   88.2887 C   0  0  0  0  0  0  0  0  0  0  0  0
   77.1257   81.9856   88.0282 F   0  0  0  0  0  0  0  0  0  0  0  0
 23 24  2  0  0  0
 24 25  1  0  0  0
 24 15  1  0  0  0
 15 16  2  0  0  0
 16 17  1  0  0  0
 17 14  1  0  0  0
 14 13  1  0  0  0
 13  7  1  0  0  0
  7  8  2  0  0  0
  8  9  2  0  0  0
  9 10  2  0  0  0
 10  1  1  0  0  0
  1  2  2  0  0  0
  2  3  1  0  0  0
  3  4  2  0  0  0
  4  5  1  0  0  0
  5 27  1  0  0  0
 27 28  1  0  0  0
 28 29  2  0  0  0
 28 31  1  0  0  0
 31 36  1  0  0  0
 36 37  2  0  0  0
 37 38  1  0  0  0
 38 39  2  0  0  0
 39 40  1  0  0  0
 40 41  2  0  0  0
 41 42  1  0  0  0
 31 32  1  0  0  0
 32 33  1  0  0  0
 33 34  1  0  0  0
 34 35  1  0  0  0
  5  6  2  0  0  0
 10 11  2  0  0  0
 11 12  2  0  0  0
 17 18  2  0  0  0
 18 19  1  0  0  0
 19 20  2  0  0  0
 20 21  1  0  0  0
 20 15  1  0  0  0
 12  7  1  0  0  0
  6  1  1  0  0  0
 35 31  1  0  0  0
 41 36  1  0  0  0
 25 26  1  0  0  0
 27 30  1  0  0  0
 21 22  1  0  0  0
M  END
> <Activity>
34.7

> <minimizedAffinity>
-9.55286

$$$$
HIPS7785


 42 46  0  0  0  0  0  0  0  0999 V2000
   68.5909   78.6854   94.3816 C   0  0  0  0  0  0  0  0  0  0  0  0
   69.7002   77.8720   94.4639 C   0  0  0  0  0  0  0  0  0  0  0  0
   70.0030   76.9289   93.5029 C   0  0  0  0  0  0  0  0  0  0  0  0
   69.1578   76.7943   92.4115 C   0  0  0  0  0  0  0  0  0  0  0  0
   68.0348   77.5914   92.2920 C   0  0  0  0  0  0  0  0  0  0  0  0
   67.7778   78.5186   93.2806 C   0  0  0  0  0  0  0  0  0  0  0  0
   67.6803   81.6217   97.2951 C   0  0  0  0  0  0  0  0  0  0  0  0
   67.5041   80.2776   97.5530 C   0  0  0  0  0  0  0  0  0  0  0  0
   67.7995   79.3557   96.6127 N   0  0  0  0  0  0  0  0  0  0  0  0
   68.2713   79.6832   95.3989 C   0  0  0  0  0  0  0  0  0  0  0  0
   68.4448   80.9905   95.1426 N   0  0  0  0  0  0  0  0  0  0  0  0
   68.1656   81.9507   96.0455 C   0  0  0  0  0  0  0  0  0  0  0  0
   67.3598   82.6543   98.3201 C   0  0  0  0  0  0  0  0  0  0  0  0
   67.5307   83.9351   97.7501 O   0  0  0  0  0  0  0  0  0  0  0  0
   64.1576   84.8401   96.6231 C   0  0  0  0  0  0  0  0  0  0  0  0
   65.1835   84.1911   97.2888 C   0  0  0  0  0  0  0  0  0  0  0  0
   66.4991   84.5599   97.1048 C   0  0  0  0  0  0  0  0  0  0  0  0
   66.7842   85.5955   96.2393 C   0  0  0  0  0  0  0  0  0  0  0  0
   65.7874   86.2665   95.5576 C   0  0  0  0  0  0  0  0  0  0  0  0
   64.4950   85.8574   95.7788 C   0  0  0  0  0  0  0  0  0  0  0  0
   63.4737   86.5147   95.1064 O   0  0  0  0  0  0  0  0  0  0  0  0
   63.6751   87.2173   94.5201 H   0  0  0  0  0  0  0  0  0  0  0  0
   61.9157   84.8060   96.0098 O   0  0  0  0  0  0  0  0  0  0  0  0
   62.7735   84.4357   96.8310 C   0  0  0  0  0  0  0  0  0  0  0  0
   62.4437   83.6551   97.9274 O   0  0  0  0  0  0  0  0  0  0  0  0
   63.1095   83.3898   98.5310 H   0  0  0  0  0  0  0  0  0  0  0  0
   67.1977   77.4180   91.1559 N   0  0  0  0  0  0  0  0  0  0  0  0
   66.2589   76.3592   91.1460 C   0  0  0  0  0  0  0  0  0  0  0  0
   66.2182   75.6191   92.1606 O   0  0  0  0  0  0  0  0  0  0  0  0
   67.2702   78.0270   90.3858 H   0  0  0  0  0  0  0  0  0  0  0  0
   65.3400   76.0911   90.0081 C   0  0  0  0  0  0  0  0  0  0  0  0
   64.7684   74.6942   90.1009 C   0  0  0  0  0  0  0  0  0  0  0  0
   63.4059   74.8293   90.6990 C   0  0  0  0  0  0  0  0  0  0  0  0
   63.2739   76.2782   91.1231 C   0  0  0  0  0  0  0  0  0  0  0  0
   64.1607   76.9972   90.1161 C   0  0  0  0  0  0  0  0  0  0  0  0
   66.0773   76.2457   88.7294 C   0  0  0  0  0  0  0  0  0  0  0  0
   65.5492   76.8711   87.6202 C   0  0  0  0  0  0  0  0  0  0  0  0
   66.2595   77.0004   86.4277 C   0  0  0  0  0  0  0  0  0  0  0  0
   67.5391   76.4914   86.3304 C   0  0  0  0  0  0  0  0  0  0  0  0
   68.0900   75.8612   87.4254 C   0  0  0  0  0  0  0  0  0  0  0  0
   67.3672   75.7512   88.5794 C   0  0  0  0  0  0  0  0  0  0  0  0
   67.9306   75.1257   89.6366 F   0  0  0  0  0  0  0  0  0  0  0  0
 23 24  2  0  0  0
 24 25  1  0  0  0
 24 15  1  0  0  0
 15 16  2  0  0  0
 16 17  1  0  0  0
 17 14  1  0  0  0
 14 13  1  0  0  0
 13  7  1  0  0  0
  7  8  2  0  0  0
  8  9  2  0  0  0
  9 10  2  0  0  0
 10  1  1  0  0  0
  1  2  2  0  0  0
  2  3  1  0  0  0
  3  4  2  0  0  0
  4  5  1  0  0  0
  5 27  1  0  0  0
 27 28  1  0  0  0
 28 29  2  0  0  0
 28 31  1  0  0  0
 31 36  1  0  0  0
 36 37  2  0  0  0
 37 38  1  0  0  0
 38 39  2  0  0  0
 39 40  1  0  0  0
 40 41  2  0  0  0
 41 42  1  0  0  0
 31 32  1  0  0  0
 32 33  1  0  0  0
 33 34  1  0  0  0
 34 35  1  0  0  0
  5  6  2  0  0  0
 10 11  2  0  0  0
 11 12  2  0  0  0
 17 18  2  0  0  0
 18 19  1  0  0  0
 19 20  2  0  0  0
 20 21  1  0  0  0
 20 15  1  0  0  0
 12  7  1  0  0  0
  6  1  1  0  0  0
 35 31  1  0  0  0
 41 36  1  0  0  0
 25 26  1  0  0  0
 27 30  1  0  0  0
 21 22  1  0  0  0
M  END
> <Activity>
34.7

> <minimizedAffinity>
-9.17204

$$$$
HIPS7785


 42 46  0  0  0  0  0  0  0  0999 V2000
   69.2122   75.9670   91.3289 C   0  0  0  0  0  0  0  0  0  0  0  0
   69.8953   75.0437   92.0906 C   0  0  0  0  0  0  0  0  0  0  0  0
   69.2622   74.0084   92.7477 C   0  0  0  0  0  0  0  0  0  0  0  0
   67.8844   73.8924   92.6375 C   0  0  0  0  0  0  0  0  0  0  0  0
   67.1629   74.7983   91.8829 C   0  0  0  0  0  0  0  0  0  0  0  0
   67.8443   75.8148   91.2461 C   0  0  0  0  0  0  0  0  0  0  0  0
   71.1208   79.1812   89.3377 C   0  0  0  0  0  0  0  0  0  0  0  0
   71.5457   77.8794   89.1676 C   0  0  0  0  0  0  0  0  0  0  0  0
   70.9256   76.8676   89.8102 N   0  0  0  0  0  0  0  0  0  0  0  0
   69.8830   77.0622   90.6338 C   0  0  0  0  0  0  0  0  0  0  0  0
   69.4652   78.3277   90.8028 N   0  0  0  0  0  0  0  0  0  0  0  0
   70.0486   79.3735   90.1856 C   0  0  0  0  0  0  0  0  0  0  0  0
   71.7923   80.3117   88.6372 C   0  0  0  0  0  0  0  0  0  0  0  0
   70.8121   81.2351   88.2117 O   0  0  0  0  0  0  0  0  0  0  0  0
   67.9162   79.2760   87.0968 C   0  0  0  0  0  0  0  0  0  0  0  0
   69.0225   79.6736   87.8281 C   0  0  0  0  0  0  0  0  0  0  0  0
   69.7163   80.8205   87.5056 C   0  0  0  0  0  0  0  0  0  0  0  0
   69.2899   81.5759   86.4332 C   0  0  0  0  0  0  0  0  0  0  0  0
   68.1905   81.2111   85.6803 C   0  0  0  0  0  0  0  0  0  0  0  0
   67.5372   80.0596   86.0461 C   0  0  0  0  0  0  0  0  0  0  0  0
   66.4290   79.6697   85.3064 O   0  0  0  0  0  0  0  0  0  0  0  0
   66.1452   80.1880   84.5792 H   0  0  0  0  0  0  0  0  0  0  0  0
   67.3181   77.0611   86.7233 O   0  0  0  0  0  0  0  0  0  0  0  0
   67.1961   78.0608   87.4534 C   0  0  0  0  0  0  0  0  0  0  0  0
   66.3984   78.0429   88.5864 O   0  0  0  0  0  0  0  0  0  0  0  0
   66.3241   78.8101   89.1192 H   0  0  0  0  0  0  0  0  0  0  0  0
   65.7524   74.6396   91.7985 N   0  0  0  0  0  0  0  0  0  0  0  0
   65.1030   74.8876   90.5659 C   0  0  0  0  0  0  0  0  0  0  0  0
   65.8233   75.2403   89.5986 O   0  0  0  0  0  0  0  0  0  0  0  0
   65.2342   74.3608   92.5877 H   0  0  0  0  0  0  0  0  0  0  0  0
   63.6347   74.7526   90.3731 C   0  0  0  0  0  0  0  0  0  0  0  0
   62.9531   76.0961   90.5044 C   0  0  0  0  0  0  0  0  0  0  0  0
   62.7250   76.5967   89.1152 C   0  0  0  0  0  0  0  0  0  0  0  0
   63.4452   75.6309   88.1959 C   0  0  0  0  0  0  0  0  0  0  0  0
   63.3696   74.3223   88.9703 C   0  0  0  0  0  0  0  0  0  0  0  0
   63.0871   73.8132   91.3832 C   0  0  0  0  0  0  0  0  0  0  0  0
   62.0705   74.1437   92.2536 C   0  0  0  0  0  0  0  0  0  0  0  0
   61.5752   73.2454   93.1977 C   0  0  0  0  0  0  0  0  0  0  0  0
   62.1065   71.9741   93.2826 C   0  0  0  0  0  0  0  0  0  0  0  0
   63.1241   71.6188   92.4236 C   0  0  0  0  0  0  0  0  0  0  0  0
   63.5867   72.5228   91.5098 C   0  0  0  0  0  0  0  0  0  0  0  0
   64.5873   72.1490   90.6819 F   0  0  0  0  0  0  0  0  0  0  0  0
 23 24  2  0  0  0
 24 25  1  0  0  0
 24 15  1  0  0  0
 15 16  2  0  0  0
 16 17  1  0  0  0
 17 14  1  0  0  0
 14 13  1  0  0  0
 13  7  1  0  0  0
  7  8  2  0  0  0
  8  9  2  0  0  0
  9 10  2  0  0  0
 10  1  1  0  0  0
  1  2  2  0  0  0
  2  3  1  0  0  0
  3  4  2  0  0  0
  4  5  1  0  0  0
  5 27  1  0  0  0
 27 28  1  0  0  0
 28 29  2  0  0  0
 28 31  1  0  0  0
 31 36  1  0  0  0
 36 37  2  0  0  0
 37 38  1  0  0  0
 38 39  2  0  0  0
 39 40  1  0  0  0
 40 41  2  0  0  0
 41 42  1  0  0  0
 31 32  1  0  0  0
 32 33  1  0  0  0
 33 34  1  0  0  0
 34 35  1  0  0  0
  5  6  2  0  0  0
 10 11  2  0  0  0
 11 12  2  0  0  0
 17 18  2  0  0  0
 18 19  1  0  0  0
 19 20  2  0  0  0
 20 21  1  0  0  0
 20 15  1  0  0  0
 12  7  1  0  0  0
  6  1  1  0  0  0
 35 31  1  0  0  0
 41 36  1  0  0  0
 25 26  1  0  0  0
 27 30  1  0  0  0
 21 22  1  0  0  0
M  END
> <Activity>
34.7

> <minimizedAffinity>
-8.99996

$$$$
HIPS7785


 42 46  0  0  0  0  0  0  0  0999 V2000
   69.2035   78.7222   89.0233 C   0  0  0  0  0  0  0  0  0  0  0  0
   68.4494   79.2481   87.9967 C   0  0  0  0  0  0  0  0  0  0  0  0
   68.8291   80.3762   87.2982 C   0  0  0  0  0  0  0  0  0  0  0  0
   70.0161   81.0054   87.6429 C   0  0  0  0  0  0  0  0  0  0  0  0
   70.8010   80.5092   88.6668 C   0  0  0  0  0  0  0  0  0  0  0  0
   70.3758   79.3786   89.3332 C   0  0  0  0  0  0  0  0  0  0  0  0
   68.0553   75.2264   91.1209 C   0  0  0  0  0  0  0  0  0  0  0  0
   67.8609   76.4818   91.6599 C   0  0  0  0  0  0  0  0  0  0  0  0
   68.2330   77.5849   90.9773 N   0  0  0  0  0  0  0  0  0  0  0  0
   68.8010   77.5283   89.7618 C   0  0  0  0  0  0  0  0  0  0  0  0
   68.9924   76.3086   89.2324 N   0  0  0  0  0  0  0  0  0  0  0  0
   68.6395   75.1763   89.8713 C   0  0  0  0  0  0  0  0  0  0  0  0
   67.6514   73.9969   91.8590 C   0  0  0  0  0  0  0  0  0  0  0  0
   66.6535   73.3248   91.1196 O   0  0  0  0  0  0  0  0  0  0  0  0
   63.0982   73.9856   91.7448 C   0  0  0  0  0  0  0  0  0  0  0  0
   64.3701   73.4524   91.8665 C   0  0  0  0  0  0  0  0  0  0  0  0
   65.3886   73.8363   91.0205 C   0  0  0  0  0  0  0  0  0  0  0  0
   65.1221   74.7690   90.0398 C   0  0  0  0  0  0  0  0  0  0  0  0
   63.8657   75.3231   89.8878 C   0  0  0  0  0  0  0  0  0  0  0  0
   62.8890   74.9044   90.7580 C   0  0  0  0  0  0  0  0  0  0  0  0
   61.6171   75.4452   90.6275 O   0  0  0  0  0  0  0  0  0  0  0  0
   61.4435   76.0783   89.9590 H   0  0  0  0  0  0  0  0  0  0  0  0
   60.8579   73.6284   92.2515 O   0  0  0  0  0  0  0  0  0  0  0  0
   62.0350   73.5673   92.6488 C   0  0  0  0  0  0  0  0  0  0  0  0
   62.3528   73.1145   93.9194 O   0  0  0  0  0  0  0  0  0  0  0  0
   63.2481   73.0785   94.1936 H   0  0  0  0  0  0  0  0  0  0  0  0
   72.0096   81.1873   88.9848 N   0  0  0  0  0  0  0  0  0  0  0  0
   73.2217   80.7457   88.4032 C   0  0  0  0  0  0  0  0  0  0  0  0
   73.1595   79.7615   87.6246 O   0  0  0  0  0  0  0  0  0  0  0  0
   72.0032   81.9544   89.6018 H   0  0  0  0  0  0  0  0  0  0  0  0
   74.5380   81.3837   88.6713 C   0  0  0  0  0  0  0  0  0  0  0  0
   74.8185   82.4740   87.6617 C   0  0  0  0  0  0  0  0  0  0  0  0
   74.4641   83.7674   88.3205 C   0  0  0  0  0  0  0  0  0  0  0  0
   73.8031   83.4034   89.6348 C   0  0  0  0  0  0  0  0  0  0  0  0
   74.4761   82.0838   89.9863 C   0  0  0  0  0  0  0  0  0  0  0  0
   75.6077   80.3569   88.6086 C   0  0  0  0  0  0  0  0  0  0  0  0
   75.3901   79.0188   88.8583 C   0  0  0  0  0  0  0  0  0  0  0  0
   76.4122   78.0727   88.7979 C   0  0  0  0  0  0  0  0  0  0  0  0
   77.6963   78.4667   88.4787 C   0  0  0  0  0  0  0  0  0  0  0  0
   77.9403   79.7991   88.2247 C   0  0  0  0  0  0  0  0  0  0  0  0
   76.9163   80.7009   88.2923 C   0  0  0  0  0  0  0  0  0  0  0  0
   77.1843   82.0016   88.0416 F   0  0  0  0  0  0  0  0  0  0  0  0
 23 24  2  0  0  0
 24 25  1  0  0  0
 24 15  1  0  0  0
 15 16  2  0  0  0
 16 17  1  0  0  0
 17 14  1  0  0  0
 14 13  1  0  0  0
 13  7  1  0  0  0
  7  8  2  0  0  0
  8  9  2  0  0  0
  9 10  2  0  0  0
 10  1  1  0  0  0
  1  2  2  0  0  0
  2  3  1  0  0  0
  3  4  2  0  0  0
  4  5  1  0  0  0
  5 27  1  0  0  0
 27 28  1  0  0  0
 28 29  2  0  0  0
 28 31  1  0  0  0
 31 36  1  0  0  0
 36 37  2  0  0  0
 37 38  1  0  0  0
 38 39  2  0  0  0
 39 40  1  0  0  0
 40 41  2  0  0  0
 41 42  1  0  0  0
 31 32  1  0  0  0
 32 33  1  0  0  0
 33 34  1  0  0  0
 34 35  1  0  0  0
  5  6  2  0  0  0
 10 11  2  0  0  0
 11 12  2  0  0  0
 17 18  2  0  0  0
 18 19  1  0  0  0
 19 20  2  0  0  0
 20 21  1  0  0  0
 20 15  1  0  0  0
 12  7  1  0  0  0
  6  1  1  0  0  0
 35 31  1  0  0  0
 41 36  1  0  0  0
 25 26  1  0  0  0
 27 30  1  0  0  0
 21 22  1  0  0  0
M  END
> <Activity>
34.7

> <minimizedAffinity>
-8.86479

$$$$
HIPS7785


 42 46  0  0  0  0  0  0  0  0999 V2000
   68.6647   78.6056   94.1819 C   0  0  0  0  0  0  0  0  0  0  0  0
   69.8306   77.8710   94.1753 C   0  0  0  0  0  0  0  0  0  0  0  0
   70.0718   76.8681   93.2585 C   0  0  0  0  0  0  0  0  0  0  0  0
   69.1028   76.5883   92.3064 C   0  0  0  0  0  0  0  0  0  0  0  0
   67.9196   77.3026   92.2794 C   0  0  0  0  0  0  0  0  0  0  0  0
   67.7285   78.2949   93.2185 C   0  0  0  0  0  0  0  0  0  0  0  0
   67.9408   81.7233   96.9558 C   0  0  0  0  0  0  0  0  0  0  0  0
   67.7887   80.3986   97.3110 C   0  0  0  0  0  0  0  0  0  0  0  0
   68.0237   79.4181   96.4140 N   0  0  0  0  0  0  0  0  0  0  0  0
   68.4105   79.6669   95.1524 C   0  0  0  0  0  0  0  0  0  0  0  0
   68.5602   80.9549   94.8013 N   0  0  0  0  0  0  0  0  0  0  0  0
   68.3386   81.9712   95.6575 C   0  0  0  0  0  0  0  0  0  0  0  0
   67.6861   82.8199   97.9318 C   0  0  0  0  0  0  0  0  0  0  0  0
   66.2989   82.8951   98.1856 O   0  0  0  0  0  0  0  0  0  0  0  0
   63.3429   84.4495   96.6645 C   0  0  0  0  0  0  0  0  0  0  0  0
   64.1308   83.5797   97.3990 C   0  0  0  0  0  0  0  0  0  0  0  0
   65.4983   83.7402   97.4672 C   0  0  0  0  0  0  0  0  0  0  0  0
   66.0790   84.7903   96.7869 C   0  0  0  0  0  0  0  0  0  0  0  0
   65.3256   85.6785   96.0438 C   0  0  0  0  0  0  0  0  0  0  0  0
   63.9682   85.4711   96.0108 C   0  0  0  0  0  0  0  0  0  0  0  0
   63.1872   86.3489   95.2715 O   0  0  0  0  0  0  0  0  0  0  0  0
   63.5888   87.0599   94.8119 H   0  0  0  0  0  0  0  0  0  0  0  0
   61.2046   85.1583   96.0916 O   0  0  0  0  0  0  0  0  0  0  0  0
   61.8993   84.2632   96.6049 C   0  0  0  0  0  0  0  0  0  0  0  0
   61.3349   83.1052   97.1155 O   0  0  0  0  0  0  0  0  0  0  0  0
   61.8813   82.4465   97.4969 H   0  0  0  0  0  0  0  0  0  0  0  0
   66.9555   76.9809   91.2851 N   0  0  0  0  0  0  0  0  0  0  0  0
   66.0856   75.8850   91.4969 C   0  0  0  0  0  0  0  0  0  0  0  0
   66.2174   75.2472   92.5715 O   0  0  0  0  0  0  0  0  0  0  0  0
   66.8939   77.5138   90.4597 H   0  0  0  0  0  0  0  0  0  0  0  0
   65.0457   75.4652   90.5204 C   0  0  0  0  0  0  0  0  0  0  0  0
   64.3004   76.6669   89.9843 C   0  0  0  0  0  0  0  0  0  0  0  0
   64.9045   76.9860   88.6556 C   0  0  0  0  0  0  0  0  0  0  0  0
   66.1175   76.0881   88.5177 C   0  0  0  0  0  0  0  0  0  0  0  0
   65.7148   74.8654   89.3305 C   0  0  0  0  0  0  0  0  0  0  0  0
   64.0922   74.5389   91.1802 C   0  0  0  0  0  0  0  0  0  0  0  0
   62.8400   74.9206   91.6122 C   0  0  0  0  0  0  0  0  0  0  0  0
   61.9628   74.0333   92.2341 C   0  0  0  0  0  0  0  0  0  0  0  0
   62.3399   72.7206   92.4353 C   0  0  0  0  0  0  0  0  0  0  0  0
   63.5871   72.3138   92.0126 C   0  0  0  0  0  0  0  0  0  0  0  0
   64.4229   73.2084   91.4065 C   0  0  0  0  0  0  0  0  0  0  0  0
   65.6412   72.7834   91.0048 F   0  0  0  0  0  0  0  0  0  0  0  0
 23 24  2  0  0  0
 24 25  1  0  0  0
 24 15  1  0  0  0
 15 16  2  0  0  0
 16 17  1  0  0  0
 17 14  1  0  0  0
 14 13  1  0  0  0
 13  7  1  0  0  0
  7  8  2  0  0  0
  8  9  2  0  0  0
  9 10  2  0  0  0
 10  1  1  0  0  0
  1  2  2  0  0  0
  2  3  1  0  0  0
  3  4  2  0  0  0
  4  5  1  0  0  0
  5 27  1  0  0  0
 27 28  1  0  0  0
 28 29  2  0  0  0
 28 31  1  0  0  0
 31 36  1  0  0  0
 36 37  2  0  0  0
 37 38  1  0  0  0
 38 39  2  0  0  0
 39 40  1  0  0  0
 40 41  2  0  0  0
 41 42  1  0  0  0
 31 32  1  0  0  0
 32 33  1  0  0  0
 33 34  1  0  0  0
 34 35  1  0  0  0
  5  6  2  0  0  0
 10 11  2  0  0  0
 11 12  2  0  0  0
 17 18  2  0  0  0
 18 19  1  0  0  0
 19 20  2  0  0  0
 20 21  1  0  0  0
 20 15  1  0  0  0
 12  7  1  0  0  0
  6  1  1  0  0  0
 35 31  1  0  0  0
 41 36  1  0  0  0
 25 26  1  0  0  0
 27 30  1  0  0  0
 21 22  1  0  0  0
M  END
> <Activity>
34.7

> <minimizedAffinity>
-8.85870

$$$$
HIPS7785


 42 46  0  0  0  0  0  0  0  0999 V2000
   69.2629   78.6138   88.8490 C   0  0  0  0  0  0  0  0  0  0  0  0
   68.5066   79.2169   87.8675 C   0  0  0  0  0  0  0  0  0  0  0  0
   68.8833   80.3970   87.2591 C   0  0  0  0  0  0  0  0  0  0  0  0
   70.0695   80.9997   87.6507 C   0  0  0  0  0  0  0  0  0  0  0  0
   70.8565   80.4265   88.6318 C   0  0  0  0  0  0  0  0  0  0  0  0
   70.4343   79.2463   89.2081 C   0  0  0  0  0  0  0  0  0  0  0  0
   68.1170   75.0153   90.7665 C   0  0  0  0  0  0  0  0  0  0  0  0
   68.0626   75.1445   89.3937 C   0  0  0  0  0  0  0  0  0  0  0  0
   68.4316   76.2986   88.7996 N   0  0  0  0  0  0  0  0  0  0  0  0
   68.8636   77.3650   89.4922 C   0  0  0  0  0  0  0  0  0  0  0  0
   68.9186   77.2446   90.8290 N   0  0  0  0  0  0  0  0  0  0  0  0
   68.5620   76.1154   91.4716 C   0  0  0  0  0  0  0  0  0  0  0  0
   67.7138   73.7495   91.4408 C   0  0  0  0  0  0  0  0  0  0  0  0
   66.3423   73.8216   91.7699 O   0  0  0  0  0  0  0  0  0  0  0  0
   64.8309   77.0136   90.7729 C   0  0  0  0  0  0  0  0  0  0  0  0
   65.6714   76.0998   91.3854 C   0  0  0  0  0  0  0  0  0  0  0  0
   65.5255   74.7448   91.1770 C   0  0  0  0  0  0  0  0  0  0  0  0
   64.5201   74.3055   90.3409 C   0  0  0  0  0  0  0  0  0  0  0  0
   63.6622   75.1871   89.7123 C   0  0  0  0  0  0  0  0  0  0  0  0
   63.8533   76.5254   89.9557 C   0  0  0  0  0  0  0  0  0  0  0  0
   63.0051   77.4334   89.3367 O   0  0  0  0  0  0  0  0  0  0  0  0
   62.3244   77.1275   88.7700 H   0  0  0  0  0  0  0  0  0  0  0  0
   65.6120   79.1142   90.1561 O   0  0  0  0  0  0  0  0  0  0  0  0
   65.0013   78.4416   91.0057 C   0  0  0  0  0  0  0  0  0  0  0  0
   64.4851   79.0159   92.1564 O   0  0  0  0  0  0  0  0  0  0  0  0
   64.0291   78.4862   92.7804 H   0  0  0  0  0  0  0  0  0  0  0  0
   72.0641   81.0800   89.0007 N   0  0  0  0  0  0  0  0  0  0  0  0
   73.2688   80.7215   88.3506 C   0  0  0  0  0  0  0  0  0  0  0  0
   73.2011   79.8295   87.4682 O   0  0  0  0  0  0  0  0  0  0  0  0
   72.0622   81.7734   89.6996 H   0  0  0  0  0  0  0  0  0  0  0  0
   74.5835   81.3422   88.6634 C   0  0  0  0  0  0  0  0  0  0  0  0
   74.8996   82.4472   87.6807 C   0  0  0  0  0  0  0  0  0  0  0  0
   74.5402   83.7322   88.3531 C   0  0  0  0  0  0  0  0  0  0  0  0
   73.8425   83.3516   89.6434 C   0  0  0  0  0  0  0  0  0  0  0  0
   74.4943   82.0198   89.9886 C   0  0  0  0  0  0  0  0  0  0  0  0
   75.6451   80.3065   88.6097 C   0  0  0  0  0  0  0  0  0  0  0  0
   75.4149   78.9707   88.8608 C   0  0  0  0  0  0  0  0  0  0  0  0
   76.4296   78.0162   88.8090 C   0  0  0  0  0  0  0  0  0  0  0  0
   77.7189   78.3989   88.4974 C   0  0  0  0  0  0  0  0  0  0  0  0
   77.9755   79.7288   88.2423 C   0  0  0  0  0  0  0  0  0  0  0  0
   76.9586   80.6391   88.3013 C   0  0  0  0  0  0  0  0  0  0  0  0
   77.2389   81.9370   88.0498 F   0  0  0  0  0  0  0  0  0  0  0  0
 23 24  2  0  0  0
 24 25  1  0  0  0
 24 15  1  0  0  0
 15 16  2  0  0  0
 16 17  1  0  0  0
 17 14  1  0  0  0
 14 13  1  0  0  0
 13  7  1  0  0  0
  7  8  2  0  0  0
  8  9  2  0  0  0
  9 10  2  0  0  0
 10  1  1  0  0  0
  1  2  2  0  0  0
  2  3  1  0  0  0
  3  4  2  0  0  0
  4  5  1  0  0  0
  5 27  1  0  0  0
 27 28  1  0  0  0
 28 29  2  0  0  0
 28 31  1  0  0  0
 31 36  1  0  0  0
 36 37  2  0  0  0
 37 38  1  0  0  0
 38 39  2  0  0  0
 39 40  1  0  0  0
 40 41  2  0  0  0
 41 42  1  0  0  0
 31 32  1  0  0  0
 32 33  1  0  0  0
 33 34  1  0  0  0
 34 35  1  0  0  0
  5  6  2  0  0  0
 10 11  2  0  0  0
 11 12  2  0  0  0
 17 18  2  0  0  0
 18 19  1  0  0  0
 19 20  2  0  0  0
 20 21  1  0  0  0
 20 15  1  0  0  0
 12  7  1  0  0  0
  6  1  1  0  0  0
 35 31  1  0  0  0
 41 36  1  0  0  0
 25 26  1  0  0  0
 27 30  1  0  0  0
 21 22  1  0  0  0
M  END
> <Activity>
34.7

> <minimizedAffinity>
-8.78612

$$$$
HIPS6458


 42 45  0  0  0  0  0  0  0  0999 V2000
   68.3999   77.8696   92.9295 C   0  0  0  0  0  0  0  0  0  0  0  0
   69.6561   77.3531   92.5564 C   0  0  0  0  0  0  0  0  0  0  0  0
   69.7518   76.2455   91.6997 C   0  0  0  0  0  0  0  0  0  0  0  0
   68.5822   75.6506   91.2065 C   0  0  0  0  0  0  0  0  0  0  0  0
   67.3123   76.1665   91.5411 C   0  0  0  0  0  0  0  0  0  0  0  0
   67.2366   77.2702   92.4126 C   0  0  0  0  0  0  0  0  0  0  0  0
   68.1541   81.2880   95.4987 C   0  0  0  0  0  0  0  0  0  0  0  0
   68.3905   81.4225   94.1628 N   0  0  0  0  0  0  0  0  0  0  0  0
   68.4691   80.3536   93.3318 C   0  0  0  0  0  0  0  0  0  0  0  0
   68.3089   79.0472   93.8323 C   0  0  0  0  0  0  0  0  0  0  0  0
   68.0648   78.8903   95.2074 C   0  0  0  0  0  0  0  0  0  0  0  0
   67.9859   80.0078   96.0434 C   0  0  0  0  0  0  0  0  0  0  0  0
   67.6753   79.7957   97.7618 Cl  0  0  0  0  0  0  0  0  0  0  0  0
   68.0931   82.4128   96.3317 O   0  0  0  0  0  0  0  0  0  0  0  0
   65.9905   83.2695   95.5354 C   0  0  0  0  0  0  0  0  0  0  0  0
   66.8778   83.0354   96.7573 C   0  0  0  0  0  0  0  0  0  0  0  0
   67.1816   84.3589   97.4724 C   0  0  0  0  0  0  0  0  0  0  0  0
   66.0734   75.5939   90.9432 C   0  0  0  0  0  0  0  0  0  0  0  0
   65.4711   76.1822   89.8132 C   0  0  0  0  0  0  0  0  0  0  0  0
   64.3104   75.6876   89.3203 N   0  0  0  0  0  0  0  0  0  0  0  0
   63.6779   74.6176   89.8765 C   0  0  0  0  0  0  0  0  0  0  0  0
   64.2406   73.9915   90.9965 C   0  0  0  0  0  0  0  0  0  0  0  0
   63.4540   72.6089   91.7445 Cl  0  0  0  0  0  0  0  0  0  0  0  0
   65.4394   74.4776   91.5229 C   0  0  0  0  0  0  0  0  0  0  0  0
   62.4656   74.1520   89.3584 O   0  0  0  0  0  0  0  0  0  0  0  0
   61.9916   74.4436   88.0423 C   0  0  0  0  0  0  0  0  0  0  0  0
   60.7988   75.3962   88.1484 C   0  0  0  0  0  0  0  0  0  0  0  0
   61.5797   73.1439   87.3430 C   0  0  0  0  0  0  0  0  0  0  0  0
   71.0887   75.8394   91.1383 C   0  0  0  0  0  0  0  0  0  0  0  0
   71.1113   76.2534   89.7724 O   0  0  0  0  0  0  0  0  0  0  0  0
   70.7940   77.5338   89.2962 C   0  0  0  0  0  0  0  0  0  0  0  0
   71.6747   78.6285   89.3549 C   0  0  0  0  0  0  0  0  0  0  0  0
   71.2727   79.8768   88.8698 C   0  0  0  0  0  0  0  0  0  0  0  0
   69.9910   80.0537   88.3146 C   0  0  0  0  0  0  0  0  0  0  0  0
   69.6129   81.3145   87.8563 O   0  0  0  0  0  0  0  0  0  0  0  0
   69.0956   78.9576   88.2507 C   0  0  0  0  0  0  0  0  0  0  0  0
   69.5219   77.7089   88.7323 C   0  0  0  0  0  0  0  0  0  0  0  0
   70.2153   82.0306   87.9046 H   0  0  0  0  0  0  0  0  0  0  0  0
   67.7101   79.0776   87.7183 C   0  0  0  0  0  0  0  0  0  0  0  0
   67.1070   80.1848   87.7207 O   0  0  0  0  0  0  0  0  0  0  0  0
   67.0575   77.9563   87.2086 O   0  0  0  0  0  0  0  0  0  0  0  0
   67.4911   77.1257   87.1993 H   0  0  0  0  0  0  0  0  0  0  0  0
 15 16  1  0  0  0
 16 17  1  0  0  0
 16 14  1  0  0  0
 14  7  1  0  0  0
  7  8  2  0  0  0
  8  9  2  0  0  0
  9 10  2  0  0  0
 10  1  1  0  0  0
  1  2  2  0  0  0
  2  3  1  0  0  0
  3 29  1  0  0  0
 29 30  1  0  0  0
 30 31  1  0  0  0
 31 32  2  0  0  0
 32 33  1  0  0  0
 33 34  2  0  0  0
 34 35  1  0  0  0
 34 36  1  0  0  0
 36 39  1  0  0  0
 39 40  2  0  0  0
 39 41  1  0  0  0
 36 37  2  0  0  0
  3  4  2  0  0  0
  4  5  1  0  0  0
  5 18  1  0  0  0
 18 19  2  0  0  0
 19 20  2  0  0  0
 20 21  2  0  0  0
 21 25  1  0  0  0
 25 26  1  0  0  0
 26 27  1  0  0  0
 26 28  1  0  0  0
 21 22  1  0  0  0
 22 23  1  0  0  0
 22 24  2  0  0  0
  5  6  2  0  0  0
 10 11  1  0  0  0
 11 12  2  0  0  0
 12 13  1  0  0  0
 12  7  1  0  0  0
  6  1  1  0  0  0
 37 31  1  0  0  0
 24 18  1  0  0  0
 35 38  1  0  0  0
 41 42  1  0  0  0
M  END
> <Activity>
4.1

> <minimizedAffinity>
-10.59780

$$$$
HIPS6458


 42 45  0  0  0  0  0  0  0  0999 V2000
   68.4321   77.8952   92.9000 C   0  0  0  0  0  0  0  0  0  0  0  0
   69.6917   77.3958   92.5153 C   0  0  0  0  0  0  0  0  0  0  0  0
   69.7946   76.2940   91.6520 C   0  0  0  0  0  0  0  0  0  0  0  0
   68.6287   75.6876   91.1641 C   0  0  0  0  0  0  0  0  0  0  0  0
   67.3551   76.1864   91.5104 C   0  0  0  0  0  0  0  0  0  0  0  0
   67.2725   77.2846   92.3882 C   0  0  0  0  0  0  0  0  0  0  0  0
   68.1645   81.2969   95.4892 C   0  0  0  0  0  0  0  0  0  0  0  0
   68.4100   81.4401   94.1559 N   0  0  0  0  0  0  0  0  0  0  0  0
   68.4956   80.3767   93.3187 C   0  0  0  0  0  0  0  0  0  0  0  0
   68.3335   79.0669   93.8096 C   0  0  0  0  0  0  0  0  0  0  0  0
   68.0800   78.9009   95.1820 C   0  0  0  0  0  0  0  0  0  0  0  0
   67.9940   80.0130   96.0246 C   0  0  0  0  0  0  0  0  0  0  0  0
   67.6718   79.7895   97.7394 Cl  0  0  0  0  0  0  0  0  0  0  0  0
   68.0964   82.4162   96.3290 O   0  0  0  0  0  0  0  0  0  0  0  0
   66.0056   83.2782   95.5077 C   0  0  0  0  0  0  0  0  0  0  0  0
   66.8778   83.0423   96.7401 C   0  0  0  0  0  0  0  0  0  0  0  0
   67.1768   84.3653   97.4581 C   0  0  0  0  0  0  0  0  0  0  0  0
   66.1190   75.6021   90.9183 C   0  0  0  0  0  0  0  0  0  0  0  0
   65.5079   76.1825   89.7888 C   0  0  0  0  0  0  0  0  0  0  0  0
   64.3496   75.6771   89.3012 N   0  0  0  0  0  0  0  0  0  0  0  0
   63.7279   74.6034   89.8624 C   0  0  0  0  0  0  0  0  0  0  0  0
   64.2997   73.9848   90.9820 C   0  0  0  0  0  0  0  0  0  0  0  0
   63.5270   72.5978   91.7363 Cl  0  0  0  0  0  0  0  0  0  0  0  0
   65.4962   74.4821   91.5030 C   0  0  0  0  0  0  0  0  0  0  0  0
   62.5177   74.1264   89.3497 O   0  0  0  0  0  0  0  0  0  0  0  0
   62.0234   74.4336   88.0447 C   0  0  0  0  0  0  0  0  0  0  0  0
   60.8069   75.3517   88.1824 C   0  0  0  0  0  0  0  0  0  0  0  0
   61.6392   73.1388   87.3209 C   0  0  0  0  0  0  0  0  0  0  0  0
   71.1322   75.9070   91.0790 C   0  0  0  0  0  0  0  0  0  0  0  0
   71.1411   76.3309   89.7161 O   0  0  0  0  0  0  0  0  0  0  0  0
   70.6886   77.5690   89.2374 C   0  0  0  0  0  0  0  0  0  0  0  0
   69.3939   77.7843   88.7325 C   0  0  0  0  0  0  0  0  0  0  0  0
   69.0281   79.0489   88.2608 C   0  0  0  0  0  0  0  0  0  0  0  0
   69.9426   80.1191   88.2890 C   0  0  0  0  0  0  0  0  0  0  0  0
   69.5543   81.3630   87.7947 O   0  0  0  0  0  0  0  0  0  0  0  0
   71.2496   79.9131   88.7955 C   0  0  0  0  0  0  0  0  0  0  0  0
   71.5945   78.6389   89.2756 C   0  0  0  0  0  0  0  0  0  0  0  0
   68.6866   81.4851   87.4628 H   0  0  0  0  0  0  0  0  0  0  0  0
   72.2846   80.9836   88.8170 C   0  0  0  0  0  0  0  0  0  0  0  0
   73.4547   80.7642   88.4020 O   0  0  0  0  0  0  0  0  0  0  0  0
   71.9690   82.2514   89.3029 O   0  0  0  0  0  0  0  0  0  0  0  0
   71.1041   82.4316   89.6152 H   0  0  0  0  0  0  0  0  0  0  0  0
 15 16  1  0  0  0
 16 17  1  0  0  0
 16 14  1  0  0  0
 14  7  1  0  0  0
  7  8  2  0  0  0
  8  9  2  0  0  0
  9 10  2  0  0  0
 10  1  1  0  0  0
  1  2  2  0  0  0
  2  3  1  0  0  0
  3 29  1  0  0  0
 29 30  1  0  0  0
 30 31  1  0  0  0
 31 32  2  0  0  0
 32 33  1  0  0  0
 33 34  2  0  0  0
 34 35  1  0  0  0
 34 36  1  0  0  0
 36 39  1  0  0  0
 39 40  2  0  0  0
 39 41  1  0  0  0
 36 37  2  0  0  0
  3  4  2  0  0  0
  4  5  1  0  0  0
  5 18  1  0  0  0
 18 19  2  0  0  0
 19 20  2  0  0  0
 20 21  2  0  0  0
 21 25  1  0  0  0
 25 26  1  0  0  0
 26 27  1  0  0  0
 26 28  1  0  0  0
 21 22  1  0  0  0
 22 23  1  0  0  0
 22 24  2  0  0  0
  5  6  2  0  0  0
 10 11  1  0  0  0
 11 12  2  0  0  0
 12 13  1  0  0  0
 12  7  1  0  0  0
  6  1  1  0  0  0
 37 31  1  0  0  0
 24 18  1  0  0  0
 35 38  1  0  0  0
 41 42  1  0  0  0
M  END
> <Activity>
4.1

> <minimizedAffinity>
-10.44018

$$$$
HIPS6458


 42 45  0  0  0  0  0  0  0  0999 V2000
   68.3913   77.8479   92.9632 C   0  0  0  0  0  0  0  0  0  0  0  0
   69.6570   77.3243   92.6351 C   0  0  0  0  0  0  0  0  0  0  0  0
   69.7758   76.1995   91.8041 C   0  0  0  0  0  0  0  0  0  0  0  0
   68.6199   75.5943   91.2915 C   0  0  0  0  0  0  0  0  0  0  0  0
   67.3414   76.1166   91.5807 C   0  0  0  0  0  0  0  0  0  0  0  0
   67.2424   77.2378   92.4271 C   0  0  0  0  0  0  0  0  0  0  0  0
   68.0743   81.3184   95.4536 C   0  0  0  0  0  0  0  0  0  0  0  0
   68.2836   81.4278   94.1110 N   0  0  0  0  0  0  0  0  0  0  0  0
   68.3840   80.3420   93.3046 C   0  0  0  0  0  0  0  0  0  0  0  0
   68.2760   79.0437   93.8389 C   0  0  0  0  0  0  0  0  0  0  0  0
   68.0604   78.9126   95.2215 C   0  0  0  0  0  0  0  0  0  0  0  0
   67.9581   80.0471   96.0318 C   0  0  0  0  0  0  0  0  0  0  0  0
   67.6837   79.8671   97.7600 Cl  0  0  0  0  0  0  0  0  0  0  0  0
   67.9896   82.4606   96.2604 O   0  0  0  0  0  0  0  0  0  0  0  0
   65.9024   83.3873   95.5029 C   0  0  0  0  0  0  0  0  0  0  0  0
   66.7620   83.0360   96.7165 C   0  0  0  0  0  0  0  0  0  0  0  0
   67.0435   84.2834   97.5651 C   0  0  0  0  0  0  0  0  0  0  0  0
   66.1192   75.5316   90.9611 C   0  0  0  0  0  0  0  0  0  0  0  0
   65.6800   75.9439   89.6870 C   0  0  0  0  0  0  0  0  0  0  0  0
   64.5322   75.4492   89.1650 N   0  0  0  0  0  0  0  0  0  0  0  0
   63.7588   74.5452   89.8275 C   0  0  0  0  0  0  0  0  0  0  0  0
   64.1563   74.0968   91.0939 C   0  0  0  0  0  0  0  0  0  0  0  0
   63.1844   72.9319   91.9820 Cl  0  0  0  0  0  0  0  0  0  0  0  0
   65.3379   74.5866   91.6544 C   0  0  0  0  0  0  0  0  0  0  0  0
   62.5647   74.0778   89.2701 O   0  0  0  0  0  0  0  0  0  0  0  0
   61.4431   74.9090   88.9652 C   0  0  0  0  0  0  0  0  0  0  0  0
   60.6177   74.2381   87.8651 C   0  0  0  0  0  0  0  0  0  0  0  0
   61.9321   76.2863   88.5047 C   0  0  0  0  0  0  0  0  0  0  0  0
   71.1274   75.7824   91.2878 C   0  0  0  0  0  0  0  0  0  0  0  0
   71.1772   76.1445   89.9080 O   0  0  0  0  0  0  0  0  0  0  0  0
   70.3500   77.0829   89.2740 C   0  0  0  0  0  0  0  0  0  0  0  0
   69.1972   76.7403   88.5451 C   0  0  0  0  0  0  0  0  0  0  0  0
   68.4353   77.7390   87.9307 C   0  0  0  0  0  0  0  0  0  0  0  0
   68.8056   79.0933   88.0364 C   0  0  0  0  0  0  0  0  0  0  0  0
   68.0360   80.0640   87.3975 O   0  0  0  0  0  0  0  0  0  0  0  0
   69.9652   79.4495   88.7683 C   0  0  0  0  0  0  0  0  0  0  0  0
   70.7109   78.4333   89.3881 C   0  0  0  0  0  0  0  0  0  0  0  0
   67.2715   79.8142   86.9168 H   0  0  0  0  0  0  0  0  0  0  0  0
   70.4440   80.8546   88.8876 C   0  0  0  0  0  0  0  0  0  0  0  0
   70.8902   81.4759   87.8854 O   0  0  0  0  0  0  0  0  0  0  0  0
   70.4059   81.5038   90.1205 O   0  0  0  0  0  0  0  0  0  0  0  0
   70.0772   81.0567   90.8755 H   0  0  0  0  0  0  0  0  0  0  0  0
 15 16  1  0  0  0
 16 17  1  0  0  0
 16 14  1  0  0  0
 14  7  1  0  0  0
  7  8  2  0  0  0
  8  9  2  0  0  0
  9 10  2  0  0  0
 10  1  1  0  0  0
  1  2  2  0  0  0
  2  3  1  0  0  0
  3 29  1  0  0  0
 29 30  1  0  0  0
 30 31  1  0  0  0
 31 32  2  0  0  0
 32 33  1  0  0  0
 33 34  2  0  0  0
 34 35  1  0  0  0
 34 36  1  0  0  0
 36 39  1  0  0  0
 39 40  2  0  0  0
 39 41  1  0  0  0
 36 37  2  0  0  0
  3  4  2  0  0  0
  4  5  1  0  0  0
  5 18  1  0  0  0
 18 19  2  0  0  0
 19 20  2  0  0  0
 20 21  2  0  0  0
 21 25  1  0  0  0
 25 26  1  0  0  0
 26 27  1  0  0  0
 26 28  1  0  0  0
 21 22  1  0  0  0
 22 23  1  0  0  0
 22 24  2  0  0  0
  5  6  2  0  0  0
 10 11  1  0  0  0
 11 12  2  0  0  0
 12 13  1  0  0  0
 12  7  1  0  0  0
  6  1  1  0  0  0
 37 31  1  0  0  0
 24 18  1  0  0  0
 35 38  1  0  0  0
 41 42  1  0  0  0
M  END
> <Activity>
4.1

> <minimizedAffinity>
-9.86372

$$$$
HIPS6458


 42 45  0  0  0  0  0  0  0  0999 V2000
   67.1275   76.5250   91.2286 C   0  0  0  0  0  0  0  0  0  0  0  0
   68.3937   76.0754   90.8059 C   0  0  0  0  0  0  0  0  0  0  0  0
   69.5668   76.6823   91.2806 C   0  0  0  0  0  0  0  0  0  0  0  0
   69.4754   77.7452   92.1899 C   0  0  0  0  0  0  0  0  0  0  0  0
   68.2205   78.1955   92.6519 C   0  0  0  0  0  0  0  0  0  0  0  0
   67.0545   77.5825   92.1537 C   0  0  0  0  0  0  0  0  0  0  0  0
   63.5565   74.6769   89.7522 C   0  0  0  0  0  0  0  0  0  0  0  0
   64.0838   75.7798   89.1489 N   0  0  0  0  0  0  0  0  0  0  0  0
   65.2147   76.3782   89.5986 C   0  0  0  0  0  0  0  0  0  0  0  0
   65.8907   75.8715   90.7251 C   0  0  0  0  0  0  0  0  0  0  0  0
   65.3607   74.7350   91.3596 C   0  0  0  0  0  0  0  0  0  0  0  0
   64.1947   74.1345   90.8759 C   0  0  0  0  0  0  0  0  0  0  0  0
   63.5457   72.7098   91.6780 Cl  0  0  0  0  0  0  0  0  0  0  0  0
   62.3784   74.0916   89.2704 O   0  0  0  0  0  0  0  0  0  0  0  0
   60.5061   75.0045   88.0661 C   0  0  0  0  0  0  0  0  0  0  0  0
   61.8560   74.2971   87.9547 C   0  0  0  0  0  0  0  0  0  0  0  0
   61.7098   72.9544   87.2260 C   0  0  0  0  0  0  0  0  0  0  0  0
   68.1257   79.2615   93.6886 C   0  0  0  0  0  0  0  0  0  0  0  0
   68.2695   80.6218   93.3497 C   0  0  0  0  0  0  0  0  0  0  0  0
   68.2444   81.5739   94.3127 N   0  0  0  0  0  0  0  0  0  0  0  0
   68.0804   81.2750   95.6311 C   0  0  0  0  0  0  0  0  0  0  0  0
   67.9243   79.9378   96.0192 C   0  0  0  0  0  0  0  0  0  0  0  0
   67.7120   79.5108   97.7111 Cl  0  0  0  0  0  0  0  0  0  0  0  0
   67.9415   78.9357   95.0466 C   0  0  0  0  0  0  0  0  0  0  0  0
   68.0885   82.2817   96.6013 O   0  0  0  0  0  0  0  0  0  0  0  0
   66.9237   82.9872   97.0341 C   0  0  0  0  0  0  0  0  0  0  0  0
   65.9925   83.1823   95.8356 C   0  0  0  0  0  0  0  0  0  0  0  0
   67.3308   84.3419   97.6234 C   0  0  0  0  0  0  0  0  0  0  0  0
   70.9074   76.0593   90.9942 C   0  0  0  0  0  0  0  0  0  0  0  0
   71.3890   76.6427   89.7838 O   0  0  0  0  0  0  0  0  0  0  0  0
   70.9950   77.8801   89.2542 C   0  0  0  0  0  0  0  0  0  0  0  0
   71.8072   79.0281   89.2660 C   0  0  0  0  0  0  0  0  0  0  0  0
   71.3307   80.2280   88.7288 C   0  0  0  0  0  0  0  0  0  0  0  0
   70.0416   80.3027   88.1675 C   0  0  0  0  0  0  0  0  0  0  0  0
   69.5881   81.5176   87.6566 O   0  0  0  0  0  0  0  0  0  0  0  0
   69.2150   79.1522   88.1506 C   0  0  0  0  0  0  0  0  0  0  0  0
   69.7157   77.9533   88.6842 C   0  0  0  0  0  0  0  0  0  0  0  0
   70.1456   82.2705   87.6743 H   0  0  0  0  0  0  0  0  0  0  0  0
   67.8257   79.1648   87.6146 C   0  0  0  0  0  0  0  0  0  0  0  0
   67.1730   80.2399   87.5271 O   0  0  0  0  0  0  0  0  0  0  0  0
   67.2249   77.9767   87.2017 O   0  0  0  0  0  0  0  0  0  0  0  0
   67.6957   77.1687   87.2598 H   0  0  0  0  0  0  0  0  0  0  0  0
 15 16  1  0  0  0
 16 17  1  0  0  0
 16 14  1  0  0  0
 14  7  1  0  0  0
  7  8  2  0  0  0
  8  9  2  0  0  0
  9 10  2  0  0  0
 10  1  1  0  0  0
  1  2  2  0  0  0
  2  3  1  0  0  0
  3 29  1  0  0  0
 29 30  1  0  0  0
 30 31  1  0  0  0
 31 32  2  0  0  0
 32 33  1  0  0  0
 33 34  2  0  0  0
 34 35  1  0  0  0
 34 36  1  0  0  0
 36 39  1  0  0  0
 39 40  2  0  0  0
 39 41  1  0  0  0
 36 37  2  0  0  0
  3  4  2  0  0  0
  4  5  1  0  0  0
  5 18  1  0  0  0
 18 19  2  0  0  0
 19 20  2  0  0  0
 20 21  2  0  0  0
 21 25  1  0  0  0
 25 26  1  0  0  0
 26 27  1  0  0  0
 26 28  1  0  0  0
 21 22  1  0  0  0
 22 23  1  0  0  0
 22 24  2  0  0  0
  5  6  2  0  0  0
 10 11  1  0  0  0
 11 12  2  0  0  0
 12 13  1  0  0  0
 12  7  1  0  0  0
  6  1  1  0  0  0
 37 31  1  0  0  0
 24 18  1  0  0  0
 35 38  1  0  0  0
 41 42  1  0  0  0
M  END
> <Activity>
4.1

> <minimizedAffinity>
-9.74158

$$$$
HIPS6458


 42 45  0  0  0  0  0  0  0  0999 V2000
   66.4214   76.4622   91.0843 C   0  0  0  0  0  0  0  0  0  0  0  0
   67.5754   75.8395   90.5699 C   0  0  0  0  0  0  0  0  0  0  0  0
   68.8553   76.2872   90.9320 C   0  0  0  0  0  0  0  0  0  0  0  0
   68.9848   77.3640   91.8202 C   0  0  0  0  0  0  0  0  0  0  0  0
   67.8455   77.9863   92.3728 C   0  0  0  0  0  0  0  0  0  0  0  0
   66.5698   77.5313   91.9869 C   0  0  0  0  0  0  0  0  0  0  0  0
   62.5248   75.0950   89.9467 C   0  0  0  0  0  0  0  0  0  0  0  0
   63.2063   76.0002   89.1886 N   0  0  0  0  0  0  0  0  0  0  0  0
   64.4418   76.4436   89.5294 C   0  0  0  0  0  0  0  0  0  0  0  0
   65.0700   75.9766   90.6999 C   0  0  0  0  0  0  0  0  0  0  0  0
   64.3814   75.0431   91.4935 C   0  0  0  0  0  0  0  0  0  0  0  0
   63.1095   74.5994   91.1200 C   0  0  0  0  0  0  0  0  0  0  0  0
   62.2619   73.4274   92.1211 Cl  0  0  0  0  0  0  0  0  0  0  0  0
   61.2437   74.6684   89.5732 O   0  0  0  0  0  0  0  0  0  0  0  0
   62.2235   73.5581   87.6768 C   0  0  0  0  0  0  0  0  0  0  0  0
   60.9305   74.0635   88.3155 C   0  0  0  0  0  0  0  0  0  0  0  0
   60.2291   75.0757   87.3996 C   0  0  0  0  0  0  0  0  0  0  0  0
   67.9829   79.0681   93.3882 C   0  0  0  0  0  0  0  0  0  0  0  0
   68.2456   80.3983   93.0040 C   0  0  0  0  0  0  0  0  0  0  0  0
   68.4310   81.3581   93.9416 N   0  0  0  0  0  0  0  0  0  0  0  0
   68.3728   81.0958   95.2766 C   0  0  0  0  0  0  0  0  0  0  0  0
   68.1058   79.7906   95.7103 C   0  0  0  0  0  0  0  0  0  0  0  0
   68.0244   79.4110   97.4247 Cl  0  0  0  0  0  0  0  0  0  0  0  0
   67.9059   78.7820   94.7652 C   0  0  0  0  0  0  0  0  0  0  0  0
   68.5981   82.1060   96.2166 O   0  0  0  0  0  0  0  0  0  0  0  0
   67.5619   82.8724   96.8335 C   0  0  0  0  0  0  0  0  0  0  0  0
   66.7593   81.9582   97.7617 C   0  0  0  0  0  0  0  0  0  0  0  0
   66.6536   83.4733   95.7555 C   0  0  0  0  0  0  0  0  0  0  0  0
   70.0710   75.4843   90.5513 C   0  0  0  0  0  0  0  0  0  0  0  0
   70.6357   76.1038   89.3960 O   0  0  0  0  0  0  0  0  0  0  0  0
   70.7115   77.4838   89.1575 C   0  0  0  0  0  0  0  0  0  0  0  0
   69.6121   78.2701   88.7695 C   0  0  0  0  0  0  0  0  0  0  0  0
   69.7781   79.6390   88.5375 C   0  0  0  0  0  0  0  0  0  0  0  0
   71.0385   80.2470   88.6928 C   0  0  0  0  0  0  0  0  0  0  0  0
   71.1759   81.6101   88.4363 O   0  0  0  0  0  0  0  0  0  0  0  0
   72.1529   79.4641   89.0832 C   0  0  0  0  0  0  0  0  0  0  0  0
   71.9638   78.0931   89.3231 C   0  0  0  0  0  0  0  0  0  0  0  0
   70.4303   82.1158   88.1788 H   0  0  0  0  0  0  0  0  0  0  0  0
   73.5242   80.0269   89.2253 C   0  0  0  0  0  0  0  0  0  0  0  0
   74.5397   79.3515   88.9054 O   0  0  0  0  0  0  0  0  0  0  0  0
   73.7024   81.3178   89.7201 O   0  0  0  0  0  0  0  0  0  0  0  0
   72.9585   81.8334   89.9625 H   0  0  0  0  0  0  0  0  0  0  0  0
 15 16  1  0  0  0
 16 17  1  0  0  0
 16 14  1  0  0  0
 14  7  1  0  0  0
  7  8  2  0  0  0
  8  9  2  0  0  0
  9 10  2  0  0  0
 10  1  1  0  0  0
  1  2  2  0  0  0
  2  3  1  0  0  0
  3 29  1  0  0  0
 29 30  1  0  0  0
 30 31  1  0  0  0
 31 32  2  0  0  0
 32 33  1  0  0  0
 33 34  2  0  0  0
 34 35  1  0  0  0
 34 36  1  0  0  0
 36 39  1  0  0  0
 39 40  2  0  0  0
 39 41  1  0  0  0
 36 37  2  0  0  0
  3  4  2  0  0  0
  4  5  1  0  0  0
  5 18  1  0  0  0
 18 19  2  0  0  0
 19 20  2  0  0  0
 20 21  2  0  0  0
 21 25  1  0  0  0
 25 26  1  0  0  0
 26 27  1  0  0  0
 26 28  1  0  0  0
 21 22  1  0  0  0
 22 23  1  0  0  0
 22 24  2  0  0  0
  5  6  2  0  0  0
 10 11  1  0  0  0
 11 12  2  0  0  0
 12 13  1  0  0  0
 12  7  1  0  0  0
  6  1  1  0  0  0
 37 31  1  0  0  0
 24 18  1  0  0  0
 35 38  1  0  0  0
 41 42  1  0  0  0
M  END
> <Activity>
4.1

> <minimizedAffinity>
-8.73272

$$$$
HIPS6458


 42 45  0  0  0  0  0  0  0  0999 V2000
   66.2377   77.3387   90.3407 C   0  0  0  0  0  0  0  0  0  0  0  0
   67.2528   77.2008   89.3739 C   0  0  0  0  0  0  0  0  0  0  0  0
   68.4920   77.8393   89.5372 C   0  0  0  0  0  0  0  0  0  0  0  0
   68.7219   78.6193   90.6791 C   0  0  0  0  0  0  0  0  0  0  0  0
   67.7326   78.7499   91.6766 C   0  0  0  0  0  0  0  0  0  0  0  0
   66.4911   78.1124   91.4882 C   0  0  0  0  0  0  0  0  0  0  0  0
   62.4638   75.3889   89.7908 C   0  0  0  0  0  0  0  0  0  0  0  0
   62.9832   76.2078   88.8327 N   0  0  0  0  0  0  0  0  0  0  0  0
   64.1774   76.8321   88.9858 C   0  0  0  0  0  0  0  0  0  0  0  0
   64.9308   76.6531   90.1619 C   0  0  0  0  0  0  0  0  0  0  0  0
   64.4099   75.8122   91.1603 C   0  0  0  0  0  0  0  0  0  0  0  0
   63.1776   75.1779   90.9782 C   0  0  0  0  0  0  0  0  0  0  0  0
   62.5407   74.1247   92.2350 Cl  0  0  0  0  0  0  0  0  0  0  0  0
   61.2203   74.7704   89.6066 O   0  0  0  0  0  0  0  0  0  0  0  0
   62.0247   73.4451   87.7666 C   0  0  0  0  0  0  0  0  0  0  0  0
   60.8111   74.1281   88.3958 C   0  0  0  0  0  0  0  0  0  0  0  0
   60.2011   75.1538   87.4309 C   0  0  0  0  0  0  0  0  0  0  0  0
   68.0095   79.5009   92.9334 C   0  0  0  0  0  0  0  0  0  0  0  0
   68.9239   79.0116   93.8876 C   0  0  0  0  0  0  0  0  0  0  0  0
   69.1169   79.6735   95.0535 N   0  0  0  0  0  0  0  0  0  0  0  0
   68.4540   80.8230   95.3590 C   0  0  0  0  0  0  0  0  0  0  0  0
   67.5404   81.3555   94.4399 C   0  0  0  0  0  0  0  0  0  0  0  0
   66.6635   82.8363   94.7979 Cl  0  0  0  0  0  0  0  0  0  0  0  0
   67.3252   80.6963   93.2277 C   0  0  0  0  0  0  0  0  0  0  0  0
   68.6570   81.4640   96.5850 O   0  0  0  0  0  0  0  0  0  0  0  0
   67.8654   81.2317   97.7517 C   0  0  0  0  0  0  0  0  0  0  0  0
   67.3860   79.7786   97.7402 C   0  0  0  0  0  0  0  0  0  0  0  0
   66.6704   82.1908   97.7632 C   0  0  0  0  0  0  0  0  0  0  0  0
   69.6362   77.5127   88.6145 C   0  0  0  0  0  0  0  0  0  0  0  0
   70.1275   76.2283   88.9969 O   0  0  0  0  0  0  0  0  0  0  0  0
   69.9215   75.6049   90.2362 C   0  0  0  0  0  0  0  0  0  0  0  0
   70.8709   75.5982   91.2735 C   0  0  0  0  0  0  0  0  0  0  0  0
   70.5903   74.9394   92.4746 C   0  0  0  0  0  0  0  0  0  0  0  0
   69.3596   74.2820   92.6637 C   0  0  0  0  0  0  0  0  0  0  0  0
   69.1168   73.6186   93.8651 O   0  0  0  0  0  0  0  0  0  0  0  0
   68.3960   74.2825   91.6250 C   0  0  0  0  0  0  0  0  0  0  0  0
   68.6916   74.9597   90.4304 C   0  0  0  0  0  0  0  0  0  0  0  0
   69.7630   73.6265   94.5436 H   0  0  0  0  0  0  0  0  0  0  0  0
   67.0914   73.5729   91.7345 C   0  0  0  0  0  0  0  0  0  0  0  0
   66.1938   73.9814   92.5199 O   0  0  0  0  0  0  0  0  0  0  0  0
   66.8466   72.4371   90.9643 O   0  0  0  0  0  0  0  0  0  0  0  0
   67.5029   72.1200   90.3755 H   0  0  0  0  0  0  0  0  0  0  0  0
 15 16  1  0  0  0
 16 17  1  0  0  0
 16 14  1  0  0  0
 14  7  1  0  0  0
  7  8  2  0  0  0
  8  9  2  0  0  0
  9 10  2  0  0  0
 10  1  1  0  0  0
  1  2  2  0  0  0
  2  3  1  0  0  0
  3 29  1  0  0  0
 29 30  1  0  0  0
 30 31  1  0  0  0
 31 32  2  0  0  0
 32 33  1  0  0  0
 33 34  2  0  0  0
 34 35  1  0  0  0
 34 36  1  0  0  0
 36 39  1  0  0  0
 39 40  2  0  0  0
 39 41  1  0  0  0
 36 37  2  0  0  0
  3  4  2  0  0  0
  4  5  1  0  0  0
  5 18  1  0  0  0
 18 19  2  0  0  0
 19 20  2  0  0  0
 20 21  2  0  0  0
 21 25  1  0  0  0
 25 26  1  0  0  0
 26 27  1  0  0  0
 26 28  1  0  0  0
 21 22  1  0  0  0
 22 23  1  0  0  0
 22 24  2  0  0  0
  5  6  2  0  0  0
 10 11  1  0  0  0
 11 12  2  0  0  0
 12 13  1  0  0  0
 12  7  1  0  0  0
  6  1  1  0  0  0
 37 31  1  0  0  0
 24 18  1  0  0  0
 35 38  1  0  0  0
 41 42  1  0  0  0
M  END
> <Activity>
4.1

> <minimizedAffinity>
-7.68194

$$$$
HIPS6458


 42 45  0  0  0  0  0  0  0  0999 V2000
   68.2250   77.7541   92.7739 C   0  0  0  0  0  0  0  0  0  0  0  0
   69.3610   77.0691   92.3002 C   0  0  0  0  0  0  0  0  0  0  0  0
   69.2288   75.9629   91.4466 C   0  0  0  0  0  0  0  0  0  0  0  0
   67.9503   75.5391   91.0581 C   0  0  0  0  0  0  0  0  0  0  0  0
   66.7974   76.2256   91.4946 C   0  0  0  0  0  0  0  0  0  0  0  0
   66.9502   77.3251   92.3613 C   0  0  0  0  0  0  0  0  0  0  0  0
   68.6859   81.1154   95.3885 C   0  0  0  0  0  0  0  0  0  0  0  0
   69.5037   80.0287   95.4823 N   0  0  0  0  0  0  0  0  0  0  0  0
   69.3765   78.9558   94.6625 C   0  0  0  0  0  0  0  0  0  0  0  0
   68.3756   78.9288   93.6725 C   0  0  0  0  0  0  0  0  0  0  0  0
   67.5233   80.0409   93.5621 C   0  0  0  0  0  0  0  0  0  0  0  0
   67.6757   81.1361   94.4173 C   0  0  0  0  0  0  0  0  0  0  0  0
   66.6042   82.5227   94.2640 Cl  0  0  0  0  0  0  0  0  0  0  0  0
   68.8355   82.2014   96.2608 O   0  0  0  0  0  0  0  0  0  0  0  0
   67.3252   81.0786   97.7600 C   0  0  0  0  0  0  0  0  0  0  0  0
   68.1041   82.3630   97.4794 C   0  0  0  0  0  0  0  0  0  0  0  0
   67.1551   83.5645   97.3736 C   0  0  0  0  0  0  0  0  0  0  0  0
   65.4449   75.8340   91.0074 C   0  0  0  0  0  0  0  0  0  0  0  0
   64.6605   76.7220   90.2444 C   0  0  0  0  0  0  0  0  0  0  0  0
   63.4079   76.3750   89.8633 N   0  0  0  0  0  0  0  0  0  0  0  0
   62.8519   75.1750   90.1879 C   0  0  0  0  0  0  0  0  0  0  0  0
   63.5940   74.2533   90.9380 C   0  0  0  0  0  0  0  0  0  0  0  0
   62.9112   72.6946   91.3788 Cl  0  0  0  0  0  0  0  0  0  0  0  0
   64.8901   74.5829   91.3405 C   0  0  0  0  0  0  0  0  0  0  0  0
   61.5450   74.8621   89.8019 O   0  0  0  0  0  0  0  0  0  0  0  0
   61.1115   74.7663   88.4437 C   0  0  0  0  0  0  0  0  0  0  0  0
   61.9793   73.7334   87.7216 C   0  0  0  0  0  0  0  0  0  0  0  0
   61.2317   76.1356   87.7664 C   0  0  0  0  0  0  0  0  0  0  0  0
   70.4439   75.3769   90.7776 C   0  0  0  0  0  0  0  0  0  0  0  0
   70.4628   75.8716   89.4388 O   0  0  0  0  0  0  0  0  0  0  0  0
   69.7755   77.0006   88.9698 C   0  0  0  0  0  0  0  0  0  0  0  0
   70.0963   78.3188   89.3398 C   0  0  0  0  0  0  0  0  0  0  0  0
   69.3493   79.3883   88.8365 C   0  0  0  0  0  0  0  0  0  0  0  0
   68.2755   79.1631   87.9540 C   0  0  0  0  0  0  0  0  0  0  0  0
   67.5383   80.2485   87.4838 O   0  0  0  0  0  0  0  0  0  0  0  0
   67.9437   77.8390   87.5748 C   0  0  0  0  0  0  0  0  0  0  0  0
   68.7132   76.7788   88.0816 C   0  0  0  0  0  0  0  0  0  0  0  0
   67.7689   81.1189   87.7428 H   0  0  0  0  0  0  0  0  0  0  0  0
   66.7960   77.5192   86.6814 C   0  0  0  0  0  0  0  0  0  0  0  0
   66.5661   78.2049   85.6487 O   0  0  0  0  0  0  0  0  0  0  0  0
   65.9538   76.4496   86.9809 O   0  0  0  0  0  0  0  0  0  0  0  0
   66.1103   75.9297   87.7445 H   0  0  0  0  0  0  0  0  0  0  0  0
 15 16  1  0  0  0
 16 17  1  0  0  0
 16 14  1  0  0  0
 14  7  1  0  0  0
  7  8  2  0  0  0
  8  9  2  0  0  0
  9 10  2  0  0  0
 10  1  1  0  0  0
  1  2  2  0  0  0
  2  3  1  0  0  0
  3 29  1  0  0  0
 29 30  1  0  0  0
 30 31  1  0  0  0
 31 32  2  0  0  0
 32 33  1  0  0  0
 33 34  2  0  0  0
 34 35  1  0  0  0
 34 36  1  0  0  0
 36 39  1  0  0  0
 39 40  2  0  0  0
 39 41  1  0  0  0
 36 37  2  0  0  0
  3  4  2  0  0  0
  4  5  1  0  0  0
  5 18  1  0  0  0
 18 19  2  0  0  0
 19 20  2  0  0  0
 20 21  2  0  0  0
 21 25  1  0  0  0
 25 26  1  0  0  0
 26 27  1  0  0  0
 26 28  1  0  0  0
 21 22  1  0  0  0
 22 23  1  0  0  0
 22 24  2  0  0  0
  5  6  2  0  0  0
 10 11  1  0  0  0
 11 12  2  0  0  0
 12 13  1  0  0  0
 12  7  1  0  0  0
  6  1  1  0  0  0
 37 31  1  0  0  0
 24 18  1  0  0  0
 35 38  1  0  0  0
 41 42  1  0  0  0
M  END
> <Activity>
4.1

> <minimizedAffinity>
-7.24694

$$$$
HIPS6458


 42 45  0  0  0  0  0  0  0  0999 V2000
   71.3784   80.1344   88.6236 C   0  0  0  0  0  0  0  0  0  0  0  0
   70.2730   80.3860   87.7877 C   0  0  0  0  0  0  0  0  0  0  0  0
   69.1724   79.5153   87.7704 C   0  0  0  0  0  0  0  0  0  0  0  0
   69.1730   78.3847   88.5992 C   0  0  0  0  0  0  0  0  0  0  0  0
   70.2546   78.1255   89.4675 C   0  0  0  0  0  0  0  0  0  0  0  0
   71.3555   79.0038   89.4607 C   0  0  0  0  0  0  0  0  0  0  0  0
   74.6881   82.8531   88.6647 C   0  0  0  0  0  0  0  0  0  0  0  0
   73.4043   83.2998   88.7677 N   0  0  0  0  0  0  0  0  0  0  0  0
   72.3428   82.4557   88.7597 C   0  0  0  0  0  0  0  0  0  0  0  0
   72.5367   81.0662   88.6397 C   0  0  0  0  0  0  0  0  0  0  0  0
   73.8540   80.5884   88.5322 C   0  0  0  0  0  0  0  0  0  0  0  0
   74.9320   81.4782   88.5451 C   0  0  0  0  0  0  0  0  0  0  0  0
   76.5755   80.8648   88.4141 Cl  0  0  0  0  0  0  0  0  0  0  0  0
   75.7614   83.7535   88.6620 O   0  0  0  0  0  0  0  0  0  0  0  0
   76.5634   85.6131   87.3629 C   0  0  0  0  0  0  0  0  0  0  0  0
   76.5266   84.0918   87.5018 C   0  0  0  0  0  0  0  0  0  0  0  0
   75.9121   83.4446   86.2533 C   0  0  0  0  0  0  0  0  0  0  0  0
   70.2145   76.9770   90.4159 C   0  0  0  0  0  0  0  0  0  0  0  0
   70.9402   75.7962   90.1606 C   0  0  0  0  0  0  0  0  0  0  0  0
   70.8430   74.7376   91.0000 N   0  0  0  0  0  0  0  0  0  0  0  0
   70.0577   74.7573   92.1123 C   0  0  0  0  0  0  0  0  0  0  0  0
   69.3227   75.9109   92.4153 C   0  0  0  0  0  0  0  0  0  0  0  0
   68.2960   75.9753   93.8407 Cl  0  0  0  0  0  0  0  0  0  0  0  0
   69.4077   77.0192   91.5697 C   0  0  0  0  0  0  0  0  0  0  0  0
   69.9590   73.6353   92.9407 O   0  0  0  0  0  0  0  0  0  0  0  0
   68.9231   72.6559   92.8438 C   0  0  0  0  0  0  0  0  0  0  0  0
   69.5147   71.3692   92.2640 C   0  0  0  0  0  0  0  0  0  0  0  0
   67.7988   73.1819   91.9453 C   0  0  0  0  0  0  0  0  0  0  0  0
   67.9135   79.9050   87.0419 C   0  0  0  0  0  0  0  0  0  0  0  0
   67.0812   78.7463   86.9972 O   0  0  0  0  0  0  0  0  0  0  0  0
   66.7023   77.9634   88.0974 C   0  0  0  0  0  0  0  0  0  0  0  0
   66.6895   76.5573   88.0869 C   0  0  0  0  0  0  0  0  0  0  0  0
   66.2833   75.8527   89.2245 C   0  0  0  0  0  0  0  0  0  0  0  0
   65.8888   76.5360   90.3907 C   0  0  0  0  0  0  0  0  0  0  0  0
   65.4716   75.8060   91.5022 O   0  0  0  0  0  0  0  0  0  0  0  0
   65.8979   77.9526   90.4120 C   0  0  0  0  0  0  0  0  0  0  0  0
   66.3203   78.6423   89.2636 C   0  0  0  0  0  0  0  0  0  0  0  0
   65.4707   74.8694   91.4742 H   0  0  0  0  0  0  0  0  0  0  0  0
   65.4532   78.7445   91.5920 C   0  0  0  0  0  0  0  0  0  0  0  0
   66.2526   79.5045   92.2028 O   0  0  0  0  0  0  0  0  0  0  0  0
   64.1365   78.6520   92.0402 O   0  0  0  0  0  0  0  0  0  0  0  0
   63.5293   78.0920   91.5979 H   0  0  0  0  0  0  0  0  0  0  0  0
 15 16  1  0  0  0
 16 17  1  0  0  0
 16 14  1  0  0  0
 14  7  1  0  0  0
  7  8  2  0  0  0
  8  9  2  0  0  0
  9 10  2  0  0  0
 10  1  1  0  0  0
  1  2  2  0  0  0
  2  3  1  0  0  0
  3 29  1  0  0  0
 29 30  1  0  0  0
 30 31  1  0  0  0
 31 32  2  0  0  0
 32 33  1  0  0  0
 33 34  2  0  0  0
 34 35  1  0  0  0
 34 36  1  0  0  0
 36 39  1  0  0  0
 39 40  2  0  0  0
 39 41  1  0  0  0
 36 37  2  0  0  0
  3  4  2  0  0  0
  4  5  1  0  0  0
  5 18  1  0  0  0
 18 19  2  0  0  0
 19 20  2  0  0  0
 20 21  2  0  0  0
 21 25  1  0  0  0
 25 26  1  0  0  0
 26 27  1  0  0  0
 26 28  1  0  0  0
 21 22  1  0  0  0
 22 23  1  0  0  0
 22 24  2  0  0  0
  5  6  2  0  0  0
 10 11  1  0  0  0
 11 12  2  0  0  0
 12 13  1  0  0  0
 12  7  1  0  0  0
  6  1  1  0  0  0
 37 31  1  0  0  0
 24 18  1  0  0  0
 35 38  1  0  0  0
 41 42  1  0  0  0
M  END
> <Activity>
4.1

> <minimizedAffinity>
-6.83111

$$$$
HIPS6458


 42 45  0  0  0  0  0  0  0  0999 V2000
   68.7084   77.0910   89.3130 C   0  0  0  0  0  0  0  0  0  0  0  0
   69.4741   75.9143   89.4279 C   0  0  0  0  0  0  0  0  0  0  0  0
   70.8763   75.9632   89.3915 C   0  0  0  0  0  0  0  0  0  0  0  0
   71.5207   77.1994   89.2438 C   0  0  0  0  0  0  0  0  0  0  0  0
   70.7780   78.3959   89.1562 C   0  0  0  0  0  0  0  0  0  0  0  0
   69.3717   78.3247   89.1813 C   0  0  0  0  0  0  0  0  0  0  0  0
   64.4306   76.8942   89.4072 C   0  0  0  0  0  0  0  0  0  0  0  0
   65.1514   76.1872   88.4912 N   0  0  0  0  0  0  0  0  0  0  0  0
   66.5061   76.2333   88.4463 C   0  0  0  0  0  0  0  0  0  0  0  0
   67.2237   77.0297   89.3593 C   0  0  0  0  0  0  0  0  0  0  0  0
   66.4963   77.7654   90.3104 C   0  0  0  0  0  0  0  0  0  0  0  0
   65.1002   77.6998   90.3381 C   0  0  0  0  0  0  0  0  0  0  0  0
   64.2038   78.6230   91.5374 Cl  0  0  0  0  0  0  0  0  0  0  0  0
   63.0309   76.8351   89.4169 O   0  0  0  0  0  0  0  0  0  0  0  0
   63.0249   75.1308   91.1152 C   0  0  0  0  0  0  0  0  0  0  0  0
   62.2743   75.7345   89.9290 C   0  0  0  0  0  0  0  0  0  0  0  0
   62.0545   74.6849   88.8311 C   0  0  0  0  0  0  0  0  0  0  0  0
   71.4634   79.7175   89.0938 C   0  0  0  0  0  0  0  0  0  0  0  0
   70.7277   80.9195   89.0845 C   0  0  0  0  0  0  0  0  0  0  0  0
   71.3624   82.1099   88.9632 N   0  0  0  0  0  0  0  0  0  0  0  0
   72.7158   82.2076   88.8483 C   0  0  0  0  0  0  0  0  0  0  0  0
   73.4933   81.0421   88.8610 C   0  0  0  0  0  0  0  0  0  0  0  0
   75.2429   81.1259   88.7132 Cl  0  0  0  0  0  0  0  0  0  0  0  0
   72.8655   79.8012   88.9895 C   0  0  0  0  0  0  0  0  0  0  0  0
   73.3348   83.4520   88.6956 O   0  0  0  0  0  0  0  0  0  0  0  0
   74.4586   83.6893   87.8456 C   0  0  0  0  0  0  0  0  0  0  0  0
   75.6667   84.0456   88.7146 C   0  0  0  0  0  0  0  0  0  0  0  0
   74.1394   84.8321   86.8760 C   0  0  0  0  0  0  0  0  0  0  0  0
   71.6828   74.7377   89.7304 C   0  0  0  0  0  0  0  0  0  0  0  0
   71.7045   74.6323   91.1537 O   0  0  0  0  0  0  0  0  0  0  0  0
   70.5850   74.6682   91.9977 C   0  0  0  0  0  0  0  0  0  0  0  0
   69.8799   73.5226   92.4075 C   0  0  0  0  0  0  0  0  0  0  0  0
   68.7634   73.6486   93.2400 C   0  0  0  0  0  0  0  0  0  0  0  0
   68.3348   74.9151   93.6812 C   0  0  0  0  0  0  0  0  0  0  0  0
   67.2075   75.0096   94.4954 O   0  0  0  0  0  0  0  0  0  0  0  0
   69.0379   76.0758   93.2743 C   0  0  0  0  0  0  0  0  0  0  0  0
   70.1638   75.9279   92.4476 C   0  0  0  0  0  0  0  0  0  0  0  0
   66.7522   74.2336   94.7569 H   0  0  0  0  0  0  0  0  0  0  0  0
   68.6192   77.4508   93.6638 C   0  0  0  0  0  0  0  0  0  0  0  0
   69.4394   78.2580   94.1788 O   0  0  0  0  0  0  0  0  0  0  0  0
   67.3030   77.8639   93.4637 O   0  0  0  0  0  0  0  0  0  0  0  0
   66.6806   77.2766   93.0821 H   0  0  0  0  0  0  0  0  0  0  0  0
 15 16  1  0  0  0
 16 17  1  0  0  0
 16 14  1  0  0  0
 14  7  1  0  0  0
  7  8  2  0  0  0
  8  9  2  0  0  0
  9 10  2  0  0  0
 10  1  1  0  0  0
  1  2  2  0  0  0
  2  3  1  0  0  0
  3 29  1  0  0  0
 29 30  1  0  0  0
 30 31  1  0  0  0
 31 32  2  0  0  0
 32 33  1  0  0  0
 33 34  2  0  0  0
 34 35  1  0  0  0
 34 36  1  0  0  0
 36 39  1  0  0  0
 39 40  2  0  0  0
 39 41  1  0  0  0
 36 37  2  0  0  0
  3  4  2  0  0  0
  4  5  1  0  0  0
  5 18  1  0  0  0
 18 19  2  0  0  0
 19 20  2  0  0  0
 20 21  2  0  0  0
 21 25  1  0  0  0
 25 26  1  0  0  0
 26 27  1  0  0  0
 26 28  1  0  0  0
 21 22  1  0  0  0
 22 23  1  0  0  0
 22 24  2  0  0  0
  5  6  2  0  0  0
 10 11  1  0  0  0
 11 12  2  0  0  0
 12 13  1  0  0  0
 12  7  1  0  0  0
  6  1  1  0  0  0
 37 31  1  0  0  0
 24 18  1  0  0  0
 35 38  1  0  0  0
 41 42  1  0  0  0
M  END
> <Activity>
4.1

> <minimizedAffinity>
-6.63613

$$$$
HIPS6458


 42 45  0  0  0  0  0  0  0  0999 V2000
   70.1213   78.4957   89.6392 C   0  0  0  0  0  0  0  0  0  0  0  0
   69.0359   78.8334   88.8075 C   0  0  0  0  0  0  0  0  0  0  0  0
   69.0921   79.9628   87.9761 C   0  0  0  0  0  0  0  0  0  0  0  0
   70.2450   80.7603   87.9714 C   0  0  0  0  0  0  0  0  0  0  0  0
   71.3575   80.4276   88.7730 C   0  0  0  0  0  0  0  0  0  0  0  0
   71.2767   79.2980   89.6102 C   0  0  0  0  0  0  0  0  0  0  0  0
   69.9489   75.0086   92.1207 C   0  0  0  0  0  0  0  0  0  0  0  0
   70.6951   75.0290   90.9800 N   0  0  0  0  0  0  0  0  0  0  0  0
   70.7655   76.1235   90.1822 C   0  0  0  0  0  0  0  0  0  0  0  0
   70.0548   77.2936   90.5115 C   0  0  0  0  0  0  0  0  0  0  0  0
   69.2802   77.2898   91.6841 C   0  0  0  0  0  0  0  0  0  0  0  0
   69.2253   76.1500   92.4915 C   0  0  0  0  0  0  0  0  0  0  0  0
   68.2548   76.1619   93.9586 Cl  0  0  0  0  0  0  0  0  0  0  0  0
   69.8867   73.8562   92.9150 O   0  0  0  0  0  0  0  0  0  0  0  0
   69.4448   71.5759   92.2874 C   0  0  0  0  0  0  0  0  0  0  0  0
   68.8500   72.8744   92.8309 C   0  0  0  0  0  0  0  0  0  0  0  0
   67.7163   73.3757   91.9261 C   0  0  0  0  0  0  0  0  0  0  0  0
   72.6170   81.2201   88.6985 C   0  0  0  0  0  0  0  0  0  0  0  0
   72.5938   82.6288   88.7301 C   0  0  0  0  0  0  0  0  0  0  0  0
   73.7415   83.3358   88.5973 N   0  0  0  0  0  0  0  0  0  0  0  0
   74.9532   82.7369   88.4318 C   0  0  0  0  0  0  0  0  0  0  0  0
   75.0310   81.3383   88.4023 C   0  0  0  0  0  0  0  0  0  0  0  0
   76.5759   80.5273   88.1887 Cl  0  0  0  0  0  0  0  0  0  0  0  0
   73.8639   80.5841   88.5416 C   0  0  0  0  0  0  0  0  0  0  0  0
   76.1139   83.4991   88.2687 O   0  0  0  0  0  0  0  0  0  0  0  0
   76.1440   84.7950   87.6673 C   0  0  0  0  0  0  0  0  0  0  0  0
   76.5595   85.8194   88.7254 C   0  0  0  0  0  0  0  0  0  0  0  0
   74.7594   85.1351   87.1059 C   0  0  0  0  0  0  0  0  0  0  0  0
   68.0236   80.1906   86.9399 C   0  0  0  0  0  0  0  0  0  0  0  0
   67.5470   78.9053   86.5420 O   0  0  0  0  0  0  0  0  0  0  0  0
   67.2646   77.8318   87.3992 C   0  0  0  0  0  0  0  0  0  0  0  0
   67.9303   76.5943   87.3452 C   0  0  0  0  0  0  0  0  0  0  0  0
   67.5762   75.5702   88.2291 C   0  0  0  0  0  0  0  0  0  0  0  0
   66.5585   75.7633   89.1827 C   0  0  0  0  0  0  0  0  0  0  0  0
   66.2157   74.7172   90.0376 O   0  0  0  0  0  0  0  0  0  0  0  0
   65.8812   77.0061   89.2456 C   0  0  0  0  0  0  0  0  0  0  0  0
   66.2592   78.0264   88.3573 C   0  0  0  0  0  0  0  0  0  0  0  0
   66.6721   73.9005   89.9850 H   0  0  0  0  0  0  0  0  0  0  0  0
   64.7660   77.2700   90.1965 C   0  0  0  0  0  0  0  0  0  0  0  0
   64.9156   77.0987   91.4366 O   0  0  0  0  0  0  0  0  0  0  0  0
   63.5320   77.7113   89.7216 O   0  0  0  0  0  0  0  0  0  0  0  0
   63.4037   77.8437   88.8029 H   0  0  0  0  0  0  0  0  0  0  0  0
 15 16  1  0  0  0
 16 17  1  0  0  0
 16 14  1  0  0  0
 14  7  1  0  0  0
  7  8  2  0  0  0
  8  9  2  0  0  0
  9 10  2  0  0  0
 10  1  1  0  0  0
  1  2  2  0  0  0
  2  3  1  0  0  0
  3 29  1  0  0  0
 29 30  1  0  0  0
 30 31  1  0  0  0
 31 32  2  0  0  0
 32 33  1  0  0  0
 33 34  2  0  0  0
 34 35  1  0  0  0
 34 36  1  0  0  0
 36 39  1  0  0  0
 39 40  2  0  0  0
 39 41  1  0  0  0
 36 37  2  0  0  0
  3  4  2  0  0  0
  4  5  1  0  0  0
  5 18  1  0  0  0
 18 19  2  0  0  0
 19 20  2  0  0  0
 20 21  2  0  0  0
 21 25  1  0  0  0
 25 26  1  0  0  0
 26 27  1  0  0  0
 26 28  1  0  0  0
 21 22  1  0  0  0
 22 23  1  0  0  0
 22 24  2  0  0  0
  5  6  2  0  0  0
 10 11  1  0  0  0
 11 12  2  0  0  0
 12 13  1  0  0  0
 12  7  1  0  0  0
  6  1  1  0  0  0
 37 31  1  0  0  0
 24 18  1  0  0  0
 35 38  1  0  0  0
 41 42  1  0  0  0
M  END
> <Activity>
4.1

> <minimizedAffinity>
-6.54807

$$$$
HIPS7116


 36 39  0  0  0  0  0  0  0  0999 V2000
   69.2834   77.9226   89.6814 C   0  0  0  0  0  0  0  0  0  0  0  0
   70.3200   77.0692   89.7131 N   0  0  0  0  0  0  0  0  0  0  0  0
   71.5722   77.4048   89.4038 C   0  0  0  0  0  0  0  0  0  0  0  0
   71.8166   78.7191   89.0261 C   0  0  0  0  0  0  0  0  0  0  0  0
   70.7603   79.6141   88.9875 C   0  0  0  0  0  0  0  0  0  0  0  0
   69.5204   79.1818   89.3190 N   0  0  0  0  0  0  0  0  0  0  0  0
   65.0260   75.4343   89.2550 C   0  0  0  0  0  0  0  0  0  0  0  0
   64.5054   75.7791   88.1641 O   0  0  0  0  0  0  0  0  0  0  0  0
   66.3285   75.8447   89.6434 N   0  0  0  0  0  0  0  0  0  0  0  0
   67.2693   76.6791   88.9308 C   0  0  0  0  0  0  0  0  0  0  0  0
   67.9379   77.4276   90.0466 C   0  0  0  0  0  0  0  0  0  0  0  0
   67.9756   76.4293   91.1332 C   0  0  0  0  0  0  0  0  0  0  0  0
   68.7524   76.2863   92.2722 C   0  0  0  0  0  0  0  0  0  0  0  0
   68.5196   75.2139   93.0988 C   0  0  0  0  0  0  0  0  0  0  0  0
   67.5430   74.2784   92.8348 C   0  0  0  0  0  0  0  0  0  0  0  0
   66.7735   74.4233   91.7033 C   0  0  0  0  0  0  0  0  0  0  0  0
   66.9979   75.5021   90.8592 C   0  0  0  0  0  0  0  0  0  0  0  0
   64.2385   74.6160   90.0687 O   0  0  0  0  0  0  0  0  0  0  0  0
   61.8369   74.9053   89.9022 C   0  0  0  0  0  0  0  0  0  0  0  0
   63.0924   75.0669   90.7304 C   0  0  0  0  0  0  0  0  0  0  0  0
   63.1631   76.4807   91.2033 C   0  0  0  0  0  0  0  0  0  0  0  0
   62.9103   74.1730   91.9575 C   0  0  0  0  0  0  0  0  0  0  0  0
   73.2023   79.1467   88.6677 C   0  0  0  0  0  0  0  0  0  0  0  0
   73.5166   80.2393   89.4815 O   0  0  0  0  0  0  0  0  0  0  0  0
   73.8088   81.5054   89.0114 C   0  0  0  0  0  0  0  0  0  0  0  0
   72.9539   82.5651   89.1835 C   0  0  0  0  0  0  0  0  0  0  0  0
   73.3167   83.8158   88.6811 C   0  0  0  0  0  0  0  0  0  0  0  0
   74.5032   84.0322   88.0164 C   0  0  0  0  0  0  0  0  0  0  0  0
   74.8651   85.2813   87.5149 O   0  0  0  0  0  0  0  0  0  0  0  0
   75.3499   82.9446   87.8556 C   0  0  0  0  0  0  0  0  0  0  0  0
   74.9919   81.7137   88.3504 C   0  0  0  0  0  0  0  0  0  0  0  0
   74.2918   86.0142   87.6246 H   0  0  0  0  0  0  0  0  0  0  0  0
   76.6101   83.1413   87.1587 C   0  0  0  0  0  0  0  0  0  0  0  0
   77.7011   83.1151   87.7997 O   0  0  0  0  0  0  0  0  0  0  0  0
   76.6961   83.3614   85.8005 O   0  0  0  0  0  0  0  0  0  0  0  0
   75.9173   83.3900   85.2803 H   0  0  0  0  0  0  0  0  0  0  0  0
 19 20  1  0  0  0
 20 21  1  0  0  0
 20 22  1  0  0  0
 20 18  1  0  0  0
 18  7  1  0  0  0
  7  8  2  0  0  0
  7  9  1  0  0  0
  9 10  1  0  0  0
 10 11  1  0  0  0
 11  1  1  0  0  0
  1  2  2  0  0  0
  2  3  2  0  0  0
  3  4  2  0  0  0
  4 23  1  0  0  0
 23 24  1  0  0  0
 24 25  1  0  0  0
 25 26  2  0  0  0
 26 27  1  0  0  0
 27 28  2  0  0  0
 28 29  1  0  0  0
 28 30  1  0  0  0
 30 33  1  0  0  0
 33 34  2  0  0  0
 33 35  1  0  0  0
 30 31  2  0  0  0
  4  5  1  0  0  0
  5  6  2  0  0  0
 11 12  1  0  0  0
 12 13  2  0  0  0
 13 14  1  0  0  0
 14 15  2  0  0  0
 15 16  1  0  0  0
 16 17  2  0  0  0
 17  9  1  0  0  0
  6  1  2  0  0  0
 17 12  1  0  0  0
 31 25  1  0  0  0
 29 32  1  0  0  0
 35 36  1  0  0  0
M  END
> <Activity>
8.1

> <minimizedAffinity>
-9.33076

$$$$
HIPS7116


 36 39  0  0  0  0  0  0  0  0999 V2000
   69.3632   77.9687   89.6855 C   0  0  0  0  0  0  0  0  0  0  0  0
   70.3826   77.0946   89.7064 N   0  0  0  0  0  0  0  0  0  0  0  0
   71.6408   77.4084   89.3987 C   0  0  0  0  0  0  0  0  0  0  0  0
   71.9109   78.7216   89.0346 C   0  0  0  0  0  0  0  0  0  0  0  0
   70.8726   79.6378   89.0073 C   0  0  0  0  0  0  0  0  0  0  0  0
   69.6247   79.2267   89.3361 N   0  0  0  0  0  0  0  0  0  0  0  0
   65.0845   75.5150   89.2721 C   0  0  0  0  0  0  0  0  0  0  0  0
   64.5796   75.8383   88.1674 O   0  0  0  0  0  0  0  0  0  0  0  0
   66.3870   75.9212   89.6650 N   0  0  0  0  0  0  0  0  0  0  0  0
   67.3443   76.7282   88.9428 C   0  0  0  0  0  0  0  0  0  0  0  0
   68.0086   77.4967   90.0475 C   0  0  0  0  0  0  0  0  0  0  0  0
   68.0238   76.5249   91.1585 C   0  0  0  0  0  0  0  0  0  0  0  0
   68.7865   76.4018   92.3092 C   0  0  0  0  0  0  0  0  0  0  0  0
   68.5333   75.3524   93.1590 C   0  0  0  0  0  0  0  0  0  0  0  0
   67.5498   74.4209   92.9069 C   0  0  0  0  0  0  0  0  0  0  0  0
   66.7943   74.5460   91.7637 C   0  0  0  0  0  0  0  0  0  0  0  0
   67.0394   75.6015   90.8962 C   0  0  0  0  0  0  0  0  0  0  0  0
   64.2795   74.7249   90.0966 O   0  0  0  0  0  0  0  0  0  0  0  0
   61.8827   75.0078   89.8636 C   0  0  0  0  0  0  0  0  0  0  0  0
   63.1182   75.1973   90.7155 C   0  0  0  0  0  0  0  0  0  0  0  0
   63.1783   76.6261   91.1426 C   0  0  0  0  0  0  0  0  0  0  0  0
   62.9066   74.3448   91.9671 C   0  0  0  0  0  0  0  0  0  0  0  0
   73.3043   79.1252   88.6787 C   0  0  0  0  0  0  0  0  0  0  0  0
   73.4387   80.4748   89.0184 O   0  0  0  0  0  0  0  0  0  0  0  0
   74.4895   81.2796   88.6218 C   0  0  0  0  0  0  0  0  0  0  0  0
   75.7547   80.7863   88.4237 C   0  0  0  0  0  0  0  0  0  0  0  0
   76.7667   81.6600   88.0228 C   0  0  0  0  0  0  0  0  0  0  0  0
   76.5475   83.0038   87.8164 C   0  0  0  0  0  0  0  0  0  0  0  0
   77.5583   83.8760   87.4161 O   0  0  0  0  0  0  0  0  0  0  0  0
   75.2597   83.4776   88.0234 C   0  0  0  0  0  0  0  0  0  0  0  0
   74.2641   82.6167   88.4182 C   0  0  0  0  0  0  0  0  0  0  0  0
   78.4271   83.5539   87.2769 H   0  0  0  0  0  0  0  0  0  0  0  0
   74.9965   84.8914   87.8131 C   0  0  0  0  0  0  0  0  0  0  0  0
   75.6034   85.7602   88.5051 O   0  0  0  0  0  0  0  0  0  0  0  0
   74.0993   85.3621   86.8782 O   0  0  0  0  0  0  0  0  0  0  0  0
   73.6241   84.7599   86.3402 H   0  0  0  0  0  0  0  0  0  0  0  0
 19 20  1  0  0  0
 20 21  1  0  0  0
 20 22  1  0  0  0
 20 18  1  0  0  0
 18  7  1  0  0  0
  7  8  2  0  0  0
  7  9  1  0  0  0
  9 10  1  0  0  0
 10 11  1  0  0  0
 11  1  1  0  0  0
  1  2  2  0  0  0
  2  3  2  0  0  0
  3  4  2  0  0  0
  4 23  1  0  0  0
 23 24  1  0  0  0
 24 25  1  0  0  0
 25 26  2  0  0  0
 26 27  1  0  0  0
 27 28  2  0  0  0
 28 29  1  0  0  0
 28 30  1  0  0  0
 30 33  1  0  0  0
 33 34  2  0  0  0
 33 35  1  0  0  0
 30 31  2  0  0  0
  4  5  1  0  0  0
  5  6  2  0  0  0
 11 12  1  0  0  0
 12 13  2  0  0  0
 13 14  1  0  0  0
 14 15  2  0  0  0
 15 16  1  0  0  0
 16 17  2  0  0  0
 17  9  1  0  0  0
  6  1  2  0  0  0
 17 12  1  0  0  0
 31 25  1  0  0  0
 29 32  1  0  0  0
 35 36  1  0  0  0
M  END
> <Activity>
8.1

> <minimizedAffinity>
-8.91448

$$$$
HIPS7116


 36 39  0  0  0  0  0  0  0  0999 V2000
   68.4350   79.5330   94.0674 C   0  0  0  0  0  0  0  0  0  0  0  0
   69.3717   78.6684   94.4900 N   0  0  0  0  0  0  0  0  0  0  0  0
   69.5502   77.4518   93.9761 C   0  0  0  0  0  0  0  0  0  0  0  0
   68.7140   77.0570   92.9392 C   0  0  0  0  0  0  0  0  0  0  0  0
   67.7418   77.9350   92.4895 C   0  0  0  0  0  0  0  0  0  0  0  0
   67.6348   79.1522   93.0735 N   0  0  0  0  0  0  0  0  0  0  0  0
   66.5559   83.9649   95.2188 C   0  0  0  0  0  0  0  0  0  0  0  0
   66.3859   84.5850   94.1387 O   0  0  0  0  0  0  0  0  0  0  0  0
   66.9514   82.6021   95.2633 N   0  0  0  0  0  0  0  0  0  0  0  0
   67.2227   81.6978   94.1688 C   0  0  0  0  0  0  0  0  0  0  0  0
   68.3361   80.8565   94.7210 C   0  0  0  0  0  0  0  0  0  0  0  0
   67.9922   80.7584   96.1531 C   0  0  0  0  0  0  0  0  0  0  0  0
   68.3313   79.8657   97.1577 C   0  0  0  0  0  0  0  0  0  0  0  0
   67.8280   80.0707   98.4195 C   0  0  0  0  0  0  0  0  0  0  0  0
   67.0002   81.1305   98.7195 C   0  0  0  0  0  0  0  0  0  0  0  0
   66.6655   82.0150   97.7199 C   0  0  0  0  0  0  0  0  0  0  0  0
   67.1668   81.8199   96.4403 C   0  0  0  0  0  0  0  0  0  0  0  0
   66.3301   84.7045   96.3824 O   0  0  0  0  0  0  0  0  0  0  0  0
   63.9592   84.2153   96.5197 C   0  0  0  0  0  0  0  0  0  0  0  0
   65.0765   85.2113   96.7382 C   0  0  0  0  0  0  0  0  0  0  0  0
   64.7062   86.4877   96.0591 C   0  0  0  0  0  0  0  0  0  0  0  0
   65.1193   85.4790   98.2431 C   0  0  0  0  0  0  0  0  0  0  0  0
   68.8710   75.7026   92.3291 C   0  0  0  0  0  0  0  0  0  0  0  0
   68.1499   75.7075   91.1313 O   0  0  0  0  0  0  0  0  0  0  0  0
   66.9069   75.1274   90.9650 C   0  0  0  0  0  0  0  0  0  0  0  0
   66.5655   73.9432   91.5687 C   0  0  0  0  0  0  0  0  0  0  0  0
   65.2904   73.4173   91.3544 C   0  0  0  0  0  0  0  0  0  0  0  0
   64.3553   74.0405   90.5584 C   0  0  0  0  0  0  0  0  0  0  0  0
   63.0822   73.5151   90.3447 O   0  0  0  0  0  0  0  0  0  0  0  0
   64.7252   75.2365   89.9597 C   0  0  0  0  0  0  0  0  0  0  0  0
   65.9807   75.7534   90.1710 C   0  0  0  0  0  0  0  0  0  0  0  0
   62.8346   72.7074   90.7500 H   0  0  0  0  0  0  0  0  0  0  0  0
   63.7599   75.9188   89.1141 C   0  0  0  0  0  0  0  0  0  0  0  0
   63.4033   75.4040   88.0142 O   0  0  0  0  0  0  0  0  0  0  0  0
   63.1893   77.1298   89.4438 O   0  0  0  0  0  0  0  0  0  0  0  0
   63.4197   77.5529   90.2474 H   0  0  0  0  0  0  0  0  0  0  0  0
 19 20  1  0  0  0
 20 21  1  0  0  0
 20 22  1  0  0  0
 20 18  1  0  0  0
 18  7  1  0  0  0
  7  8  2  0  0  0
  7  9  1  0  0  0
  9 10  1  0  0  0
 10 11  1  0  0  0
 11  1  1  0  0  0
  1  2  2  0  0  0
  2  3  2  0  0  0
  3  4  2  0  0  0
  4 23  1  0  0  0
 23 24  1  0  0  0
 24 25  1  0  0  0
 25 26  2  0  0  0
 26 27  1  0  0  0
 27 28  2  0  0  0
 28 29  1  0  0  0
 28 30  1  0  0  0
 30 33  1  0  0  0
 33 34  2  0  0  0
 33 35  1  0  0  0
 30 31  2  0  0  0
  4  5  1  0  0  0
  5  6  2  0  0  0
 11 12  1  0  0  0
 12 13  2  0  0  0
 13 14  1  0  0  0
 14 15  2  0  0  0
 15 16  1  0  0  0
 16 17  2  0  0  0
 17  9  1  0  0  0
  6  1  2  0  0  0
 17 12  1  0  0  0
 31 25  1  0  0  0
 29 32  1  0  0  0
 35 36  1  0  0  0
M  END
> <Activity>
8.1

> <minimizedAffinity>
-8.05758

$$$$
HIPS7116


 36 39  0  0  0  0  0  0  0  0999 V2000
   68.0309   78.7486   89.3409 C   0  0  0  0  0  0  0  0  0  0  0  0
   69.0684   78.9161   90.1771 N   0  0  0  0  0  0  0  0  0  0  0  0
   70.1567   79.6267   89.8825 C   0  0  0  0  0  0  0  0  0  0  0  0
   70.2182   80.2302   88.6326 C   0  0  0  0  0  0  0  0  0  0  0  0
   69.1578   80.0689   87.7564 C   0  0  0  0  0  0  0  0  0  0  0  0
   68.0924   79.3279   88.1435 N   0  0  0  0  0  0  0  0  0  0  0  0
   64.4436   75.3460   89.1130 C   0  0  0  0  0  0  0  0  0  0  0  0
   63.7536   75.6055   88.0949 O   0  0  0  0  0  0  0  0  0  0  0  0
   65.6473   76.0350   89.4162 N   0  0  0  0  0  0  0  0  0  0  0  0
   66.2956   77.0986   88.6830 C   0  0  0  0  0  0  0  0  0  0  0  0
   66.8785   77.9342   89.7850 C   0  0  0  0  0  0  0  0  0  0  0  0
   67.2516   76.9262   90.7969 C   0  0  0  0  0  0  0  0  0  0  0  0
   68.1475   76.9210   91.8544 C   0  0  0  0  0  0  0  0  0  0  0  0
   68.2506   75.7887   92.6257 C   0  0  0  0  0  0  0  0  0  0  0  0
   67.4959   74.6615   92.3843 C   0  0  0  0  0  0  0  0  0  0  0  0
   66.6073   74.6700   91.3336 C   0  0  0  0  0  0  0  0  0  0  0  0
   66.4929   75.8072   90.5462 C   0  0  0  0  0  0  0  0  0  0  0  0
   63.9497   74.3298   89.9349 O   0  0  0  0  0  0  0  0  0  0  0  0
   61.5483   74.3086   90.2693 C   0  0  0  0  0  0  0  0  0  0  0  0
   62.9226   74.5248   90.8632 C   0  0  0  0  0  0  0  0  0  0  0  0
   62.9378   75.8566   91.5368 C   0  0  0  0  0  0  0  0  0  0  0  0
   63.0929   73.4545   91.9418 C   0  0  0  0  0  0  0  0  0  0  0  0
   71.4167   81.0364   88.2519 C   0  0  0  0  0  0  0  0  0  0  0  0
   72.4362   80.7019   89.1483 O   0  0  0  0  0  0  0  0  0  0  0  0
   73.7849   80.7516   88.8518 C   0  0  0  0  0  0  0  0  0  0  0  0
   74.4374   81.9341   88.6080 C   0  0  0  0  0  0  0  0  0  0  0  0
   75.8018   81.9062   88.3150 C   0  0  0  0  0  0  0  0  0  0  0  0
   76.5247   80.7354   88.2601 C   0  0  0  0  0  0  0  0  0  0  0  0
   77.8872   80.7080   87.9676 O   0  0  0  0  0  0  0  0  0  0  0  0
   75.8418   79.5537   88.5106 C   0  0  0  0  0  0  0  0  0  0  0  0
   74.4986   79.5820   88.7989 C   0  0  0  0  0  0  0  0  0  0  0  0
   78.3463   81.5072   87.7988 H   0  0  0  0  0  0  0  0  0  0  0  0
   76.5775   78.3012   88.4608 C   0  0  0  0  0  0  0  0  0  0  0  0
   76.3772   77.4841   87.5151 O   0  0  0  0  0  0  0  0  0  0  0  0
   77.5097   77.9342   89.4079 O   0  0  0  0  0  0  0  0  0  0  0  0
   77.6948   78.5039   90.1284 H   0  0  0  0  0  0  0  0  0  0  0  0
 19 20  1  0  0  0
 20 21  1  0  0  0
 20 22  1  0  0  0
 20 18  1  0  0  0
 18  7  1  0  0  0
  7  8  2  0  0  0
  7  9  1  0  0  0
  9 10  1  0  0  0
 10 11  1  0  0  0
 11  1  1  0  0  0
  1  2  2  0  0  0
  2  3  2  0  0  0
  3  4  2  0  0  0
  4 23  1  0  0  0
 23 24  1  0  0  0
 24 25  1  0  0  0
 25 26  2  0  0  0
 26 27  1  0  0  0
 27 28  2  0  0  0
 28 29  1  0  0  0
 28 30  1  0  0  0
 30 33  1  0  0  0
 33 34  2  0  0  0
 33 35  1  0  0  0
 30 31  2  0  0  0
  4  5  1  0  0  0
  5  6  2  0  0  0
 11 12  1  0  0  0
 12 13  2  0  0  0
 13 14  1  0  0  0
 14 15  2  0  0  0
 15 16  1  0  0  0
 16 17  2  0  0  0
 17  9  1  0  0  0
  6  1  2  0  0  0
 17 12  1  0  0  0
 31 25  1  0  0  0
 29 32  1  0  0  0
 35 36  1  0  0  0
M  END
> <Activity>
8.1

> <minimizedAffinity>
-7.61071

$$$$
HIPS7116


 36 39  0  0  0  0  0  0  0  0999 V2000
   70.1826   79.9195   88.5513 C   0  0  0  0  0  0  0  0  0  0  0  0
   69.1322   79.9165   87.7145 N   0  0  0  0  0  0  0  0  0  0  0  0
   67.9764   79.3042   87.9704 C   0  0  0  0  0  0  0  0  0  0  0  0
   67.8542   78.6285   89.1781 C   0  0  0  0  0  0  0  0  0  0  0  0
   68.9268   78.6204   90.0543 C   0  0  0  0  0  0  0  0  0  0  0  0
   70.0629   79.2711   89.7082 N   0  0  0  0  0  0  0  0  0  0  0  0
   73.8377   83.2506   88.7568 C   0  0  0  0  0  0  0  0  0  0  0  0
   73.2996   84.3856   88.8051 O   0  0  0  0  0  0  0  0  0  0  0  0
   73.0892   82.0465   88.8307 N   0  0  0  0  0  0  0  0  0  0  0  0
   71.6612   81.8705   88.9682 C   0  0  0  0  0  0  0  0  0  0  0  0
   71.4136   80.6360   88.1515 C   0  0  0  0  0  0  0  0  0  0  0  0
   72.6349   79.8401   88.3838 C   0  0  0  0  0  0  0  0  0  0  0  0
   72.9307   78.4906   88.2730 C   0  0  0  0  0  0  0  0  0  0  0  0
   74.2039   78.0680   88.5698 C   0  0  0  0  0  0  0  0  0  0  0  0
   75.1937   78.9378   88.9727 C   0  0  0  0  0  0  0  0  0  0  0  0
   74.8968   80.2769   89.0816 C   0  0  0  0  0  0  0  0  0  0  0  0
   73.6145   80.7177   88.7849 C   0  0  0  0  0  0  0  0  0  0  0  0
   75.2287   83.2462   88.6249 O   0  0  0  0  0  0  0  0  0  0  0  0
   76.8909   84.9984   88.4106 C   0  0  0  0  0  0  0  0  0  0  0  0
   75.9167   84.0659   87.7253 C   0  0  0  0  0  0  0  0  0  0  0  0
   75.0416   84.8781   86.8297 C   0  0  0  0  0  0  0  0  0  0  0  0
   76.7593   83.1440   86.8432 C   0  0  0  0  0  0  0  0  0  0  0  0
   66.5802   77.9242   89.5129 C   0  0  0  0  0  0  0  0  0  0  0  0
   66.8763   76.5603   89.5952 O   0  0  0  0  0  0  0  0  0  0  0  0
   66.0131   75.6016   90.0905 C   0  0  0  0  0  0  0  0  0  0  0  0
   66.4081   74.6709   91.0185 C   0  0  0  0  0  0  0  0  0  0  0  0
   65.4801   73.7326   91.4732 C   0  0  0  0  0  0  0  0  0  0  0  0
   64.1775   73.7017   91.0273 C   0  0  0  0  0  0  0  0  0  0  0  0
   63.2511   72.7646   91.4817 O   0  0  0  0  0  0  0  0  0  0  0  0
   63.8034   74.6535   90.0894 C   0  0  0  0  0  0  0  0  0  0  0  0
   64.7176   75.5767   89.6422 C   0  0  0  0  0  0  0  0  0  0  0  0
   63.5060   72.1229   92.1151 H   0  0  0  0  0  0  0  0  0  0  0  0
   62.4349   74.6471   89.5997 C   0  0  0  0  0  0  0  0  0  0  0  0
   62.2020   74.4750   88.3676 O   0  0  0  0  0  0  0  0  0  0  0  0
   61.3389   74.8221   90.4176 O   0  0  0  0  0  0  0  0  0  0  0  0
   61.4573   74.9533   91.3378 H   0  0  0  0  0  0  0  0  0  0  0  0
 19 20  1  0  0  0
 20 21  1  0  0  0
 20 22  1  0  0  0
 20 18  1  0  0  0
 18  7  1  0  0  0
  7  8  2  0  0  0
  7  9  1  0  0  0
  9 10  1  0  0  0
 10 11  1  0  0  0
 11  1  1  0  0  0
  1  2  2  0  0  0
  2  3  2  0  0  0
  3  4  2  0  0  0
  4 23  1  0  0  0
 23 24  1  0  0  0
 24 25  1  0  0  0
 25 26  2  0  0  0
 26 27  1  0  0  0
 27 28  2  0  0  0
 28 29  1  0  0  0
 28 30  1  0  0  0
 30 33  1  0  0  0
 33 34  2  0  0  0
 33 35  1  0  0  0
 30 31  2  0  0  0
  4  5  1  0  0  0
  5  6  2  0  0  0
 11 12  1  0  0  0
 12 13  2  0  0  0
 13 14  1  0  0  0
 14 15  2  0  0  0
 15 16  1  0  0  0
 16 17  2  0  0  0
 17  9  1  0  0  0
  6  1  2  0  0  0
 17 12  1  0  0  0
 31 25  1  0  0  0
 29 32  1  0  0  0
 35 36  1  0  0  0
M  END
> <Activity>
8.1

> <minimizedAffinity>
-7.49125

$$$$
HIPS7116


 36 39  0  0  0  0  0  0  0  0999 V2000
   68.9527   76.7530   90.5302 C   0  0  0  0  0  0  0  0  0  0  0  0
   68.4594   76.5885   91.7685 N   0  0  0  0  0  0  0  0  0  0  0  0
   67.6690   75.5776   92.1284 C   0  0  0  0  0  0  0  0  0  0  0  0
   67.3371   74.6379   91.1605 C   0  0  0  0  0  0  0  0  0  0  0  0
   67.8362   74.7905   89.8776 C   0  0  0  0  0  0  0  0  0  0  0  0
   68.6329   75.8510   89.6043 N   0  0  0  0  0  0  0  0  0  0  0  0
   72.8511   79.2870   88.8333 C   0  0  0  0  0  0  0  0  0  0  0  0
   73.8790   78.7501   89.3181 O   0  0  0  0  0  0  0  0  0  0  0  0
   71.5528   78.7352   88.9939 N   0  0  0  0  0  0  0  0  0  0  0  0
   71.1557   77.5328   89.6906 C   0  0  0  0  0  0  0  0  0  0  0  0
   69.8199   77.9195   90.2548 C   0  0  0  0  0  0  0  0  0  0  0  0
   69.2675   78.8037   89.2098 C   0  0  0  0  0  0  0  0  0  0  0  0
   67.9822   79.2019   88.8772 C   0  0  0  0  0  0  0  0  0  0  0  0
   67.8112   80.0615   87.8192 C   0  0  0  0  0  0  0  0  0  0  0  0
   68.8709   80.5398   87.0797 C   0  0  0  0  0  0  0  0  0  0  0  0
   70.1456   80.1427   87.4126 C   0  0  0  0  0  0  0  0  0  0  0  0
   70.3330   79.2744   88.4792 C   0  0  0  0  0  0  0  0  0  0  0  0
   73.0656   80.4697   88.1209 O   0  0  0  0  0  0  0  0  0  0  0  0
   74.3522   82.5093   87.8682 C   0  0  0  0  0  0  0  0  0  0  0  0
   73.4275   81.6760   88.7278 C   0  0  0  0  0  0  0  0  0  0  0  0
   74.0464   81.5317   90.0782 C   0  0  0  0  0  0  0  0  0  0  0  0
   72.1445   82.4924   88.8875 C   0  0  0  0  0  0  0  0  0  0  0  0
   66.4528   73.4863   91.5115 C   0  0  0  0  0  0  0  0  0  0  0  0
   65.1980   74.0156   91.8277 O   0  0  0  0  0  0  0  0  0  0  0  0
   64.4416   74.7964   90.9747 C   0  0  0  0  0  0  0  0  0  0  0  0
   64.5715   76.1617   90.9240 C   0  0  0  0  0  0  0  0  0  0  0  0
   63.7730   76.8850   90.0366 C   0  0  0  0  0  0  0  0  0  0  0  0
   62.8553   76.2826   89.2051 C   0  0  0  0  0  0  0  0  0  0  0  0
   62.0581   77.0052   88.3190 O   0  0  0  0  0  0  0  0  0  0  0  0
   62.7434   74.9013   89.2755 C   0  0  0  0  0  0  0  0  0  0  0  0
   63.5298   74.1900   90.1495 C   0  0  0  0  0  0  0  0  0  0  0  0
   62.1354   77.9379   88.2732 H   0  0  0  0  0  0  0  0  0  0  0  0
   61.7839   74.2361   88.4098 C   0  0  0  0  0  0  0  0  0  0  0  0
   60.5473   74.4786   88.5279 O   0  0  0  0  0  0  0  0  0  0  0  0
   62.1460   73.3288   87.4370 O   0  0  0  0  0  0  0  0  0  0  0  0
   63.0492   73.1145   87.3091 H   0  0  0  0  0  0  0  0  0  0  0  0
 19 20  1  0  0  0
 20 21  1  0  0  0
 20 22  1  0  0  0
 20 18  1  0  0  0
 18  7  1  0  0  0
  7  8  2  0  0  0
  7  9  1  0  0  0
  9 10  1  0  0  0
 10 11  1  0  0  0
 11  1  1  0  0  0
  1  2  2  0  0  0
  2  3  2  0  0  0
  3  4  2  0  0  0
  4 23  1  0  0  0
 23 24  1  0  0  0
 24 25  1  0  0  0
 25 26  2  0  0  0
 26 27  1  0  0  0
 27 28  2  0  0  0
 28 29  1  0  0  0
 28 30  1  0  0  0
 30 33  1  0  0  0
 33 34  2  0  0  0
 33 35  1  0  0  0
 30 31  2  0  0  0
  4  5  1  0  0  0
  5  6  2  0  0  0
 11 12  1  0  0  0
 12 13  2  0  0  0
 13 14  1  0  0  0
 14 15  2  0  0  0
 15 16  1  0  0  0
 16 17  2  0  0  0
 17  9  1  0  0  0
  6  1  2  0  0  0
 17 12  1  0  0  0
 31 25  1  0  0  0
 29 32  1  0  0  0
 35 36  1  0  0  0
M  END
> <Activity>
8.1

> <minimizedAffinity>
-7.43933

$$$$
HIPS7116


 36 39  0  0  0  0  0  0  0  0999 V2000
   69.5789   76.9550   90.4553 C   0  0  0  0  0  0  0  0  0  0  0  0
   69.2642   76.6182   91.7167 N   0  0  0  0  0  0  0  0  0  0  0  0
   68.5620   75.5344   92.0464 C   0  0  0  0  0  0  0  0  0  0  0  0
   68.1307   74.7042   91.0193 C   0  0  0  0  0  0  0  0  0  0  0  0
   68.4455   75.0349   89.7118 C   0  0  0  0  0  0  0  0  0  0  0  0
   69.1643   76.1576   89.4727 N   0  0  0  0  0  0  0  0  0  0  0  0
   73.2895   79.8041   88.8391 C   0  0  0  0  0  0  0  0  0  0  0  0
   74.3534   79.3221   89.3035 O   0  0  0  0  0  0  0  0  0  0  0  0
   72.0323   79.1602   88.9829 N   0  0  0  0  0  0  0  0  0  0  0  0
   71.7206   77.9106   89.6390 C   0  0  0  0  0  0  0  0  0  0  0  0
   70.3638   78.1863   90.2183 C   0  0  0  0  0  0  0  0  0  0  0  0
   69.7485   79.0659   89.2051 C   0  0  0  0  0  0  0  0  0  0  0  0
   68.4378   79.3869   88.8884 C   0  0  0  0  0  0  0  0  0  0  0  0
   68.2047   80.2683   87.8606 C   0  0  0  0  0  0  0  0  0  0  0  0
   69.2264   80.8423   87.1361 C   0  0  0  0  0  0  0  0  0  0  0  0
   70.5265   80.5216   87.4530 C   0  0  0  0  0  0  0  0  0  0  0  0
   70.7766   79.6324   88.4891 C   0  0  0  0  0  0  0  0  0  0  0  0
   73.4205   81.0220   88.1670 O   0  0  0  0  0  0  0  0  0  0  0  0
   75.5282   82.2197   88.2115 C   0  0  0  0  0  0  0  0  0  0  0  0
   74.0994   82.1225   88.6986 C   0  0  0  0  0  0  0  0  0  0  0  0
   74.1071   82.1874   90.1897 C   0  0  0  0  0  0  0  0  0  0  0  0
   73.3876   83.3729   88.1810 C   0  0  0  0  0  0  0  0  0  0  0  0
   67.3387   73.4776   91.3347 C   0  0  0  0  0  0  0  0  0  0  0  0
   66.2473   73.8832   92.1088 O   0  0  0  0  0  0  0  0  0  0  0  0
   64.9752   74.0983   91.6141 C   0  0  0  0  0  0  0  0  0  0  0  0
   63.9552   73.1997   91.8026 C   0  0  0  0  0  0  0  0  0  0  0  0
   62.6955   73.4849   91.2734 C   0  0  0  0  0  0  0  0  0  0  0  0
   62.4318   74.6368   90.5663 C   0  0  0  0  0  0  0  0  0  0  0  0
   61.1737   74.9213   90.0380 O   0  0  0  0  0  0  0  0  0  0  0  0
   63.4798   75.5291   90.3897 C   0  0  0  0  0  0  0  0  0  0  0  0
   64.7196   75.2474   90.9109 C   0  0  0  0  0  0  0  0  0  0  0  0
   60.4675   74.3174   90.1585 H   0  0  0  0  0  0  0  0  0  0  0  0
   63.2327   76.7544   89.6482 C   0  0  0  0  0  0  0  0  0  0  0  0
   63.7950   77.8329   89.9982 O   0  0  0  0  0  0  0  0  0  0  0  0
   62.3982   76.8194   88.5527 O   0  0  0  0  0  0  0  0  0  0  0  0
   61.9577   76.0486   88.2529 H   0  0  0  0  0  0  0  0  0  0  0  0
 19 20  1  0  0  0
 20 21  1  0  0  0
 20 22  1  0  0  0
 20 18  1  0  0  0
 18  7  1  0  0  0
  7  8  2  0  0  0
  7  9  1  0  0  0
  9 10  1  0  0  0
 10 11  1  0  0  0
 11  1  1  0  0  0
  1  2  2  0  0  0
  2  3  2  0  0  0
  3  4  2  0  0  0
  4 23  1  0  0  0
 23 24  1  0  0  0
 24 25  1  0  0  0
 25 26  2  0  0  0
 26 27  1  0  0  0
 27 28  2  0  0  0
 28 29  1  0  0  0
 28 30  1  0  0  0
 30 33  1  0  0  0
 33 34  2  0  0  0
 33 35  1  0  0  0
 30 31  2  0  0  0
  4  5  1  0  0  0
  5  6  2  0  0  0
 11 12  1  0  0  0
 12 13  2  0  0  0
 13 14  1  0  0  0
 14 15  2  0  0  0
 15 16  1  0  0  0
 16 17  2  0  0  0
 17  9  1  0  0  0
  6  1  2  0  0  0
 17 12  1  0  0  0
 31 25  1  0  0  0
 29 32  1  0  0  0
 35 36  1  0  0  0
M  END
> <Activity>
8.1

> <minimizedAffinity>
-7.43170

$$$$
HIPS7116


 36 39  0  0  0  0  0  0  0  0999 V2000
   68.7765   77.9349   90.8815 C   0  0  0  0  0  0  0  0  0  0  0  0
   68.7024   79.2758   90.8623 N   0  0  0  0  0  0  0  0  0  0  0  0
   69.5825   80.0628   90.2441 C   0  0  0  0  0  0  0  0  0  0  0  0
   70.6405   79.4553   89.5794 C   0  0  0  0  0  0  0  0  0  0  0  0
   70.7339   78.0735   89.5879 C   0  0  0  0  0  0  0  0  0  0  0  0
   69.7916   77.3552   90.2437 N   0  0  0  0  0  0  0  0  0  0  0  0
   64.5768   75.4120   91.5853 C   0  0  0  0  0  0  0  0  0  0  0  0
   63.6358   76.1445   91.1876 O   0  0  0  0  0  0  0  0  0  0  0  0
   65.9421   75.7574   91.4057 N   0  0  0  0  0  0  0  0  0  0  0  0
   66.5086   76.9291   90.7769 C   0  0  0  0  0  0  0  0  0  0  0  0
   67.7365   77.1713   91.6051 C   0  0  0  0  0  0  0  0  0  0  0  0
   68.1727   75.8040   91.9502 C   0  0  0  0  0  0  0  0  0  0  0  0
   69.3845   75.2594   92.3454 C   0  0  0  0  0  0  0  0  0  0  0  0
   69.4497   73.9107   92.5994 C   0  0  0  0  0  0  0  0  0  0  0  0
   68.3548   73.0837   92.4752 C   0  0  0  0  0  0  0  0  0  0  0  0
   67.1532   73.6275   92.0828 C   0  0  0  0  0  0  0  0  0  0  0  0
   67.0729   74.9886   91.8228 C   0  0  0  0  0  0  0  0  0  0  0  0
   64.1941   74.2275   92.2198 O   0  0  0  0  0  0  0  0  0  0  0  0
   64.1857   71.9892   91.2877 C   0  0  0  0  0  0  0  0  0  0  0  0
   63.4086   73.2474   91.6059 C   0  0  0  0  0  0  0  0  0  0  0  0
   62.7135   73.6957   90.3635 C   0  0  0  0  0  0  0  0  0  0  0  0
   62.3376   72.8411   92.6188 C   0  0  0  0  0  0  0  0  0  0  0  0
   71.6557   80.2921   88.8720 C   0  0  0  0  0  0  0  0  0  0  0  0
   70.9560   81.1459   88.0140 O   0  0  0  0  0  0  0  0  0  0  0  0
   69.8003   80.8009   87.3397 C   0  0  0  0  0  0  0  0  0  0  0  0
   69.1426   81.6811   86.5174 C   0  0  0  0  0  0  0  0  0  0  0  0
   67.9802   81.2615   85.8686 C   0  0  0  0  0  0  0  0  0  0  0  0
   67.4628   79.9942   86.0198 C   0  0  0  0  0  0  0  0  0  0  0  0
   66.3020   79.5756   85.3717 O   0  0  0  0  0  0  0  0  0  0  0  0
   68.1466   79.1235   86.8565 C   0  0  0  0  0  0  0  0  0  0  0  0
   69.2908   79.5374   87.4949 C   0  0  0  0  0  0  0  0  0  0  0  0
   65.8419   80.1652   84.8073 H   0  0  0  0  0  0  0  0  0  0  0  0
   67.6258   77.7785   87.0360 C   0  0  0  0  0  0  0  0  0  0  0  0
   68.4115   76.8244   87.3085 O   0  0  0  0  0  0  0  0  0  0  0  0
   66.2878   77.4652   86.9250 O   0  0  0  0  0  0  0  0  0  0  0  0
   65.6647   78.1357   86.7246 H   0  0  0  0  0  0  0  0  0  0  0  0
 19 20  1  0  0  0
 20 21  1  0  0  0
 20 22  1  0  0  0
 20 18  1  0  0  0
 18  7  1  0  0  0
  7  8  2  0  0  0
  7  9  1  0  0  0
  9 10  1  0  0  0
 10 11  1  0  0  0
 11  1  1  0  0  0
  1  2  2  0  0  0
  2  3  2  0  0  0
  3  4  2  0  0  0
  4 23  1  0  0  0
 23 24  1  0  0  0
 24 25  1  0  0  0
 25 26  2  0  0  0
 26 27  1  0  0  0
 27 28  2  0  0  0
 28 29  1  0  0  0
 28 30  1  0  0  0
 30 33  1  0  0  0
 33 34  2  0  0  0
 33 35  1  0  0  0
 30 31  2  0  0  0
  4  5  1  0  0  0
  5  6  2  0  0  0
 11 12  1  0  0  0
 12 13  2  0  0  0
 13 14  1  0  0  0
 14 15  2  0  0  0
 15 16  1  0  0  0
 16 17  2  0  0  0
 17  9  1  0  0  0
  6  1  2  0  0  0
 17 12  1  0  0  0
 31 25  1  0  0  0
 29 32  1  0  0  0
 35 36  1  0  0  0
M  END
> <Activity>
8.1

> <minimizedAffinity>
-7.42179

$$$$
HIPS7116


 36 39  0  0  0  0  0  0  0  0999 V2000
   68.3487   79.5327   94.0546 C   0  0  0  0  0  0  0  0  0  0  0  0
   69.4123   78.7465   94.2880 N   0  0  0  0  0  0  0  0  0  0  0  0
   69.5825   77.5413   93.7452 C   0  0  0  0  0  0  0  0  0  0  0  0
   68.5972   77.0725   92.8853 C   0  0  0  0  0  0  0  0  0  0  0  0
   67.4927   77.8690   92.6321 C   0  0  0  0  0  0  0  0  0  0  0  0
   67.4057   79.0810   93.2300 N   0  0  0  0  0  0  0  0  0  0  0  0
   66.5388   83.9772   95.2664 C   0  0  0  0  0  0  0  0  0  0  0  0
   66.3611   84.6077   94.1936 O   0  0  0  0  0  0  0  0  0  0  0  0
   66.9186   82.6095   95.2948 N   0  0  0  0  0  0  0  0  0  0  0  0
   67.1638   81.7107   94.1897 C   0  0  0  0  0  0  0  0  0  0  0  0
   68.2747   80.8520   94.7197 C   0  0  0  0  0  0  0  0  0  0  0  0
   67.9496   80.7467   96.1557 C   0  0  0  0  0  0  0  0  0  0  0  0
   68.2921   79.8421   97.1485 C   0  0  0  0  0  0  0  0  0  0  0  0
   67.8090   80.0431   98.4189 C   0  0  0  0  0  0  0  0  0  0  0  0
   66.9980   81.1102   98.7385 C   0  0  0  0  0  0  0  0  0  0  0  0
   66.6600   82.0065   97.7507 C   0  0  0  0  0  0  0  0  0  0  0  0
   67.1410   81.8156   96.4627 C   0  0  0  0  0  0  0  0  0  0  0  0
   66.3380   84.7103   96.4388 O   0  0  0  0  0  0  0  0  0  0  0  0
   65.0526   85.5464   98.3170 C   0  0  0  0  0  0  0  0  0  0  0  0
   65.0829   85.1660   96.8532 C   0  0  0  0  0  0  0  0  0  0  0  0
   63.9598   84.2185   96.5919 C   0  0  0  0  0  0  0  0  0  0  0  0
   64.8002   86.4509   96.0740 C   0  0  0  0  0  0  0  0  0  0  0  0
   68.7387   75.7272   92.2517 C   0  0  0  0  0  0  0  0  0  0  0  0
   69.3873   75.9176   91.0279 O   0  0  0  0  0  0  0  0  0  0  0  0
   68.7559   76.3000   89.8598 C   0  0  0  0  0  0  0  0  0  0  0  0
   68.0718   75.4083   89.0722 C   0  0  0  0  0  0  0  0  0  0  0  0
   67.4584   75.8677   87.9056 C   0  0  0  0  0  0  0  0  0  0  0  0
   67.5111   77.1857   87.5097 C   0  0  0  0  0  0  0  0  0  0  0  0
   66.8984   77.6441   86.3447 O   0  0  0  0  0  0  0  0  0  0  0  0
   68.2087   78.0670   88.3234 C   0  0  0  0  0  0  0  0  0  0  0  0
   68.8124   77.6139   89.4717 C   0  0  0  0  0  0  0  0  0  0  0  0
   66.4278   77.0472   85.7968 H   0  0  0  0  0  0  0  0  0  0  0  0
   68.2818   79.4651   87.9328 C   0  0  0  0  0  0  0  0  0  0  0  0
   69.3814   80.0878   88.0040 O   0  0  0  0  0  0  0  0  0  0  0  0
   67.1952   80.1794   87.4748 O   0  0  0  0  0  0  0  0  0  0  0  0
   66.3581   79.7645   87.4033 H   0  0  0  0  0  0  0  0  0  0  0  0
 19 20  1  0  0  0
 20 21  1  0  0  0
 20 22  1  0  0  0
 20 18  1  0  0  0
 18  7  1  0  0  0
  7  8  2  0  0  0
  7  9  1  0  0  0
  9 10  1  0  0  0
 10 11  1  0  0  0
 11  1  1  0  0  0
  1  2  2  0  0  0
  2  3  2  0  0  0
  3  4  2  0  0  0
  4 23  1  0  0  0
 23 24  1  0  0  0
 24 25  1  0  0  0
 25 26  2  0  0  0
 26 27  1  0  0  0
 27 28  2  0  0  0
 28 29  1  0  0  0
 28 30  1  0  0  0
 30 33  1  0  0  0
 33 34  2  0  0  0
 33 35  1  0  0  0
 30 31  2  0  0  0
  4  5  1  0  0  0
  5  6  2  0  0  0
 11 12  1  0  0  0
 12 13  2  0  0  0
 13 14  1  0  0  0
 14 15  2  0  0  0
 15 16  1  0  0  0
 16 17  2  0  0  0
 17  9  1  0  0  0
  6  1  2  0  0  0
 17 12  1  0  0  0
 31 25  1  0  0  0
 29 32  1  0  0  0
 35 36  1  0  0  0
M  END
> <Activity>
8.1

> <minimizedAffinity>
-7.41421

$$$$
HIPS7116


 36 39  0  0  0  0  0  0  0  0999 V2000
   71.5472   78.9508   88.9439 C   0  0  0  0  0  0  0  0  0  0  0  0
   70.2466   79.2833   88.9838 N   0  0  0  0  0  0  0  0  0  0  0  0
   69.2877   78.4885   89.4580 C   0  0  0  0  0  0  0  0  0  0  0  0
   69.6600   77.2399   89.9401 C   0  0  0  0  0  0  0  0  0  0  0  0
   70.9967   76.8790   89.9074 C   0  0  0  0  0  0  0  0  0  0  0  0
   71.9014   77.7535   89.4066 N   0  0  0  0  0  0  0  0  0  0  0  0
   74.3224   83.0413   88.6887 C   0  0  0  0  0  0  0  0  0  0  0  0
   73.5453   84.0219   88.8097 O   0  0  0  0  0  0  0  0  0  0  0  0
   73.8902   81.6990   88.8543 N   0  0  0  0  0  0  0  0  0  0  0  0
   72.5714   81.2013   89.1737 C   0  0  0  0  0  0  0  0  0  0  0  0
   72.5172   79.9217   88.3915 C   0  0  0  0  0  0  0  0  0  0  0  0
   73.9094   79.4363   88.4620 C   0  0  0  0  0  0  0  0  0  0  0  0
   74.4949   78.1893   88.3095 C   0  0  0  0  0  0  0  0  0  0  0  0
   75.8584   78.0808   88.4386 C   0  0  0  0  0  0  0  0  0  0  0  0
   76.6612   79.1663   88.7137 C   0  0  0  0  0  0  0  0  0  0  0  0
   76.0769   80.4029   88.8645 C   0  0  0  0  0  0  0  0  0  0  0  0
   74.7003   80.5271   88.7367 C   0  0  0  0  0  0  0  0  0  0  0  0
   75.6482   83.3551   88.3790 O   0  0  0  0  0  0  0  0  0  0  0  0
   77.2027   85.0590   87.6309 C   0  0  0  0  0  0  0  0  0  0  0  0
   76.0116   84.1826   87.3122 C   0  0  0  0  0  0  0  0  0  0  0  0
   74.9135   85.0530   86.7983 C   0  0  0  0  0  0  0  0  0  0  0  0
   76.4520   83.2647   86.1714 C   0  0  0  0  0  0  0  0  0  0  0  0
   68.6237   76.3100   90.4810 C   0  0  0  0  0  0  0  0  0  0  0  0
   67.5444   77.0965   90.8949 O   0  0  0  0  0  0  0  0  0  0  0  0
   66.2182   76.7248   90.7832 C   0  0  0  0  0  0  0  0  0  0  0  0
   65.2691   77.5542   90.2404 C   0  0  0  0  0  0  0  0  0  0  0  0
   63.9483   77.1100   90.1602 C   0  0  0  0  0  0  0  0  0  0  0  0
   63.5555   75.8674   90.6053 C   0  0  0  0  0  0  0  0  0  0  0  0
   62.2364   75.4242   90.5250 O   0  0  0  0  0  0  0  0  0  0  0  0
   64.5341   75.0480   91.1497 C   0  0  0  0  0  0  0  0  0  0  0  0
   65.8341   75.4861   91.2284 C   0  0  0  0  0  0  0  0  0  0  0  0
   61.5773   75.9793   90.1570 H   0  0  0  0  0  0  0  0  0  0  0  0
   64.1508   73.7300   91.6279 C   0  0  0  0  0  0  0  0  0  0  0  0
   64.7171   72.6970   91.1649 O   0  0  0  0  0  0  0  0  0  0  0  0
   63.1789   73.5263   92.5841 O   0  0  0  0  0  0  0  0  0  0  0  0
   62.7295   74.2582   92.9587 H   0  0  0  0  0  0  0  0  0  0  0  0
 19 20  1  0  0  0
 20 21  1  0  0  0
 20 22  1  0  0  0
 20 18  1  0  0  0
 18  7  1  0  0  0
  7  8  2  0  0  0
  7  9  1  0  0  0
  9 10  1  0  0  0
 10 11  1  0  0  0
 11  1  1  0  0  0
  1  2  2  0  0  0
  2  3  2  0  0  0
  3  4  2  0  0  0
  4 23  1  0  0  0
 23 24  1  0  0  0
 24 25  1  0  0  0
 25 26  2  0  0  0
 26 27  1  0  0  0
 27 28  2  0  0  0
 28 29  1  0  0  0
 28 30  1  0  0  0
 30 33  1  0  0  0
 33 34  2  0  0  0
 33 35  1  0  0  0
 30 31  2  0  0  0
  4  5  1  0  0  0
  5  6  2  0  0  0
 11 12  1  0  0  0
 12 13  2  0  0  0
 13 14  1  0  0  0
 14 15  2  0  0  0
 15 16  1  0  0  0
 16 17  2  0  0  0
 17  9  1  0  0  0
  6  1  2  0  0  0
 17 12  1  0  0  0
 31 25  1  0  0  0
 29 32  1  0  0  0
 35 36  1  0  0  0
M  END
> <Activity>
8.1

> <minimizedAffinity>
-7.14720

$$$$
HIPS6566


 32 33  0  0  0  0  0  0  0  0999 V2000
   65.5939   76.5742   89.7966 C   0  0  0  0  0  0  0  0  0  0  0  0
   64.4552   77.3359   90.1155 C   0  0  0  0  0  0  0  0  0  0  0  0
   63.4037   76.7654   90.8378 C   0  0  0  0  0  0  0  0  0  0  0  0
   63.4753   75.4315   91.2501 C   0  0  0  0  0  0  0  0  0  0  0  0
   64.5973   74.6525   90.9308 C   0  0  0  0  0  0  0  0  0  0  0  0
   65.6581   75.2308   90.2141 C   0  0  0  0  0  0  0  0  0  0  0  0
   68.7231   78.5784   88.9687 C   0  0  0  0  0  0  0  0  0  0  0  0
   68.8376   78.3197   87.5941 C   0  0  0  0  0  0  0  0  0  0  0  0
   67.9127   77.4987   86.9458 C   0  0  0  0  0  0  0  0  0  0  0  0
   66.8596   76.9282   87.6615 C   0  0  0  0  0  0  0  0  0  0  0  0
   66.7156   77.1799   89.0363 C   0  0  0  0  0  0  0  0  0  0  0  0
   67.6513   78.0081   89.6830 C   0  0  0  0  0  0  0  0  0  0  0  0
   69.7051   79.4185   89.6035 N   0  0  0  0  0  0  0  0  0  0  0  0
   70.0175   79.1585   90.5001 H   0  0  0  0  0  0  0  0  0  0  0  0
   70.3786   80.8576   88.9015 S   0  0  0  0  0  0  0  0  0  0  0  0
   70.3493   81.9538   89.9307 O   0  0  0  0  0  0  0  0  0  0  0  0
   69.5475   81.2873   87.7261 O   0  0  0  0  0  0  0  0  0  0  0  0
   72.9669   81.7258   88.8391 C   0  0  0  0  0  0  0  0  0  0  0  0
   72.0740   80.5645   88.3975 C   0  0  0  0  0  0  0  0  0  0  0  0
   72.5769   79.2402   88.9810 C   0  0  0  0  0  0  0  0  0  0  0  0
   64.6971   73.2386   91.4239 C   0  0  0  0  0  0  0  0  0  0  0  0
   66.0411   72.7871   91.2740 O   0  0  0  0  0  0  0  0  0  0  0  0
   67.1805   73.5944   91.4114 C   0  0  0  0  0  0  0  0  0  0  0  0
   67.7393   73.8855   92.5966 C   0  0  0  0  0  0  0  0  0  0  0  0
   68.9535   74.7308   92.7267 C   0  0  0  0  0  0  0  0  0  0  0  0
   68.8009   76.0028   93.1397 C   0  0  0  0  0  0  0  0  0  0  0  0
   69.8473   76.9235   93.2058 O   0  0  0  0  0  0  0  0  0  0  0  0
   70.7130   76.6676   92.9548 H   0  0  0  0  0  0  0  0  0  0  0  0
   70.2852   74.1836   92.3844 C   0  0  0  0  0  0  0  0  0  0  0  0
   70.9755   74.7303   91.4826 O   0  0  0  0  0  0  0  0  0  0  0  0
   70.7643   73.0439   93.0235 O   0  0  0  0  0  0  0  0  0  0  0  0
   70.2548   72.6339   93.6945 H   0  0  0  0  0  0  0  0  0  0  0  0
 18 19  1  0  0  0
 19 20  1  0  0  0
 19 15  1  0  0  0
 15 16  2  0  0  0
 15 17  2  0  0  0
 15 13  1  0  0  0
 13  7  1  0  0  0
  7  8  2  0  0  0
  8  9  1  0  0  0
  9 10  2  0  0  0
 10 11  1  0  0  0
 11  1  1  0  0  0
  1  2  2  0  0  0
  2  3  1  0  0  0
  3  4  2  0  0  0
  4  5  1  0  0  0
  5 21  1  0  0  0
 21 22  1  0  0  0
 22 23  1  0  0  0
 23 24  2  0  0  0
 24 25  1  0  0  0
 25 26  2  0  0  0
 26 27  1  0  0  0
 25 29  1  0  0  0
 29 30  2  0  0  0
 29 31  1  0  0  0
  5  6  2  0  0  0
 11 12  2  0  0  0
 12  7  1  0  0  0
  6  1  1  0  0  0
 13 14  1  0  0  0
 27 28  1  0  0  0
 31 32  1  0  0  0
M  END
> <Activity>
8.6

> <minimizedAffinity>
-9.09639

$$$$
HIPS6566


 32 33  0  0  0  0  0  0  0  0999 V2000
   70.5669   77.1111   90.3589 C   0  0  0  0  0  0  0  0  0  0  0  0
   71.4376   76.0142   90.4907 C   0  0  0  0  0  0  0  0  0  0  0  0
   71.0513   74.8906   91.2264 C   0  0  0  0  0  0  0  0  0  0  0  0
   69.7947   74.8475   91.8377 C   0  0  0  0  0  0  0  0  0  0  0  0
   68.9177   75.9367   91.7277 C   0  0  0  0  0  0  0  0  0  0  0  0
   69.3033   77.0608   90.9787 C   0  0  0  0  0  0  0  0  0  0  0  0
   70.3790   80.3179   88.3156 C   0  0  0  0  0  0  0  0  0  0  0  0
   71.7429   80.5567   88.0863 C   0  0  0  0  0  0  0  0  0  0  0  0
   72.7117   79.6894   88.5953 C   0  0  0  0  0  0  0  0  0  0  0  0
   72.3306   78.5707   89.3369 C   0  0  0  0  0  0  0  0  0  0  0  0
   70.9715   78.3025   89.5715 C   0  0  0  0  0  0  0  0  0  0  0  0
   70.0007   79.1807   89.0558 C   0  0  0  0  0  0  0  0  0  0  0  0
   69.4113   81.2435   87.7863 N   0  0  0  0  0  0  0  0  0  0  0  0
   69.5442   82.2006   87.9748 H   0  0  0  0  0  0  0  0  0  0  0  0
   68.0264   80.7934   86.8393 S   0  0  0  0  0  0  0  0  0  0  0  0
   68.2706   81.1932   85.4102 O   0  0  0  0  0  0  0  0  0  0  0  0
   66.8113   81.5241   87.3360 O   0  0  0  0  0  0  0  0  0  0  0  0
   67.0487   78.6497   88.2195 C   0  0  0  0  0  0  0  0  0  0  0  0
   67.7702   79.0209   86.9224 C   0  0  0  0  0  0  0  0  0  0  0  0
   66.9750   78.5445   85.7028 C   0  0  0  0  0  0  0  0  0  0  0  0
   67.5477   75.8644   92.3360 C   0  0  0  0  0  0  0  0  0  0  0  0
   66.7683   74.9121   91.6160 O   0  0  0  0  0  0  0  0  0  0  0  0
   65.6394   75.2182   90.8410 C   0  0  0  0  0  0  0  0  0  0  0  0
   64.3878   75.2107   91.3262 C   0  0  0  0  0  0  0  0  0  0  0  0
   63.2027   75.5497   90.4979 C   0  0  0  0  0  0  0  0  0  0  0  0
   62.1509   74.7102   90.5200 C   0  0  0  0  0  0  0  0  0  0  0  0
   61.0233   74.8644   89.7126 O   0  0  0  0  0  0  0  0  0  0  0  0
   60.9706   75.5832   89.1139 H   0  0  0  0  0  0  0  0  0  0  0  0
   63.2024   76.7675   89.6570 C   0  0  0  0  0  0  0  0  0  0  0  0
   63.8061   77.8018   90.0502 O   0  0  0  0  0  0  0  0  0  0  0  0
   62.5055   76.7922   88.4526 O   0  0  0  0  0  0  0  0  0  0  0  0
   62.0552   76.0258   88.1561 H   0  0  0  0  0  0  0  0  0  0  0  0
 18 19  1  0  0  0
 19 20  1  0  0  0
 19 15  1  0  0  0
 15 16  2  0  0  0
 15 17  2  0  0  0
 15 13  1  0  0  0
 13  7  1  0  0  0
  7  8  2  0  0  0
  8  9  1  0  0  0
  9 10  2  0  0  0
 10 11  1  0  0  0
 11  1  1  0  0  0
  1  2  2  0  0  0
  2  3  1  0  0  0
  3  4  2  0  0  0
  4  5  1  0  0  0
  5 21  1  0  0  0
 21 22  1  0  0  0
 22 23  1  0  0  0
 23 24  2  0  0  0
 24 25  1  0  0  0
 25 26  2  0  0  0
 26 27  1  0  0  0
 25 29  1  0  0  0
 29 30  2  0  0  0
 29 31  1  0  0  0
  5  6  2  0  0  0
 11 12  2  0  0  0
 12  7  1  0  0  0
  6  1  1  0  0  0
 13 14  1  0  0  0
 27 28  1  0  0  0
 31 32  1  0  0  0
M  END
> <Activity>
8.6

> <minimizedAffinity>
-8.97019

$$$$
HIPS6566


 32 33  0  0  0  0  0  0  0  0999 V2000
   67.7038   77.7042   87.7431 C   0  0  0  0  0  0  0  0  0  0  0  0
   66.9455   77.3513   86.6122 C   0  0  0  0  0  0  0  0  0  0  0  0
   66.7561   78.2683   85.5748 C   0  0  0  0  0  0  0  0  0  0  0  0
   67.3200   79.5452   85.6525 C   0  0  0  0  0  0  0  0  0  0  0  0
   68.0690   79.9196   86.7780 C   0  0  0  0  0  0  0  0  0  0  0  0
   68.2674   78.9928   87.8148 C   0  0  0  0  0  0  0  0  0  0  0  0
   67.0570   74.9628   90.3044 C   0  0  0  0  0  0  0  0  0  0  0  0
   68.3156   74.8848   90.9205 C   0  0  0  0  0  0  0  0  0  0  0  0
   69.3632   75.7087   90.5040 C   0  0  0  0  0  0  0  0  0  0  0  0
   69.1663   76.6234   89.4690 C   0  0  0  0  0  0  0  0  0  0  0  0
   67.9131   76.7295   88.8428 C   0  0  0  0  0  0  0  0  0  0  0  0
   66.8620   75.8960   89.2675 C   0  0  0  0  0  0  0  0  0  0  0  0
   66.0066   74.0861   90.7528 N   0  0  0  0  0  0  0  0  0  0  0  0
   66.2150   73.1272   90.8327 H   0  0  0  0  0  0  0  0  0  0  0  0
   64.3980   74.5978   91.1628 S   0  0  0  0  0  0  0  0  0  0  0  0
   64.4440   76.0430   91.5764 O   0  0  0  0  0  0  0  0  0  0  0  0
   63.8863   73.7885   92.3205 O   0  0  0  0  0  0  0  0  0  0  0  0
   61.8537   74.5924   90.1715 C   0  0  0  0  0  0  0  0  0  0  0  0
   63.3134   74.4220   89.7461 C   0  0  0  0  0  0  0  0  0  0  0  0
   63.6870   75.4414   88.6654 C   0  0  0  0  0  0  0  0  0  0  0  0
   68.7210   81.2701   86.8330 C   0  0  0  0  0  0  0  0  0  0  0  0
   69.3665   81.4243   88.0949 O   0  0  0  0  0  0  0  0  0  0  0  0
   70.7557   81.4378   88.2911 C   0  0  0  0  0  0  0  0  0  0  0  0
   71.4544   80.3637   88.6912 C   0  0  0  0  0  0  0  0  0  0  0  0
   72.9269   80.3884   88.8824 C   0  0  0  0  0  0  0  0  0  0  0  0
   73.5797   79.2128   88.9423 C   0  0  0  0  0  0  0  0  0  0  0  0
   74.9429   79.1003   89.2177 O   0  0  0  0  0  0  0  0  0  0  0  0
   75.4546   79.8697   89.3731 H   0  0  0  0  0  0  0  0  0  0  0  0
   73.6403   81.6770   89.0262 C   0  0  0  0  0  0  0  0  0  0  0  0
   74.6863   81.8935   88.3571 O   0  0  0  0  0  0  0  0  0  0  0  0
   73.1868   82.6369   89.9262 O   0  0  0  0  0  0  0  0  0  0  0  0
   72.4097   82.4806   90.4259 H   0  0  0  0  0  0  0  0  0  0  0  0
 18 19  1  0  0  0
 19 20  1  0  0  0
 19 15  1  0  0  0
 15 16  2  0  0  0
 15 17  2  0  0  0
 15 13  1  0  0  0
 13  7  1  0  0  0
  7  8  2  0  0  0
  8  9  1  0  0  0
  9 10  2  0  0  0
 10 11  1  0  0  0
 11  1  1  0  0  0
  1  2  2  0  0  0
  2  3  1  0  0  0
  3  4  2  0  0  0
  4  5  1  0  0  0
  5 21  1  0  0  0
 21 22  1  0  0  0
 22 23  1  0  0  0
 23 24  2  0  0  0
 24 25  1  0  0  0
 25 26  2  0  0  0
 26 27  1  0  0  0
 25 29  1  0  0  0
 29 30  2  0  0  0
 29 31  1  0  0  0
  5  6  2  0  0  0
 11 12  2  0  0  0
 12  7  1  0  0  0
  6  1  1  0  0  0
 13 14  1  0  0  0
 27 28  1  0  0  0
 31 32  1  0  0  0
M  END
> <Activity>
8.6

> <minimizedAffinity>
-8.85081

$$$$
HIPS6566


 32 33  0  0  0  0  0  0  0  0999 V2000
   67.8097   75.8984   91.8861 C   0  0  0  0  0  0  0  0  0  0  0  0
   67.7287   74.8340   92.8022 C   0  0  0  0  0  0  0  0  0  0  0  0
   68.8387   74.0178   93.0361 C   0  0  0  0  0  0  0  0  0  0  0  0
   70.0401   74.2531   92.3612 C   0  0  0  0  0  0  0  0  0  0  0  0
   70.1364   75.3021   91.4348 C   0  0  0  0  0  0  0  0  0  0  0  0
   69.0230   76.1282   91.2090 C   0  0  0  0  0  0  0  0  0  0  0  0
   64.2664   77.0360   91.0831 C   0  0  0  0  0  0  0  0  0  0  0  0
   64.4145   78.4280   91.1842 C   0  0  0  0  0  0  0  0  0  0  0  0
   65.6493   78.9893   91.5156 C   0  0  0  0  0  0  0  0  0  0  0  0
   66.7530   78.1677   91.7471 C   0  0  0  0  0  0  0  0  0  0  0  0
   66.6347   76.7716   91.6416 C   0  0  0  0  0  0  0  0  0  0  0  0
   65.3873   76.2130   91.3074 C   0  0  0  0  0  0  0  0  0  0  0  0
   62.9734   76.4953   90.7534 N   0  0  0  0  0  0  0  0  0  0  0  0
   62.2206   77.1253   90.6781 H   0  0  0  0  0  0  0  0  0  0  0  0
   62.6455   74.8117   90.4790 S   0  0  0  0  0  0  0  0  0  0  0  0
   63.3622   74.3797   89.2295 O   0  0  0  0  0  0  0  0  0  0  0  0
   61.1711   74.6070   90.2759 O   0  0  0  0  0  0  0  0  0  0  0  0
   62.0455   73.2667   92.6493 C   0  0  0  0  0  0  0  0  0  0  0  0
   63.2296   73.8345   91.8641 C   0  0  0  0  0  0  0  0  0  0  0  0
   64.1426   72.7087   91.3683 C   0  0  0  0  0  0  0  0  0  0  0  0
   71.4433   75.5883   90.7549 C   0  0  0  0  0  0  0  0  0  0  0  0
   71.2054   76.4165   89.6190 O   0  0  0  0  0  0  0  0  0  0  0  0
   71.6792   77.7285   89.4673 C   0  0  0  0  0  0  0  0  0  0  0  0
   70.9295   78.7319   88.9845 C   0  0  0  0  0  0  0  0  0  0  0  0
   71.4397   80.1193   88.8414 C   0  0  0  0  0  0  0  0  0  0  0  0
   72.7696   80.3000   88.7400 C   0  0  0  0  0  0  0  0  0  0  0  0
   73.3771   81.5556   88.7020 O   0  0  0  0  0  0  0  0  0  0  0  0
   72.8532   82.3311   88.7479 H   0  0  0  0  0  0  0  0  0  0  0  0
   70.5013   81.2637   88.8369 C   0  0  0  0  0  0  0  0  0  0  0  0
   69.6820   81.3999   87.8888 O   0  0  0  0  0  0  0  0  0  0  0  0
   70.5444   82.2144   89.8525 O   0  0  0  0  0  0  0  0  0  0  0  0
   71.1518   82.1176   90.5594 H   0  0  0  0  0  0  0  0  0  0  0  0
 18 19  1  0  0  0
 19 20  1  0  0  0
 19 15  1  0  0  0
 15 16  2  0  0  0
 15 17  2  0  0  0
 15 13  1  0  0  0
 13  7  1  0  0  0
  7  8  2  0  0  0
  8  9  1  0  0  0
  9 10  2  0  0  0
 10 11  1  0  0  0
 11  1  1  0  0  0
  1  2  2  0  0  0
  2  3  1  0  0  0
  3  4  2  0  0  0
  4  5  1  0  0  0
  5 21  1  0  0  0
 21 22  1  0  0  0
 22 23  1  0  0  0
 23 24  2  0  0  0
 24 25  1  0  0  0
 25 26  2  0  0  0
 26 27  1  0  0  0
 25 29  1  0  0  0
 29 30  2  0  0  0
 29 31  1  0  0  0
  5  6  2  0  0  0
 11 12  2  0  0  0
 12  7  1  0  0  0
  6  1  1  0  0  0
 13 14  1  0  0  0
 27 28  1  0  0  0
 31 32  1  0  0  0
M  END
> <Activity>
8.6

> <minimizedAffinity>
-8.67872

$$$$
HIPS6566


 32 33  0  0  0  0  0  0  0  0999 V2000
   68.9880   76.0634   89.9596 C   0  0  0  0  0  0  0  0  0  0  0  0
   70.3383   75.8552   90.2942 C   0  0  0  0  0  0  0  0  0  0  0  0
   70.6852   74.9429   91.2944 C   0  0  0  0  0  0  0  0  0  0  0  0
   69.6919   74.2289   91.9711 C   0  0  0  0  0  0  0  0  0  0  0  0
   68.3393   74.4322   91.6599 C   0  0  0  0  0  0  0  0  0  0  0  0
   67.9930   75.3415   90.6467 C   0  0  0  0  0  0  0  0  0  0  0  0
   68.9539   79.1663   87.7540 C   0  0  0  0  0  0  0  0  0  0  0  0
   67.9144   78.8410   86.8690 C   0  0  0  0  0  0  0  0  0  0  0  0
   67.2374   77.6251   86.9840 C   0  0  0  0  0  0  0  0  0  0  0  0
   67.5877   76.7201   87.9864 C   0  0  0  0  0  0  0  0  0  0  0  0
   68.6172   77.0260   88.8923 C   0  0  0  0  0  0  0  0  0  0  0  0
   69.2952   78.2528   88.7704 C   0  0  0  0  0  0  0  0  0  0  0  0
   69.6373   80.4235   87.5935 N   0  0  0  0  0  0  0  0  0  0  0  0
   69.3965   80.9782   86.8167 H   0  0  0  0  0  0  0  0  0  0  0  0
   70.8559   81.0320   88.6715 S   0  0  0  0  0  0  0  0  0  0  0  0
   70.4083   80.7929   90.0872 O   0  0  0  0  0  0  0  0  0  0  0  0
   71.0214   82.5114   88.4691 O   0  0  0  0  0  0  0  0  0  0  0  0
   73.5790   81.0423   88.8748 C   0  0  0  0  0  0  0  0  0  0  0  0
   72.4096   80.1826   88.3907 C   0  0  0  0  0  0  0  0  0  0  0  0
   72.4043   78.8242   89.0988 C   0  0  0  0  0  0  0  0  0  0  0  0
   67.2788   73.6227   92.3472 C   0  0  0  0  0  0  0  0  0  0  0  0
   66.4130   73.0596   91.3643 O   0  0  0  0  0  0  0  0  0  0  0  0
   65.1798   73.6029   90.9732 C   0  0  0  0  0  0  0  0  0  0  0  0
   64.7910   74.8493   91.2850 C   0  0  0  0  0  0  0  0  0  0  0  0
   63.4882   75.4165   90.8532 C   0  0  0  0  0  0  0  0  0  0  0  0
   62.4644   74.5683   90.6427 C   0  0  0  0  0  0  0  0  0  0  0  0
   61.2243   74.9650   90.1409 O   0  0  0  0  0  0  0  0  0  0  0  0
   61.0700   75.8651   89.9310 H   0  0  0  0  0  0  0  0  0  0  0  0
   63.3413   76.8736   90.6402 C   0  0  0  0  0  0  0  0  0  0  0  0
   63.4025   77.6608   91.6228 O   0  0  0  0  0  0  0  0  0  0  0  0
   63.0952   77.3785   89.3668 O   0  0  0  0  0  0  0  0  0  0  0  0
   63.0488   76.7973   88.6333 H   0  0  0  0  0  0  0  0  0  0  0  0
 18 19  1  0  0  0
 19 20  1  0  0  0
 19 15  1  0  0  0
 15 16  2  0  0  0
 15 17  2  0  0  0
 15 13  1  0  0  0
 13  7  1  0  0  0
  7  8  2  0  0  0
  8  9  1  0  0  0
  9 10  2  0  0  0
 10 11  1  0  0  0
 11  1  1  0  0  0
  1  2  2  0  0  0
  2  3  1  0  0  0
  3  4  2  0  0  0
  4  5  1  0  0  0
  5 21  1  0  0  0
 21 22  1  0  0  0
 22 23  1  0  0  0
 23 24  2  0  0  0
 24 25  1  0  0  0
 25 26  2  0  0  0
 26 27  1  0  0  0
 25 29  1  0  0  0
 29 30  2  0  0  0
 29 31  1  0  0  0
  5  6  2  0  0  0
 11 12  2  0  0  0
 12  7  1  0  0  0
  6  1  1  0  0  0
 13 14  1  0  0  0
 27 28  1  0  0  0
 31 32  1  0  0  0
M  END
> <Activity>
8.6

> <minimizedAffinity>
-8.58841

$$$$
HIPS6566


 32 33  0  0  0  0  0  0  0  0999 V2000
   67.7487   75.1163   91.7928 C   0  0  0  0  0  0  0  0  0  0  0  0
   67.9724   75.6684   93.0672 C   0  0  0  0  0  0  0  0  0  0  0  0
   69.1981   76.2663   93.3723 C   0  0  0  0  0  0  0  0  0  0  0  0
   70.2129   76.3210   92.4123 C   0  0  0  0  0  0  0  0  0  0  0  0
   70.0128   75.7649   91.1401 C   0  0  0  0  0  0  0  0  0  0  0  0
   68.7763   75.1740   90.8316 C   0  0  0  0  0  0  0  0  0  0  0  0
   64.1305   74.6807   90.6917 C   0  0  0  0  0  0  0  0  0  0  0  0
   63.9828   73.2927   90.8382 C   0  0  0  0  0  0  0  0  0  0  0  0
   65.0483   72.5075   91.2832 C   0  0  0  0  0  0  0  0  0  0  0  0
   66.2739   73.0990   91.5909 C   0  0  0  0  0  0  0  0  0  0  0  0
   66.4451   74.4877   91.4635 C   0  0  0  0  0  0  0  0  0  0  0  0
   65.3672   75.2726   91.0144 C   0  0  0  0  0  0  0  0  0  0  0  0
   63.0127   75.4537   90.2162 N   0  0  0  0  0  0  0  0  0  0  0  0
   62.5041   75.9759   90.8780 H   0  0  0  0  0  0  0  0  0  0  0  0
   62.4965   75.5315   88.5594 S   0  0  0  0  0  0  0  0  0  0  0  0
   63.7046   75.4035   87.6729 O   0  0  0  0  0  0  0  0  0  0  0  0
   61.8484   76.8598   88.2904 O   0  0  0  0  0  0  0  0  0  0  0  0
   60.0891   74.7389   87.5431 C   0  0  0  0  0  0  0  0  0  0  0  0
   61.3571   74.1938   88.2035 C   0  0  0  0  0  0  0  0  0  0  0  0
   62.0311   73.1505   87.3069 C   0  0  0  0  0  0  0  0  0  0  0  0
   71.0824   75.8761   90.0933 C   0  0  0  0  0  0  0  0  0  0  0  0
   71.1064   77.2107   89.5923 O   0  0  0  0  0  0  0  0  0  0  0  0
   69.9713   77.9988   89.3492 C   0  0  0  0  0  0  0  0  0  0  0  0
   69.1854   77.8472   88.2716 C   0  0  0  0  0  0  0  0  0  0  0  0
   67.9789   78.6798   88.0332 C   0  0  0  0  0  0  0  0  0  0  0  0
   68.0976   79.7562   87.2338 C   0  0  0  0  0  0  0  0  0  0  0  0
   67.0670   80.6705   87.0126 O   0  0  0  0  0  0  0  0  0  0  0  0
   66.2372   80.5516   87.4314 H   0  0  0  0  0  0  0  0  0  0  0  0
   66.6943   78.3374   88.6833 C   0  0  0  0  0  0  0  0  0  0  0  0
   66.2608   79.0481   89.6297 O   0  0  0  0  0  0  0  0  0  0  0  0
   65.9804   77.2114   88.2839 O   0  0  0  0  0  0  0  0  0  0  0  0
   66.2987   76.6800   87.5808 H   0  0  0  0  0  0  0  0  0  0  0  0
 18 19  1  0  0  0
 19 20  1  0  0  0
 19 15  1  0  0  0
 15 16  2  0  0  0
 15 17  2  0  0  0
 15 13  1  0  0  0
 13  7  1  0  0  0
  7  8  2  0  0  0
  8  9  1  0  0  0
  9 10  2  0  0  0
 10 11  1  0  0  0
 11  1  1  0  0  0
  1  2  2  0  0  0
  2  3  1  0  0  0
  3  4  2  0  0  0
  4  5  1  0  0  0
  5 21  1  0  0  0
 21 22  1  0  0  0
 22 23  1  0  0  0
 23 24  2  0  0  0
 24 25  1  0  0  0
 25 26  2  0  0  0
 26 27  1  0  0  0
 25 29  1  0  0  0
 29 30  2  0  0  0
 29 31  1  0  0  0
  5  6  2  0  0  0
 11 12  2  0  0  0
 12  7  1  0  0  0
  6  1  1  0  0  0
 13 14  1  0  0  0
 27 28  1  0  0  0
 31 32  1  0  0  0
M  END
> <Activity>
8.6

> <minimizedAffinity>
-8.55705

$$$$
HIPS6566


 32 33  0  0  0  0  0  0  0  0999 V2000
   69.2531   77.2445   89.9184 C   0  0  0  0  0  0  0  0  0  0  0  0
   68.3584   77.9729   89.1136 C   0  0  0  0  0  0  0  0  0  0  0  0
   68.8240   79.0095   88.3003 C   0  0  0  0  0  0  0  0  0  0  0  0
   70.1844   79.3311   88.2794 C   0  0  0  0  0  0  0  0  0  0  0  0
   71.0899   78.6241   89.0844 C   0  0  0  0  0  0  0  0  0  0  0  0
   70.6218   77.5753   89.8931 C   0  0  0  0  0  0  0  0  0  0  0  0
   67.0449   74.4859   91.3355 C   0  0  0  0  0  0  0  0  0  0  0  0
   67.8412   74.0423   92.4027 C   0  0  0  0  0  0  0  0  0  0  0  0
   69.0833   74.6284   92.6543 C   0  0  0  0  0  0  0  0  0  0  0  0
   69.5447   75.6674   91.8454 C   0  0  0  0  0  0  0  0  0  0  0  0
   68.7624   76.1379   90.7773 C   0  0  0  0  0  0  0  0  0  0  0  0
   67.5119   75.5425   90.5295 C   0  0  0  0  0  0  0  0  0  0  0  0
   65.7767   73.8462   91.0999 N   0  0  0  0  0  0  0  0  0  0  0  0
   65.7815   72.8818   90.9019 H   0  0  0  0  0  0  0  0  0  0  0  0
   64.2388   74.6529   91.1396 S   0  0  0  0  0  0  0  0  0  0  0  0
   64.4536   76.0761   91.5755 O   0  0  0  0  0  0  0  0  0  0  0  0
   63.3378   73.9815   92.1367 O   0  0  0  0  0  0  0  0  0  0  0  0
   61.9824   74.8671   89.6168 C   0  0  0  0  0  0  0  0  0  0  0  0
   63.4916   74.6396   89.5099 C   0  0  0  0  0  0  0  0  0  0  0  0
   64.1404   75.7066   88.6227 C   0  0  0  0  0  0  0  0  0  0  0  0
   72.5570   78.9328   89.0169 C   0  0  0  0  0  0  0  0  0  0  0  0
   72.7540   80.3185   89.2886 O   0  0  0  0  0  0  0  0  0  0  0  0
   73.4952   81.1980   88.4850 C   0  0  0  0  0  0  0  0  0  0  0  0
   73.9249   82.3977   88.9068 C   0  0  0  0  0  0  0  0  0  0  0  0
   74.7202   83.3135   88.0498 C   0  0  0  0  0  0  0  0  0  0  0  0
   74.2584   84.5626   87.8549 C   0  0  0  0  0  0  0  0  0  0  0  0
   74.8591   85.4819   86.9940 O   0  0  0  0  0  0  0  0  0  0  0  0
   75.6269   85.2415   86.5137 H   0  0  0  0  0  0  0  0  0  0  0  0
   75.9713   82.8437   87.4141 C   0  0  0  0  0  0  0  0  0  0  0  0
   76.3061   83.2886   86.2833 O   0  0  0  0  0  0  0  0  0  0  0  0
   76.7613   81.8828   88.0382 O   0  0  0  0  0  0  0  0  0  0  0  0
   76.5165   81.5490   88.8788 H   0  0  0  0  0  0  0  0  0  0  0  0
 18 19  1  0  0  0
 19 20  1  0  0  0
 19 15  1  0  0  0
 15 16  2  0  0  0
 15 17  2  0  0  0
 15 13  1  0  0  0
 13  7  1  0  0  0
  7  8  2  0  0  0
  8  9  1  0  0  0
  9 10  2  0  0  0
 10 11  1  0  0  0
 11  1  1  0  0  0
  1  2  2  0  0  0
  2  3  1  0  0  0
  3  4  2  0  0  0
  4  5  1  0  0  0
  5 21  1  0  0  0
 21 22  1  0  0  0
 22 23  1  0  0  0
 23 24  2  0  0  0
 24 25  1  0  0  0
 25 26  2  0  0  0
 26 27  1  0  0  0
 25 29  1  0  0  0
 29 30  2  0  0  0
 29 31  1  0  0  0
  5  6  2  0  0  0
 11 12  2  0  0  0
 12  7  1  0  0  0
  6  1  1  0  0  0
 13 14  1  0  0  0
 27 28  1  0  0  0
 31 32  1  0  0  0
M  END
> <Activity>
8.6

> <minimizedAffinity>
-8.54405

$$$$
HIPS6566


 32 33  0  0  0  0  0  0  0  0999 V2000
   67.5476   75.4878   91.3204 C   0  0  0  0  0  0  0  0  0  0  0  0
   67.5556   74.6287   92.4341 C   0  0  0  0  0  0  0  0  0  0  0  0
   68.7642   74.1554   92.9520 C   0  0  0  0  0  0  0  0  0  0  0  0
   69.9765   74.5328   92.3669 C   0  0  0  0  0  0  0  0  0  0  0  0
   69.9880   75.3788   91.2481 C   0  0  0  0  0  0  0  0  0  0  0  0
   68.7728   75.8623   90.7356 C   0  0  0  0  0  0  0  0  0  0  0  0
   64.2323   75.6511   89.4560 C   0  0  0  0  0  0  0  0  0  0  0  0
   63.8401   76.9675   89.7440 C   0  0  0  0  0  0  0  0  0  0  0  0
   64.6405   77.7896   90.5399 C   0  0  0  0  0  0  0  0  0  0  0  0
   65.8445   77.3085   91.0554 C   0  0  0  0  0  0  0  0  0  0  0  0
   66.2657   75.9982   90.7731 C   0  0  0  0  0  0  0  0  0  0  0  0
   65.4541   75.1754   89.9706 C   0  0  0  0  0  0  0  0  0  0  0  0
   63.3724   74.8302   88.6436 N   0  0  0  0  0  0  0  0  0  0  0  0
   63.7992   74.1993   88.0199 H   0  0  0  0  0  0  0  0  0  0  0  0
   61.6363   74.8726   88.6845 S   0  0  0  0  0  0  0  0  0  0  0  0
   61.1737   76.1833   88.1103 O   0  0  0  0  0  0  0  0  0  0  0  0
   61.1585   74.7817   90.1060 O   0  0  0  0  0  0  0  0  0  0  0  0
   59.8904   74.0533   86.7513 C   0  0  0  0  0  0  0  0  0  0  0  0
   60.9620   73.5281   87.7088 C   0  0  0  0  0  0  0  0  0  0  0  0
   62.0816   72.8226   86.9370 C   0  0  0  0  0  0  0  0  0  0  0  0
   71.2924   75.8285   90.6577 C   0  0  0  0  0  0  0  0  0  0  0  0
   71.0311   76.7201   89.5763 O   0  0  0  0  0  0  0  0  0  0  0  0
   71.1613   78.1159   89.6357 C   0  0  0  0  0  0  0  0  0  0  0  0
   71.7523   78.8429   88.6744 C   0  0  0  0  0  0  0  0  0  0  0  0
   71.8718   80.3216   88.7438 C   0  0  0  0  0  0  0  0  0  0  0  0
   73.1055   80.8583   88.7825 C   0  0  0  0  0  0  0  0  0  0  0  0
   73.3489   82.2222   88.9486 O   0  0  0  0  0  0  0  0  0  0  0  0
   72.6318   82.8182   89.0405 H   0  0  0  0  0  0  0  0  0  0  0  0
   70.6586   81.1677   88.7934 C   0  0  0  0  0  0  0  0  0  0  0  0
   69.8011   81.0899   87.8730 O   0  0  0  0  0  0  0  0  0  0  0  0
   70.4770   82.0792   89.8294 O   0  0  0  0  0  0  0  0  0  0  0  0
   71.1118   82.1407   90.5159 H   0  0  0  0  0  0  0  0  0  0  0  0
 18 19  1  0  0  0
 19 20  1  0  0  0
 19 15  1  0  0  0
 15 16  2  0  0  0
 15 17  2  0  0  0
 15 13  1  0  0  0
 13  7  1  0  0  0
  7  8  2  0  0  0
  8  9  1  0  0  0
  9 10  2  0  0  0
 10 11  1  0  0  0
 11  1  1  0  0  0
  1  2  2  0  0  0
  2  3  1  0  0  0
  3  4  2  0  0  0
  4  5  1  0  0  0
  5 21  1  0  0  0
 21 22  1  0  0  0
 22 23  1  0  0  0
 23 24  2  0  0  0
 24 25  1  0  0  0
 25 26  2  0  0  0
 26 27  1  0  0  0
 25 29  1  0  0  0
 29 30  2  0  0  0
 29 31  1  0  0  0
  5  6  2  0  0  0
 11 12  2  0  0  0
 12  7  1  0  0  0
  6  1  1  0  0  0
 13 14  1  0  0  0
 27 28  1  0  0  0
 31 32  1  0  0  0
M  END
> <Activity>
8.6

> <minimizedAffinity>
-8.44639

$$$$
HIPS6566


 32 33  0  0  0  0  0  0  0  0999 V2000
   67.6741   77.6860   87.7876 C   0  0  0  0  0  0  0  0  0  0  0  0
   67.0088   77.1554   86.6675 C   0  0  0  0  0  0  0  0  0  0  0  0
   66.7259   77.9660   85.5649 C   0  0  0  0  0  0  0  0  0  0  0  0
   67.1026   79.3123   85.5659 C   0  0  0  0  0  0  0  0  0  0  0  0
   67.7557   79.8624   86.6788 C   0  0  0  0  0  0  0  0  0  0  0  0
   68.0491   79.0435   87.7818 C   0  0  0  0  0  0  0  0  0  0  0  0
   67.2320   75.4505   90.8373 C   0  0  0  0  0  0  0  0  0  0  0  0
   68.5726   75.1948   91.1648 C   0  0  0  0  0  0  0  0  0  0  0  0
   69.6071   75.7372   90.3998 C   0  0  0  0  0  0  0  0  0  0  0  0
   69.3161   76.5447   89.2998 C   0  0  0  0  0  0  0  0  0  0  0  0
   67.9828   76.8254   88.9568 C   0  0  0  0  0  0  0  0  0  0  0  0
   66.9455   76.2753   89.7320 C   0  0  0  0  0  0  0  0  0  0  0  0
   66.1938   74.8609   91.6421 N   0  0  0  0  0  0  0  0  0  0  0  0
   66.4588   74.4364   92.4899 H   0  0  0  0  0  0  0  0  0  0  0  0
   64.5076   74.8447   91.2253 S   0  0  0  0  0  0  0  0  0  0  0  0
   64.3818   74.6703   89.7369 O   0  0  0  0  0  0  0  0  0  0  0  0
   63.8770   76.1543   91.6052 O   0  0  0  0  0  0  0  0  0  0  0  0
   62.1812   73.7724   92.1713 C   0  0  0  0  0  0  0  0  0  0  0  0
   63.6796   73.4865   92.0523 C   0  0  0  0  0  0  0  0  0  0  0  0
   63.9244   72.1782   91.2937 C   0  0  0  0  0  0  0  0  0  0  0  0
   68.2102   81.2925   86.6540 C   0  0  0  0  0  0  0  0  0  0  0  0
   69.0402   81.5368   87.7872 O   0  0  0  0  0  0  0  0  0  0  0  0
   70.4373   81.4083   87.8030 C   0  0  0  0  0  0  0  0  0  0  0  0
   71.1181   80.8855   88.8351 C   0  0  0  0  0  0  0  0  0  0  0  0
   72.5964   80.7433   88.8333 C   0  0  0  0  0  0  0  0  0  0  0  0
   73.3415   81.8548   88.6885 C   0  0  0  0  0  0  0  0  0  0  0  0
   74.7318   81.8419   88.5709 O   0  0  0  0  0  0  0  0  0  0  0  0
   75.1962   81.0283   88.5908 H   0  0  0  0  0  0  0  0  0  0  0  0
   73.2186   79.4068   88.9632 C   0  0  0  0  0  0  0  0  0  0  0  0
   72.5277   78.3710   88.7670 O   0  0  0  0  0  0  0  0  0  0  0  0
   74.5526   79.2842   89.3406 O   0  0  0  0  0  0  0  0  0  0  0  0
   75.0703   80.0512   89.4876 H   0  0  0  0  0  0  0  0  0  0  0  0
 18 19  1  0  0  0
 19 20  1  0  0  0
 19 15  1  0  0  0
 15 16  2  0  0  0
 15 17  2  0  0  0
 15 13  1  0  0  0
 13  7  1  0  0  0
  7  8  2  0  0  0
  8  9  1  0  0  0
  9 10  2  0  0  0
 10 11  1  0  0  0
 11  1  1  0  0  0
  1  2  2  0  0  0
  2  3  1  0  0  0
  3  4  2  0  0  0
  4  5  1  0  0  0
  5 21  1  0  0  0
 21 22  1  0  0  0
 22 23  1  0  0  0
 23 24  2  0  0  0
 24 25  1  0  0  0
 25 26  2  0  0  0
 26 27  1  0  0  0
 25 29  1  0  0  0
 29 30  2  0  0  0
 29 31  1  0  0  0
  5  6  2  0  0  0
 11 12  2  0  0  0
 12  7  1  0  0  0
  6  1  1  0  0  0
 13 14  1  0  0  0
 27 28  1  0  0  0
 31 32  1  0  0  0
M  END
> <Activity>
8.6

> <minimizedAffinity>
-8.27957

$$$$
HIPS6566


 32 33  0  0  0  0  0  0  0  0999 V2000
   67.3178   74.7715   91.6047 C   0  0  0  0  0  0  0  0  0  0  0  0
   67.7035   75.1686   92.8978 C   0  0  0  0  0  0  0  0  0  0  0  0
   68.9974   75.6403   93.1349 C   0  0  0  0  0  0  0  0  0  0  0  0
   69.9198   75.7218   92.0876 C   0  0  0  0  0  0  0  0  0  0  0  0
   69.5574   75.3187   90.7939 C   0  0  0  0  0  0  0  0  0  0  0  0
   68.2530   74.8551   90.5551 C   0  0  0  0  0  0  0  0  0  0  0  0
   63.6577   74.6707   90.5618 C   0  0  0  0  0  0  0  0  0  0  0  0
   63.3418   73.3366   90.8619 C   0  0  0  0  0  0  0  0  0  0  0  0
   64.3084   72.4789   91.3906 C   0  0  0  0  0  0  0  0  0  0  0  0
   65.6022   72.9435   91.6296 C   0  0  0  0  0  0  0  0  0  0  0  0
   65.9418   74.2775   91.3484 C   0  0  0  0  0  0  0  0  0  0  0  0
   64.9627   75.1362   90.8157 C   0  0  0  0  0  0  0  0  0  0  0  0
   62.6371   75.5197   90.0043 N   0  0  0  0  0  0  0  0  0  0  0  0
   62.1672   76.1311   90.6163 H   0  0  0  0  0  0  0  0  0  0  0  0
   62.1750   75.5430   88.3300 S   0  0  0  0  0  0  0  0  0  0  0  0
   63.4137   75.4106   87.4875 O   0  0  0  0  0  0  0  0  0  0  0  0
   61.5154   76.8524   88.0024 O   0  0  0  0  0  0  0  0  0  0  0  0
   59.8899   74.6566   87.1261 C   0  0  0  0  0  0  0  0  0  0  0  0
   61.0691   74.1772   87.9749 C   0  0  0  0  0  0  0  0  0  0  0  0
   61.8293   73.0535   87.2634 C   0  0  0  0  0  0  0  0  0  0  0  0
   70.5308   75.4613   89.6605 C   0  0  0  0  0  0  0  0  0  0  0  0
   71.4649   76.4912   89.9761 O   0  0  0  0  0  0  0  0  0  0  0  0
   71.2215   77.8664   89.8409 C   0  0  0  0  0  0  0  0  0  0  0  0
   71.8641   78.6455   88.9564 C   0  0  0  0  0  0  0  0  0  0  0  0
   71.5872   80.0977   88.8147 C   0  0  0  0  0  0  0  0  0  0  0  0
   70.3350   80.4781   88.5002 C   0  0  0  0  0  0  0  0  0  0  0  0
   69.9721   81.8004   88.2417 O   0  0  0  0  0  0  0  0  0  0  0  0
   70.6163   82.4796   88.2827 H   0  0  0  0  0  0  0  0  0  0  0  0
   72.6739   81.0864   88.9928 C   0  0  0  0  0  0  0  0  0  0  0  0
   73.7898   80.7173   89.4480 O   0  0  0  0  0  0  0  0  0  0  0  0
   72.4594   82.4298   88.6993 O   0  0  0  0  0  0  0  0  0  0  0  0
   71.6315   82.7090   88.3607 H   0  0  0  0  0  0  0  0  0  0  0  0
 18 19  1  0  0  0
 19 20  1  0  0  0
 19 15  1  0  0  0
 15 16  2  0  0  0
 15 17  2  0  0  0
 15 13  1  0  0  0
 13  7  1  0  0  0
  7  8  2  0  0  0
  8  9  1  0  0  0
  9 10  2  0  0  0
 10 11  1  0  0  0
 11  1  1  0  0  0
  1  2  2  0  0  0
  2  3  1  0  0  0
  3  4  2  0  0  0
  4  5  1  0  0  0
  5 21  1  0  0  0
 21 22  1  0  0  0
 22 23  1  0  0  0
 23 24  2  0  0  0
 24 25  1  0  0  0
 25 26  2  0  0  0
 26 27  1  0  0  0
 25 29  1  0  0  0
 29 30  2  0  0  0
 29 31  1  0  0  0
  5  6  2  0  0  0
 11 12  2  0  0  0
 12  7  1  0  0  0
  6  1  1  0  0  0
 13 14  1  0  0  0
 27 28  1  0  0  0
 31 32  1  0  0  0
M  END
> <Activity>
8.6

> <minimizedAffinity>
-8.03235

$$$$
HIPS6295


 36 39  0  0  0  0  0  0  0  0999 V2000
   65.5925   76.1282   88.6362 C   0  0  0  0  0  0  0  0  0  0  0  0
   64.3291   75.7363   89.1030 C   0  0  0  0  0  0  0  0  0  0  0  0
   64.1098   75.5501   90.4706 C   0  0  0  0  0  0  0  0  0  0  0  0
   62.5229   75.0742   91.0464 Cl  0  0  0  0  0  0  0  0  0  0  0  0
   65.1489   75.7610   91.3814 C   0  0  0  0  0  0  0  0  0  0  0  0
   66.4235   76.1401   90.9284 C   0  0  0  0  0  0  0  0  0  0  0  0
   66.6422   76.3057   89.5510 C   0  0  0  0  0  0  0  0  0  0  0  0
   67.5069   76.4323   91.8930 C   0  0  0  0  0  0  0  0  0  0  0  0
   68.6104   75.5725   92.0140 C   0  0  0  0  0  0  0  0  0  0  0  0
   69.6498   75.8823   92.8944 C   0  0  0  0  0  0  0  0  0  0  0  0
   69.6113   77.0646   93.6380 C   0  0  0  0  0  0  0  0  0  0  0  0
   68.5333   77.9476   93.5111 C   0  0  0  0  0  0  0  0  0  0  0  0
   67.4651   77.6081   92.6594 C   0  0  0  0  0  0  0  0  0  0  0  0
   68.5705   79.1553   94.2275 O   0  0  0  0  0  0  0  0  0  0  0  0
   68.2576   80.4409   93.6863 C   0  0  0  0  0  0  0  0  0  0  0  0
   67.8195   81.3884   94.7744 C   0  0  0  0  0  0  0  0  0  0  0  0
   68.4822   81.3917   96.0123 C   0  0  0  0  0  0  0  0  0  0  0  0
   68.1001   82.2900   97.0132 C   0  0  0  0  0  0  0  0  0  0  0  0
   67.0532   83.1877   96.7877 C   0  0  0  0  0  0  0  0  0  0  0  0
   66.3810   83.1855   95.5613 C   0  0  0  0  0  0  0  0  0  0  0  0
   65.0743   84.3205   95.2742 Cl  0  0  0  0  0  0  0  0  0  0  0  0
   66.7564   82.2826   94.5600 C   0  0  0  0  0  0  0  0  0  0  0  0
   65.7997   76.3937   87.1691 C   0  0  0  0  0  0  0  0  0  0  0  0
   67.1824   76.6256   86.8949 O   0  0  0  0  0  0  0  0  0  0  0  0
   68.1591   80.1926   87.1833 C   0  0  0  0  0  0  0  0  0  0  0  0
   67.4846   79.0108   86.8230 C   0  0  0  0  0  0  0  0  0  0  0  0
   67.9108   77.7615   87.2870 C   0  0  0  0  0  0  0  0  0  0  0  0
   69.0419   77.6883   88.1174 C   0  0  0  0  0  0  0  0  0  0  0  0
   69.7245   78.8498   88.4798 C   0  0  0  0  0  0  0  0  0  0  0  0
   69.2962   80.1017   88.0184 C   0  0  0  0  0  0  0  0  0  0  0  0
   70.0035   81.2457   88.3883 O   0  0  0  0  0  0  0  0  0  0  0  0
   70.7557   81.1728   88.9423 H   0  0  0  0  0  0  0  0  0  0  0  0
   68.1223   82.0011   85.6184 O   0  0  0  0  0  0  0  0  0  0  0  0
   67.6591   81.4964   86.6764 C   0  0  0  0  0  0  0  0  0  0  0  0
   66.6674   82.1826   87.3735 O   0  0  0  0  0  0  0  0  0  0  0  0
   66.3128   81.8206   88.1616 H   0  0  0  0  0  0  0  0  0  0  0  0
 33 34  2  0  0  0
 34 35  1  0  0  0
 34 25  1  0  0  0
 25 26  2  0  0  0
 26 27  1  0  0  0
 27 24  1  0  0  0
 24 23  1  0  0  0
 23  1  1  0  0  0
  1  2  2  0  0  0
  2  3  1  0  0  0
  3  4  1  0  0  0
  3  5  2  0  0  0
  5  6  1  0  0  0
  6  8  1  0  0  0
  8  9  2  0  0  0
  9 10  1  0  0  0
 10 11  2  0  0  0
 11 12  1  0  0  0
 12 14  1  0  0  0
 14 15  1  0  0  0
 15 16  1  0  0  0
 16 17  2  0  0  0
 17 18  1  0  0  0
 18 19  2  0  0  0
 19 20  1  0  0  0
 20 21  1  0  0  0
 20 22  2  0  0  0
 12 13  2  0  0  0
  6  7  2  0  0  0
 27 28  2  0  0  0
 28 29  1  0  0  0
 29 30  2  0  0  0
 30 31  1  0  0  0
 30 25  1  0  0  0
  7  1  1  0  0  0
 13  8  1  0  0  0
 22 16  1  0  0  0
 35 36  1  0  0  0
 31 32  1  0  0  0
M  END
> <Activity>
14.5

> <minimizedAffinity>
-9.90749

$$$$
HIPS6295


 36 39  0  0  0  0  0  0  0  0999 V2000
   67.4511   74.8264   91.1241 C   0  0  0  0  0  0  0  0  0  0  0  0
   66.1680   74.2673   91.2162 C   0  0  0  0  0  0  0  0  0  0  0  0
   65.1716   74.6366   90.3085 C   0  0  0  0  0  0  0  0  0  0  0  0
   63.5742   73.9214   90.4224 Cl  0  0  0  0  0  0  0  0  0  0  0  0
   65.4524   75.5612   89.2986 C   0  0  0  0  0  0  0  0  0  0  0  0
   66.7286   76.1405   89.2016 C   0  0  0  0  0  0  0  0  0  0  0  0
   67.7192   75.7800   90.1296 C   0  0  0  0  0  0  0  0  0  0  0  0
   67.0508   77.0660   88.0929 C   0  0  0  0  0  0  0  0  0  0  0  0
   66.4285   76.9299   86.8416 C   0  0  0  0  0  0  0  0  0  0  0  0
   66.7054   77.8374   85.8163 C   0  0  0  0  0  0  0  0  0  0  0  0
   67.5808   78.9033   86.0394 C   0  0  0  0  0  0  0  0  0  0  0  0
   68.1898   79.0716   87.2879 C   0  0  0  0  0  0  0  0  0  0  0  0
   67.9458   78.1273   88.3031 C   0  0  0  0  0  0  0  0  0  0  0  0
   69.0091   80.1953   87.4860 O   0  0  0  0  0  0  0  0  0  0  0  0
   69.5311   80.6186   88.7477 C   0  0  0  0  0  0  0  0  0  0  0  0
   71.0195   80.3876   88.8167 C   0  0  0  0  0  0  0  0  0  0  0  0
   71.5227   79.0845   88.9588 C   0  0  0  0  0  0  0  0  0  0  0  0
   72.9027   78.8622   88.9917 C   0  0  0  0  0  0  0  0  0  0  0  0
   73.7891   79.9373   88.8867 C   0  0  0  0  0  0  0  0  0  0  0  0
   73.2973   81.2398   88.7543 C   0  0  0  0  0  0  0  0  0  0  0  0
   74.4103   82.5884   88.6109 Cl  0  0  0  0  0  0  0  0  0  0  0  0
   71.9165   81.4664   88.7284 C   0  0  0  0  0  0  0  0  0  0  0  0
   68.5361   74.3702   92.0625 C   0  0  0  0  0  0  0  0  0  0  0  0
   68.6123   75.2371   93.1955 O   0  0  0  0  0  0  0  0  0  0  0  0
   66.9332   78.4496   92.4074 C   0  0  0  0  0  0  0  0  0  0  0  0
   67.2540   77.0799   92.4575 C   0  0  0  0  0  0  0  0  0  0  0  0
   68.3591   76.6192   93.1815 C   0  0  0  0  0  0  0  0  0  0  0  0
   69.1693   77.5461   93.8590 C   0  0  0  0  0  0  0  0  0  0  0  0
   68.8678   78.9075   93.8154 C   0  0  0  0  0  0  0  0  0  0  0  0
   67.7591   79.3693   93.0934 C   0  0  0  0  0  0  0  0  0  0  0  0
   67.4869   80.7370   93.0585 O   0  0  0  0  0  0  0  0  0  0  0  0
   68.0415   81.3369   93.5172 H   0  0  0  0  0  0  0  0  0  0  0  0
   65.8654   79.4689   90.5255 O   0  0  0  0  0  0  0  0  0  0  0  0
   65.7411   78.8875   91.6368 C   0  0  0  0  0  0  0  0  0  0  0  0
   64.4623   78.6619   92.1409 O   0  0  0  0  0  0  0  0  0  0  0  0
   64.3531   78.2309   92.9657 H   0  0  0  0  0  0  0  0  0  0  0  0
 33 34  2  0  0  0
 34 35  1  0  0  0
 34 25  1  0  0  0
 25 26  2  0  0  0
 26 27  1  0  0  0
 27 24  1  0  0  0
 24 23  1  0  0  0
 23  1  1  0  0  0
  1  2  2  0  0  0
  2  3  1  0  0  0
  3  4  1  0  0  0
  3  5  2  0  0  0
  5  6  1  0  0  0
  6  8  1  0  0  0
  8  9  2  0  0  0
  9 10  1  0  0  0
 10 11  2  0  0  0
 11 12  1  0  0  0
 12 14  1  0  0  0
 14 15  1  0  0  0
 15 16  1  0  0  0
 16 17  2  0  0  0
 17 18  1  0  0  0
 18 19  2  0  0  0
 19 20  1  0  0  0
 20 21  1  0  0  0
 20 22  2  0  0  0
 12 13  2  0  0  0
  6  7  2  0  0  0
 27 28  2  0  0  0
 28 29  1  0  0  0
 29 30  2  0  0  0
 30 31  1  0  0  0
 30 25  1  0  0  0
  7  1  1  0  0  0
 13  8  1  0  0  0
 22 16  1  0  0  0
 35 36  1  0  0  0
 31 32  1  0  0  0
M  END
> <Activity>
14.5

> <minimizedAffinity>
-9.77940

$$$$
HIPS6295


 36 39  0  0  0  0  0  0  0  0999 V2000
   68.0640   74.6289   91.6805 C   0  0  0  0  0  0  0  0  0  0  0  0
   68.5803   75.2245   92.8408 C   0  0  0  0  0  0  0  0  0  0  0  0
   69.0550   76.5385   92.8069 C   0  0  0  0  0  0  0  0  0  0  0  0
   69.6853   77.2800   94.2660 Cl  0  0  0  0  0  0  0  0  0  0  0  0
   69.0104   77.2685   91.6157 C   0  0  0  0  0  0  0  0  0  0  0  0
   68.5091   76.6814   90.4420 C   0  0  0  0  0  0  0  0  0  0  0  0
   68.0526   75.3537   90.4785 C   0  0  0  0  0  0  0  0  0  0  0  0
   68.3951   77.4722   89.1965 C   0  0  0  0  0  0  0  0  0  0  0  0
   67.5175   77.0770   88.1741 C   0  0  0  0  0  0  0  0  0  0  0  0
   67.3835   77.8562   87.0225 C   0  0  0  0  0  0  0  0  0  0  0  0
   68.1000   79.0489   86.8943 C   0  0  0  0  0  0  0  0  0  0  0  0
   68.9589   79.4735   87.9141 C   0  0  0  0  0  0  0  0  0  0  0  0
   69.1279   78.6610   89.0512 C   0  0  0  0  0  0  0  0  0  0  0  0
   69.6061   80.7119   87.7705 O   0  0  0  0  0  0  0  0  0  0  0  0
   70.1574   81.4793   88.8432 C   0  0  0  0  0  0  0  0  0  0  0  0
   71.6631   81.3982   88.8417 C   0  0  0  0  0  0  0  0  0  0  0  0
   72.4303   82.5733   88.8871 C   0  0  0  0  0  0  0  0  0  0  0  0
   73.8262   82.5021   88.9176 C   0  0  0  0  0  0  0  0  0  0  0  0
   74.4659   81.2599   88.8994 C   0  0  0  0  0  0  0  0  0  0  0  0
   73.7105   80.0842   88.8448 C   0  0  0  0  0  0  0  0  0  0  0  0
   74.5133   78.5242   88.8336 Cl  0  0  0  0  0  0  0  0  0  0  0  0
   72.3131   80.1523   88.8068 C   0  0  0  0  0  0  0  0  0  0  0  0
   67.4913   73.2382   91.7437 C   0  0  0  0  0  0  0  0  0  0  0  0
   66.1111   73.2835   92.1093 O   0  0  0  0  0  0  0  0  0  0  0  0
   64.1232   76.1040   90.7476 C   0  0  0  0  0  0  0  0  0  0  0  0
   65.0960   75.3591   91.4407 C   0  0  0  0  0  0  0  0  0  0  0  0
   65.1033   73.9606   91.4017 C   0  0  0  0  0  0  0  0  0  0  0  0
   64.1110   73.2903   90.6665 C   0  0  0  0  0  0  0  0  0  0  0  0
   63.1369   74.0136   89.9780 C   0  0  0  0  0  0  0  0  0  0  0  0
   63.1310   75.4145   90.0136 C   0  0  0  0  0  0  0  0  0  0  0  0
   62.1392   76.1122   89.3241 O   0  0  0  0  0  0  0  0  0  0  0  0
   61.4868   75.6441   88.8410 H   0  0  0  0  0  0  0  0  0  0  0  0
   64.7864   78.2541   89.9365 O   0  0  0  0  0  0  0  0  0  0  0  0
   64.1665   77.5876   90.8083 C   0  0  0  0  0  0  0  0  0  0  0  0
   63.5202   78.2634   91.8408 O   0  0  0  0  0  0  0  0  0  0  0  0
   63.0550   77.7822   92.4966 H   0  0  0  0  0  0  0  0  0  0  0  0
 33 34  2  0  0  0
 34 35  1  0  0  0
 34 25  1  0  0  0
 25 26  2  0  0  0
 26 27  1  0  0  0
 27 24  1  0  0  0
 24 23  1  0  0  0
 23  1  1  0  0  0
  1  2  2  0  0  0
  2  3  1  0  0  0
  3  4  1  0  0  0
  3  5  2  0  0  0
  5  6  1  0  0  0
  6  8  1  0  0  0
  8  9  2  0  0  0
  9 10  1  0  0  0
 10 11  2  0  0  0
 11 12  1  0  0  0
 12 14  1  0  0  0
 14 15  1  0  0  0
 15 16  1  0  0  0
 16 17  2  0  0  0
 17 18  1  0  0  0
 18 19  2  0  0  0
 19 20  1  0  0  0
 20 21  1  0  0  0
 20 22  2  0  0  0
 12 13  2  0  0  0
  6  7  2  0  0  0
 27 28  2  0  0  0
 28 29  1  0  0  0
 29 30  2  0  0  0
 30 31  1  0  0  0
 30 25  1  0  0  0
  7  1  1  0  0  0
 13  8  1  0  0  0
 22 16  1  0  0  0
 35 36  1  0  0  0
 31 32  1  0  0  0
M  END
> <Activity>
14.5

> <minimizedAffinity>
-9.55107

$$$$
HIPS6295


 36 39  0  0  0  0  0  0  0  0999 V2000
   64.0497   74.4285   91.2831 C   0  0  0  0  0  0  0  0  0  0  0  0
   63.7989   73.0560   91.1380 C   0  0  0  0  0  0  0  0  0  0  0  0
   64.8555   72.1414   91.1521 C   0  0  0  0  0  0  0  0  0  0  0  0
   64.5311   70.4258   90.9847 Cl  0  0  0  0  0  0  0  0  0  0  0  0
   66.1685   72.5909   91.3184 C   0  0  0  0  0  0  0  0  0  0  0  0
   66.4372   73.9634   91.4510 C   0  0  0  0  0  0  0  0  0  0  0  0
   65.3726   74.8787   91.4156 C   0  0  0  0  0  0  0  0  0  0  0  0
   67.8170   74.4380   91.6973 C   0  0  0  0  0  0  0  0  0  0  0  0
   68.6771   73.7295   92.5516 C   0  0  0  0  0  0  0  0  0  0  0  0
   69.9923   74.1607   92.7405 C   0  0  0  0  0  0  0  0  0  0  0  0
   70.4684   75.2827   92.0572 C   0  0  0  0  0  0  0  0  0  0  0  0
   69.6348   75.9859   91.1806 C   0  0  0  0  0  0  0  0  0  0  0  0
   68.2962   75.5770   91.0305 C   0  0  0  0  0  0  0  0  0  0  0  0
   70.1768   77.0663   90.4649 O   0  0  0  0  0  0  0  0  0  0  0  0
   71.3562   77.0083   89.6592 C   0  0  0  0  0  0  0  0  0  0  0  0
   71.8084   78.3931   89.2703 C   0  0  0  0  0  0  0  0  0  0  0  0
   73.1776   78.6736   89.1357 C   0  0  0  0  0  0  0  0  0  0  0  0
   73.6004   79.9476   88.7448 C   0  0  0  0  0  0  0  0  0  0  0  0
   72.6615   80.9506   88.4892 C   0  0  0  0  0  0  0  0  0  0  0  0
   71.2959   80.6835   88.6297 C   0  0  0  0  0  0  0  0  0  0  0  0
   70.1168   81.9394   88.2976 Cl  0  0  0  0  0  0  0  0  0  0  0  0
   70.8698   79.4112   89.0279 C   0  0  0  0  0  0  0  0  0  0  0  0
   62.8998   75.3984   91.3366 C   0  0  0  0  0  0  0  0  0  0  0  0
   63.0891   76.4490   90.3872 O   0  0  0  0  0  0  0  0  0  0  0  0
   66.2427   77.3405   88.6493 C   0  0  0  0  0  0  0  0  0  0  0  0
   65.0210   76.7251   88.9811 C   0  0  0  0  0  0  0  0  0  0  0  0
   64.3068   77.0992   90.1246 C   0  0  0  0  0  0  0  0  0  0  0  0
   64.8291   78.0992   90.9622 C   0  0  0  0  0  0  0  0  0  0  0  0
   66.0411   78.7156   90.6500 C   0  0  0  0  0  0  0  0  0  0  0  0
   66.7552   78.3440   89.5030 C   0  0  0  0  0  0  0  0  0  0  0  0
   67.9695   78.9698   89.2206 O   0  0  0  0  0  0  0  0  0  0  0  0
   68.2991   79.6336   89.7939 H   0  0  0  0  0  0  0  0  0  0  0  0
   68.1685   76.5756   87.4547 O   0  0  0  0  0  0  0  0  0  0  0  0
   66.9562   76.9183   87.4166 C   0  0  0  0  0  0  0  0  0  0  0  0
   66.2881   76.9006   86.1945 O   0  0  0  0  0  0  0  0  0  0  0  0
   65.3867   77.1526   86.1496 H   0  0  0  0  0  0  0  0  0  0  0  0
 33 34  2  0  0  0
 34 35  1  0  0  0
 34 25  1  0  0  0
 25 26  2  0  0  0
 26 27  1  0  0  0
 27 24  1  0  0  0
 24 23  1  0  0  0
 23  1  1  0  0  0
  1  2  2  0  0  0
  2  3  1  0  0  0
  3  4  1  0  0  0
  3  5  2  0  0  0
  5  6  1  0  0  0
  6  8  1  0  0  0
  8  9  2  0  0  0
  9 10  1  0  0  0
 10 11  2  0  0  0
 11 12  1  0  0  0
 12 14  1  0  0  0
 14 15  1  0  0  0
 15 16  1  0  0  0
 16 17  2  0  0  0
 17 18  1  0  0  0
 18 19  2  0  0  0
 19 20  1  0  0  0
 20 21  1  0  0  0
 20 22  2  0  0  0
 12 13  2  0  0  0
  6  7  2  0  0  0
 27 28  2  0  0  0
 28 29  1  0  0  0
 29 30  2  0  0  0
 30 31  1  0  0  0
 30 25  1  0  0  0
  7  1  1  0  0  0
 13  8  1  0  0  0
 22 16  1  0  0  0
 35 36  1  0  0  0
 31 32  1  0  0  0
M  END
> <Activity>
14.5

> <minimizedAffinity>
-9.04084

$$$$
HIPS6295


 36 39  0  0  0  0  0  0  0  0999 V2000
   66.3960   76.5112   87.7921 C   0  0  0  0  0  0  0  0  0  0  0  0
   65.0747   76.0651   87.9432 C   0  0  0  0  0  0  0  0  0  0  0  0
   64.5825   75.7360   89.2091 C   0  0  0  0  0  0  0  0  0  0  0  0
   62.9246   75.1930   89.3902 Cl  0  0  0  0  0  0  0  0  0  0  0  0
   65.4044   75.8573   90.3331 C   0  0  0  0  0  0  0  0  0  0  0  0
   66.7342   76.2894   90.1965 C   0  0  0  0  0  0  0  0  0  0  0  0
   67.2284   76.5990   88.9189 C   0  0  0  0  0  0  0  0  0  0  0  0
   67.5860   76.4862   91.3904 C   0  0  0  0  0  0  0  0  0  0  0  0
   68.6573   75.6188   91.6576 C   0  0  0  0  0  0  0  0  0  0  0  0
   69.4834   75.8413   92.7619 C   0  0  0  0  0  0  0  0  0  0  0  0
   69.2663   76.9455   93.5902 C   0  0  0  0  0  0  0  0  0  0  0  0
   68.2206   77.8366   93.3247 C   0  0  0  0  0  0  0  0  0  0  0  0
   67.3610   77.5817   92.2394 C   0  0  0  0  0  0  0  0  0  0  0  0
   68.0827   78.9687   94.1447 O   0  0  0  0  0  0  0  0  0  0  0  0
   68.3758   80.3104   93.7480 C   0  0  0  0  0  0  0  0  0  0  0  0
   67.9243   81.2913   94.8003 C   0  0  0  0  0  0  0  0  0  0  0  0
   68.5706   81.3327   96.0461 C   0  0  0  0  0  0  0  0  0  0  0  0
   68.1761   82.2618   97.0136 C   0  0  0  0  0  0  0  0  0  0  0  0
   67.1330   83.1525   96.7467 C   0  0  0  0  0  0  0  0  0  0  0  0
   66.4770   83.1126   95.5122 C   0  0  0  0  0  0  0  0  0  0  0  0
   65.1751   84.2386   95.1728 Cl  0  0  0  0  0  0  0  0  0  0  0  0
   66.8648   82.1790   94.5444 C   0  0  0  0  0  0  0  0  0  0  0  0
   66.8948   76.9294   86.4348 C   0  0  0  0  0  0  0  0  0  0  0  0
   66.8439   78.3508   86.3012 O   0  0  0  0  0  0  0  0  0  0  0  0
   69.7671   79.5970   88.2150 C   0  0  0  0  0  0  0  0  0  0  0  0
   68.7741   78.7561   87.6781 C   0  0  0  0  0  0  0  0  0  0  0  0
   67.7975   79.2507   86.8067 C   0  0  0  0  0  0  0  0  0  0  0  0
   67.8035   80.6160   86.4744 C   0  0  0  0  0  0  0  0  0  0  0  0
   68.7780   81.4637   87.0019 C   0  0  0  0  0  0  0  0  0  0  0  0
   69.7585   80.9684   87.8718 C   0  0  0  0  0  0  0  0  0  0  0  0
   70.7147   81.8405   88.3924 O   0  0  0  0  0  0  0  0  0  0  0  0
   70.6989   82.7475   88.1576 H   0  0  0  0  0  0  0  0  0  0  0  0
   70.5103   78.0609   89.8911 O   0  0  0  0  0  0  0  0  0  0  0  0
   70.7909   79.0213   89.1245 C   0  0  0  0  0  0  0  0  0  0  0  0
   72.0818   79.5441   89.1428 O   0  0  0  0  0  0  0  0  0  0  0  0
   72.3062   80.2581   88.5789 H   0  0  0  0  0  0  0  0  0  0  0  0
 33 34  2  0  0  0
 34 35  1  0  0  0
 34 25  1  0  0  0
 25 26  2  0  0  0
 26 27  1  0  0  0
 27 24  1  0  0  0
 24 23  1  0  0  0
 23  1  1  0  0  0
  1  2  2  0  0  0
  2  3  1  0  0  0
  3  4  1  0  0  0
  3  5  2  0  0  0
  5  6  1  0  0  0
  6  8  1  0  0  0
  8  9  2  0  0  0
  9 10  1  0  0  0
 10 11  2  0  0  0
 11 12  1  0  0  0
 12 14  1  0  0  0
 14 15  1  0  0  0
 15 16  1  0  0  0
 16 17  2  0  0  0
 17 18  1  0  0  0
 18 19  2  0  0  0
 19 20  1  0  0  0
 20 21  1  0  0  0
 20 22  2  0  0  0
 12 13  2  0  0  0
  6  7  2  0  0  0
 27 28  2  0  0  0
 28 29  1  0  0  0
 29 30  2  0  0  0
 30 31  1  0  0  0
 30 25  1  0  0  0
  7  1  1  0  0  0
 13  8  1  0  0  0
 22 16  1  0  0  0
 35 36  1  0  0  0
 31 32  1  0  0  0
M  END
> <Activity>
14.5

> <minimizedAffinity>
-8.90873

$$$$
HIPS6295


 36 39  0  0  0  0  0  0  0  0999 V2000
   70.1171   75.7736   91.0004 C   0  0  0  0  0  0  0  0  0  0  0  0
   71.2273   76.5815   90.7137 C   0  0  0  0  0  0  0  0  0  0  0  0
   71.2252   77.4079   89.5867 C   0  0  0  0  0  0  0  0  0  0  0  0
   72.6121   78.4256   89.2442 Cl  0  0  0  0  0  0  0  0  0  0  0  0
   70.1115   77.4381   88.7427 C   0  0  0  0  0  0  0  0  0  0  0  0
   68.9975   76.6245   89.0086 C   0  0  0  0  0  0  0  0  0  0  0  0
   69.0146   75.7814   90.1316 C   0  0  0  0  0  0  0  0  0  0  0  0
   67.7892   76.7046   88.1581 C   0  0  0  0  0  0  0  0  0  0  0  0
   67.8866   77.0739   86.8069 C   0  0  0  0  0  0  0  0  0  0  0  0
   66.7456   77.1013   86.0016 C   0  0  0  0  0  0  0  0  0  0  0  0
   65.5051   76.7327   86.5285 C   0  0  0  0  0  0  0  0  0  0  0  0
   65.3921   76.3355   87.8655 C   0  0  0  0  0  0  0  0  0  0  0  0
   66.5357   76.3561   88.6862 C   0  0  0  0  0  0  0  0  0  0  0  0
   64.1377   75.9093   88.3325 O   0  0  0  0  0  0  0  0  0  0  0  0
   63.5587   76.2807   89.5856 C   0  0  0  0  0  0  0  0  0  0  0  0
   63.4177   75.0806   90.4875 C   0  0  0  0  0  0  0  0  0  0  0  0
   62.3709   75.0225   91.4215 C   0  0  0  0  0  0  0  0  0  0  0  0
   62.2174   73.8981   92.2382 C   0  0  0  0  0  0  0  0  0  0  0  0
   63.1083   72.8268   92.1316 C   0  0  0  0  0  0  0  0  0  0  0  0
   64.1597   72.8795   91.2109 C   0  0  0  0  0  0  0  0  0  0  0  0
   65.2712   71.5296   91.0689 Cl  0  0  0  0  0  0  0  0  0  0  0  0
   64.3202   74.0067   90.3970 C   0  0  0  0  0  0  0  0  0  0  0  0
   70.1009   74.9401   92.2537 C   0  0  0  0  0  0  0  0  0  0  0  0
   69.1674   75.4729   93.1948 O   0  0  0  0  0  0  0  0  0  0  0  0
   67.1399   78.4908   92.4586 C   0  0  0  0  0  0  0  0  0  0  0  0
   67.6371   77.1738   92.4531 C   0  0  0  0  0  0  0  0  0  0  0  0
   68.7324   76.8082   93.2431 C   0  0  0  0  0  0  0  0  0  0  0  0
   69.3535   77.7801   94.0456 C   0  0  0  0  0  0  0  0  0  0  0  0
   68.8759   79.0909   94.0588 C   0  0  0  0  0  0  0  0  0  0  0  0
   67.7767   79.4571   93.2706 C   0  0  0  0  0  0  0  0  0  0  0  0
   67.3266   80.7772   93.2955 O   0  0  0  0  0  0  0  0  0  0  0  0
   67.7568   81.4087   93.8377 H   0  0  0  0  0  0  0  0  0  0  0  0
   66.1120   79.1938   90.4165 O   0  0  0  0  0  0  0  0  0  0  0  0
   65.9654   78.8261   91.6132 C   0  0  0  0  0  0  0  0  0  0  0  0
   64.6787   78.7410   92.1400 O   0  0  0  0  0  0  0  0  0  0  0  0
   64.5530   78.4693   93.0279 H   0  0  0  0  0  0  0  0  0  0  0  0
 33 34  2  0  0  0
 34 35  1  0  0  0
 34 25  1  0  0  0
 25 26  2  0  0  0
 26 27  1  0  0  0
 27 24  1  0  0  0
 24 23  1  0  0  0
 23  1  1  0  0  0
  1  2  2  0  0  0
  2  3  1  0  0  0
  3  4  1  0  0  0
  3  5  2  0  0  0
  5  6  1  0  0  0
  6  8  1  0  0  0
  8  9  2  0  0  0
  9 10  1  0  0  0
 10 11  2  0  0  0
 11 12  1  0  0  0
 12 14  1  0  0  0
 14 15  1  0  0  0
 15 16  1  0  0  0
 16 17  2  0  0  0
 17 18  1  0  0  0
 18 19  2  0  0  0
 19 20  1  0  0  0
 20 21  1  0  0  0
 20 22  2  0  0  0
 12 13  2  0  0  0
  6  7  2  0  0  0
 27 28  2  0  0  0
 28 29  1  0  0  0
 29 30  2  0  0  0
 30 31  1  0  0  0
 30 25  1  0  0  0
  7  1  1  0  0  0
 13  8  1  0  0  0
 22 16  1  0  0  0
 35 36  1  0  0  0
 31 32  1  0  0  0
M  END
> <Activity>
14.5

> <minimizedAffinity>
-8.83038

$$$$
HIPS6295


 36 39  0  0  0  0  0  0  0  0999 V2000
   70.1574   75.9643   91.5272 C   0  0  0  0  0  0  0  0  0  0  0  0
   70.0153   76.9235   92.5407 C   0  0  0  0  0  0  0  0  0  0  0  0
   68.8023   77.0540   93.2223 C   0  0  0  0  0  0  0  0  0  0  0  0
   68.6383   78.2463   94.4982 Cl  0  0  0  0  0  0  0  0  0  0  0  0
   67.7257   76.2225   92.9009 C   0  0  0  0  0  0  0  0  0  0  0  0
   67.8479   75.2665   91.8788 C   0  0  0  0  0  0  0  0  0  0  0  0
   69.0633   75.1546   91.1843 C   0  0  0  0  0  0  0  0  0  0  0  0
   66.7347   74.3375   91.5827 C   0  0  0  0  0  0  0  0  0  0  0  0
   66.9517   72.9511   91.5338 C   0  0  0  0  0  0  0  0  0  0  0  0
   65.8847   72.0805   91.2994 C   0  0  0  0  0  0  0  0  0  0  0  0
   64.5903   72.5825   91.1418 C   0  0  0  0  0  0  0  0  0  0  0  0
   64.3496   73.9590   91.2144 C   0  0  0  0  0  0  0  0  0  0  0  0
   65.4346   74.8361   91.4021 C   0  0  0  0  0  0  0  0  0  0  0  0
   63.0234   74.4117   91.1175 O   0  0  0  0  0  0  0  0  0  0  0  0
   62.6105   75.6064   90.4498 C   0  0  0  0  0  0  0  0  0  0  0  0
   63.7955   76.4885   90.1477 C   0  0  0  0  0  0  0  0  0  0  0  0
   64.1101   77.5592   90.9999 C   0  0  0  0  0  0  0  0  0  0  0  0
   65.2261   78.3606   90.7413 C   0  0  0  0  0  0  0  0  0  0  0  0
   66.0331   78.1021   89.6301 C   0  0  0  0  0  0  0  0  0  0  0  0
   65.7224   77.0437   88.7703 C   0  0  0  0  0  0  0  0  0  0  0  0
   66.7422   76.7120   87.3818 Cl  0  0  0  0  0  0  0  0  0  0  0  0
   64.6017   76.2442   89.0224 C   0  0  0  0  0  0  0  0  0  0  0  0
   71.4884   75.7844   90.8474 C   0  0  0  0  0  0  0  0  0  0  0  0
   71.4531   76.3331   89.5289 O   0  0  0  0  0  0  0  0  0  0  0  0
   71.6681   79.9794   88.8818 C   0  0  0  0  0  0  0  0  0  0  0  0
   72.0044   78.6526   89.2104 C   0  0  0  0  0  0  0  0  0  0  0  0
   71.0428   77.6363   89.2003 C   0  0  0  0  0  0  0  0  0  0  0  0
   69.7147   77.9527   88.8682 C   0  0  0  0  0  0  0  0  0  0  0  0
   69.3640   79.2637   88.5447 C   0  0  0  0  0  0  0  0  0  0  0  0
   70.3272   80.2815   88.5511 C   0  0  0  0  0  0  0  0  0  0  0  0
   69.9467   81.5855   88.2335 O   0  0  0  0  0  0  0  0  0  0  0  0
   69.0549   81.7734   88.0160 H   0  0  0  0  0  0  0  0  0  0  0  0
   73.8998   80.7561   88.5116 O   0  0  0  0  0  0  0  0  0  0  0  0
   72.7280   81.0203   88.8930 C   0  0  0  0  0  0  0  0  0  0  0  0
   72.4361   82.3092   89.3331 O   0  0  0  0  0  0  0  0  0  0  0  0
   71.5697   82.5215   89.6199 H   0  0  0  0  0  0  0  0  0  0  0  0
 33 34  2  0  0  0
 34 35  1  0  0  0
 34 25  1  0  0  0
 25 26  2  0  0  0
 26 27  1  0  0  0
 27 24  1  0  0  0
 24 23  1  0  0  0
 23  1  1  0  0  0
  1  2  2  0  0  0
  2  3  1  0  0  0
  3  4  1  0  0  0
  3  5  2  0  0  0
  5  6  1  0  0  0
  6  8  1  0  0  0
  8  9  2  0  0  0
  9 10  1  0  0  0
 10 11  2  0  0  0
 11 12  1  0  0  0
 12 14  1  0  0  0
 14 15  1  0  0  0
 15 16  1  0  0  0
 16 17  2  0  0  0
 17 18  1  0  0  0
 18 19  2  0  0  0
 19 20  1  0  0  0
 20 21  1  0  0  0
 20 22  2  0  0  0
 12 13  2  0  0  0
  6  7  2  0  0  0
 27 28  2  0  0  0
 28 29  1  0  0  0
 29 30  2  0  0  0
 30 31  1  0  0  0
 30 25  1  0  0  0
  7  1  1  0  0  0
 13  8  1  0  0  0
 22 16  1  0  0  0
 35 36  1  0  0  0
 31 32  1  0  0  0
M  END
> <Activity>
14.5

> <minimizedAffinity>
-8.82754

$$$$
HIPS6295


 36 39  0  0  0  0  0  0  0  0999 V2000
   67.3447   73.2905   91.7545 C   0  0  0  0  0  0  0  0  0  0  0  0
   68.4972   72.6152   92.1825 C   0  0  0  0  0  0  0  0  0  0  0  0
   69.6353   73.3332   92.5599 C   0  0  0  0  0  0  0  0  0  0  0  0
   71.0670   72.4808   93.1077 Cl  0  0  0  0  0  0  0  0  0  0  0  0
   69.6271   74.7303   92.5192 C   0  0  0  0  0  0  0  0  0  0  0  0
   68.4853   75.4207   92.0796 C   0  0  0  0  0  0  0  0  0  0  0  0
   67.3522   74.6923   91.6825 C   0  0  0  0  0  0  0  0  0  0  0  0
   68.4477   76.8998   92.1012 C   0  0  0  0  0  0  0  0  0  0  0  0
   68.0493   77.5901   93.2572 C   0  0  0  0  0  0  0  0  0  0  0  0
   68.0620   78.9868   93.2814 C   0  0  0  0  0  0  0  0  0  0  0  0
   68.4995   79.7046   92.1653 C   0  0  0  0  0  0  0  0  0  0  0  0
   68.9262   79.0343   91.0136 C   0  0  0  0  0  0  0  0  0  0  0  0
   68.8658   77.6284   90.9760 C   0  0  0  0  0  0  0  0  0  0  0  0
   69.4209   79.7956   89.9417 O   0  0  0  0  0  0  0  0  0  0  0  0
   70.1088   79.2651   88.8064 C   0  0  0  0  0  0  0  0  0  0  0  0
   71.5707   79.6323   88.8457 C   0  0  0  0  0  0  0  0  0  0  0  0
   72.5456   78.6266   88.9425 C   0  0  0  0  0  0  0  0  0  0  0  0
   73.9034   78.9601   88.9475 C   0  0  0  0  0  0  0  0  0  0  0  0
   74.2974   80.2980   88.8599 C   0  0  0  0  0  0  0  0  0  0  0  0
   73.3334   81.3074   88.7727 C   0  0  0  0  0  0  0  0  0  0  0  0
   73.8283   82.9862   88.6510 Cl  0  0  0  0  0  0  0  0  0  0  0  0
   71.9733   80.9772   88.7747 C   0  0  0  0  0  0  0  0  0  0  0  0
   66.1018   72.5112   91.4170 C   0  0  0  0  0  0  0  0  0  0  0  0
   64.9360   73.2377   91.8093 O   0  0  0  0  0  0  0  0  0  0  0  0
   64.3654   76.6472   90.4637 C   0  0  0  0  0  0  0  0  0  0  0  0
   64.9015   75.5579   91.1763 C   0  0  0  0  0  0  0  0  0  0  0  0
   64.3414   74.2796   91.0775 C   0  0  0  0  0  0  0  0  0  0  0  0
   63.2143   74.0864   90.2610 C   0  0  0  0  0  0  0  0  0  0  0  0
   62.6680   75.1565   89.5520 C   0  0  0  0  0  0  0  0  0  0  0  0
   63.2305   76.4364   89.6475 C   0  0  0  0  0  0  0  0  0  0  0  0
   62.6577   77.4903   88.9355 O   0  0  0  0  0  0  0  0  0  0  0  0
   61.9055   77.3383   88.3978 H   0  0  0  0  0  0  0  0  0  0  0  0
   64.9009   78.6520   91.6530 O   0  0  0  0  0  0  0  0  0  0  0  0
   65.0048   77.9820   90.5905 C   0  0  0  0  0  0  0  0  0  0  0  0
   65.7285   78.5136   89.5257 O   0  0  0  0  0  0  0  0  0  0  0  0
   65.8149   78.0278   88.7291 H   0  0  0  0  0  0  0  0  0  0  0  0
 33 34  2  0  0  0
 34 35  1  0  0  0
 34 25  1  0  0  0
 25 26  2  0  0  0
 26 27  1  0  0  0
 27 24  1  0  0  0
 24 23  1  0  0  0
 23  1  1  0  0  0
  1  2  2  0  0  0
  2  3  1  0  0  0
  3  4  1  0  0  0
  3  5  2  0  0  0
  5  6  1  0  0  0
  6  8  1  0  0  0
  8  9  2  0  0  0
  9 10  1  0  0  0
 10 11  2  0  0  0
 11 12  1  0  0  0
 12 14  1  0  0  0
 14 15  1  0  0  0
 15 16  1  0  0  0
 16 17  2  0  0  0
 17 18  1  0  0  0
 18 19  2  0  0  0
 19 20  1  0  0  0
 20 21  1  0  0  0
 20 22  2  0  0  0
 12 13  2  0  0  0
  6  7  2  0  0  0
 27 28  2  0  0  0
 28 29  1  0  0  0
 29 30  2  0  0  0
 30 31  1  0  0  0
 30 25  1  0  0  0
  7  1  1  0  0  0
 13  8  1  0  0  0
 22 16  1  0  0  0
 35 36  1  0  0  0
 31 32  1  0  0  0
M  END
> <Activity>
14.5

> <minimizedAffinity>
-8.69429

$$$$
HIPS6295


 36 39  0  0  0  0  0  0  0  0999 V2000
   70.4474   76.3672   90.4504 C   0  0  0  0  0  0  0  0  0  0  0  0
   70.5973   75.1929   91.2029 C   0  0  0  0  0  0  0  0  0  0  0  0
   69.5828   74.7772   92.0695 C   0  0  0  0  0  0  0  0  0  0  0  0
   69.7727   73.2997   92.9955 Cl  0  0  0  0  0  0  0  0  0  0  0  0
   68.4092   75.5276   92.1848 C   0  0  0  0  0  0  0  0  0  0  0  0
   68.2500   76.7133   91.4484 C   0  0  0  0  0  0  0  0  0  0  0  0
   69.2819   77.1360   90.5947 C   0  0  0  0  0  0  0  0  0  0  0  0
   66.9820   77.4733   91.5140 C   0  0  0  0  0  0  0  0  0  0  0  0
   66.8948   78.6595   92.2604 C   0  0  0  0  0  0  0  0  0  0  0  0
   65.7064   79.3935   92.2776 C   0  0  0  0  0  0  0  0  0  0  0  0
   64.6067   78.9671   91.5285 C   0  0  0  0  0  0  0  0  0  0  0  0
   64.6828   77.8023   90.7568 C   0  0  0  0  0  0  0  0  0  0  0  0
   65.8659   77.0397   90.7807 C   0  0  0  0  0  0  0  0  0  0  0  0
   63.5755   77.4498   89.9676 O   0  0  0  0  0  0  0  0  0  0  0  0
   63.4069   76.1953   89.3033 C   0  0  0  0  0  0  0  0  0  0  0  0
   63.4754   75.0545   90.2869 C   0  0  0  0  0  0  0  0  0  0  0  0
   62.3957   74.8037   91.1488 C   0  0  0  0  0  0  0  0  0  0  0  0
   62.4417   73.7280   92.0407 C   0  0  0  0  0  0  0  0  0  0  0  0
   63.5653   72.8981   92.0815 C   0  0  0  0  0  0  0  0  0  0  0  0
   64.6496   73.1455   91.2335 C   0  0  0  0  0  0  0  0  0  0  0  0
   66.0553   72.0967   91.2766 Cl  0  0  0  0  0  0  0  0  0  0  0  0
   64.6095   74.2259   90.3447 C   0  0  0  0  0  0  0  0  0  0  0  0
   71.5153   76.7689   89.4684 C   0  0  0  0  0  0  0  0  0  0  0  0
   71.7131   78.1834   89.4979 O   0  0  0  0  0  0  0  0  0  0  0  0
   68.8173   79.5984   87.6614 C   0  0  0  0  0  0  0  0  0  0  0  0
   69.6857   78.7016   88.3120 C   0  0  0  0  0  0  0  0  0  0  0  0
   70.9018   79.1325   88.8533 C   0  0  0  0  0  0  0  0  0  0  0  0
   71.2656   80.4843   88.7314 C   0  0  0  0  0  0  0  0  0  0  0  0
   70.4184   81.3849   88.0853 C   0  0  0  0  0  0  0  0  0  0  0  0
   69.1986   80.9549   87.5460 C   0  0  0  0  0  0  0  0  0  0  0  0
   68.3756   81.8749   86.8964 O   0  0  0  0  0  0  0  0  0  0  0  0
   68.6390   82.7714   86.8262 H   0  0  0  0  0  0  0  0  0  0  0  0
   67.1163   79.4670   85.9851 O   0  0  0  0  0  0  0  0  0  0  0  0
   67.5305   79.0951   87.1159 C   0  0  0  0  0  0  0  0  0  0  0  0
   66.7596   78.2023   87.8568 O   0  0  0  0  0  0  0  0  0  0  0  0
   67.0538   77.9164   88.6992 H   0  0  0  0  0  0  0  0  0  0  0  0
 33 34  2  0  0  0
 34 35  1  0  0  0
 34 25  1  0  0  0
 25 26  2  0  0  0
 26 27  1  0  0  0
 27 24  1  0  0  0
 24 23  1  0  0  0
 23  1  1  0  0  0
  1  2  2  0  0  0
  2  3  1  0  0  0
  3  4  1  0  0  0
  3  5  2  0  0  0
  5  6  1  0  0  0
  6  8  1  0  0  0
  8  9  2  0  0  0
  9 10  1  0  0  0
 10 11  2  0  0  0
 11 12  1  0  0  0
 12 14  1  0  0  0
 14 15  1  0  0  0
 15 16  1  0  0  0
 16 17  2  0  0  0
 17 18  1  0  0  0
 18 19  2  0  0  0
 19 20  1  0  0  0
 20 21  1  0  0  0
 20 22  2  0  0  0
 12 13  2  0  0  0
  6  7  2  0  0  0
 27 28  2  0  0  0
 28 29  1  0  0  0
 29 30  2  0  0  0
 30 31  1  0  0  0
 30 25  1  0  0  0
  7  1  1  0  0  0
 13  8  1  0  0  0
 22 16  1  0  0  0
 35 36  1  0  0  0
 31 32  1  0  0  0
M  END
> <Activity>
14.5

> <minimizedAffinity>
-8.67929

$$$$
HIPS6295


 36 39  0  0  0  0  0  0  0  0999 V2000
   70.9168   80.2947   88.6968 C   0  0  0  0  0  0  0  0  0  0  0  0
   72.2456   80.0032   88.3547 C   0  0  0  0  0  0  0  0  0  0  0  0
   72.8562   78.8392   88.8293 C   0  0  0  0  0  0  0  0  0  0  0  0
   74.5134   78.4756   88.3845 Cl  0  0  0  0  0  0  0  0  0  0  0  0
   72.1414   77.9552   89.6425 C   0  0  0  0  0  0  0  0  0  0  0  0
   70.8144   78.2400   90.0053 C   0  0  0  0  0  0  0  0  0  0  0  0
   70.2137   79.4216   89.5414 C   0  0  0  0  0  0  0  0  0  0  0  0
   70.0316   77.2739   90.8076 C   0  0  0  0  0  0  0  0  0  0  0  0
   70.6470   76.1440   91.3699 C   0  0  0  0  0  0  0  0  0  0  0  0
   69.9086   75.2635   92.1641 C   0  0  0  0  0  0  0  0  0  0  0  0
   68.5603   75.5181   92.4278 C   0  0  0  0  0  0  0  0  0  0  0  0
   67.9361   76.6532   91.8990 C   0  0  0  0  0  0  0  0  0  0  0  0
   68.6709   77.5118   91.0596 C   0  0  0  0  0  0  0  0  0  0  0  0
   66.5982   76.9034   92.2464 O   0  0  0  0  0  0  0  0  0  0  0  0
   65.5790   77.3250   91.3370 C   0  0  0  0  0  0  0  0  0  0  0  0
   64.6530   76.1829   91.0027 C   0  0  0  0  0  0  0  0  0  0  0  0
   63.3934   76.4412   90.4387 C   0  0  0  0  0  0  0  0  0  0  0  0
   62.5441   75.3841   90.0980 C   0  0  0  0  0  0  0  0  0  0  0  0
   62.9436   74.0637   90.3206 C   0  0  0  0  0  0  0  0  0  0  0  0
   64.1925   73.7967   90.8905 C   0  0  0  0  0  0  0  0  0  0  0  0
   64.6988   72.1385   91.1592 Cl  0  0  0  0  0  0  0  0  0  0  0  0
   65.0419   74.8529   91.2393 C   0  0  0  0  0  0  0  0  0  0  0  0
   70.2464   81.5147   88.1241 C   0  0  0  0  0  0  0  0  0  0  0  0
   68.8314   81.3260   88.0682 O   0  0  0  0  0  0  0  0  0  0  0  0
   67.4280   78.0106   87.1742 C   0  0  0  0  0  0  0  0  0  0  0  0
   68.0838   79.0492   87.8619 C   0  0  0  0  0  0  0  0  0  0  0  0
   68.1710   80.3363   87.3205 C   0  0  0  0  0  0  0  0  0  0  0  0
   67.6037   80.5896   86.0602 C   0  0  0  0  0  0  0  0  0  0  0  0
   66.9545   79.5700   85.3636 C   0  0  0  0  0  0  0  0  0  0  0  0
   66.8635   78.2815   85.9067 C   0  0  0  0  0  0  0  0  0  0  0  0
   66.2176   77.2784   85.1839 O   0  0  0  0  0  0  0  0  0  0  0  0
   65.8473   77.4700   84.3447 H   0  0  0  0  0  0  0  0  0  0  0  0
   66.2420   76.1779   88.1516 O   0  0  0  0  0  0  0  0  0  0  0  0
   67.3494   76.6645   87.7976 C   0  0  0  0  0  0  0  0  0  0  0  0
   68.5095   75.9213   88.0031 O   0  0  0  0  0  0  0  0  0  0  0  0
   69.3405   76.2692   87.7454 H   0  0  0  0  0  0  0  0  0  0  0  0
 33 34  2  0  0  0
 34 35  1  0  0  0
 34 25  1  0  0  0
 25 26  2  0  0  0
 26 27  1  0  0  0
 27 24  1  0  0  0
 24 23  1  0  0  0
 23  1  1  0  0  0
  1  2  2  0  0  0
  2  3  1  0  0  0
  3  4  1  0  0  0
  3  5  2  0  0  0
  5  6  1  0  0  0
  6  8  1  0  0  0
  8  9  2  0  0  0
  9 10  1  0  0  0
 10 11  2  0  0  0
 11 12  1  0  0  0
 12 14  1  0  0  0
 14 15  1  0  0  0
 15 16  1  0  0  0
 16 17  2  0  0  0
 17 18  1  0  0  0
 18 19  2  0  0  0
 19 20  1  0  0  0
 20 21  1  0  0  0
 20 22  2  0  0  0
 12 13  2  0  0  0
  6  7  2  0  0  0
 27 28  2  0  0  0
 28 29  1  0  0  0
 29 30  2  0  0  0
 30 31  1  0  0  0
 30 25  1  0  0  0
  7  1  1  0  0  0
 13  8  1  0  0  0
 22 16  1  0  0  0
 35 36  1  0  0  0
 31 32  1  0  0  0
M  END
> <Activity>
14.5

> <minimizedAffinity>
-8.66681

$$$$
HIPS6774


 35 38  0  0  0  0  0  0  0  0999 V2000
   68.6813   74.9772   91.6002 C   0  0  0  0  0  0  0  0  0  0  0  0
   70.0433   74.7400   91.8329 C   0  0  0  0  0  0  0  0  0  0  0  0
   70.9985   75.4734   91.1320 C   0  0  0  0  0  0  0  0  0  0  0  0
   70.6083   76.4079   90.2275 N   0  0  0  0  0  0  0  0  0  0  0  0
   69.2940   76.6758   89.9711 C   0  0  0  0  0  0  0  0  0  0  0  0
   68.3040   75.9440   90.6554 C   0  0  0  0  0  0  0  0  0  0  0  0
   68.9567   77.7026   88.9518 C   0  0  0  0  0  0  0  0  0  0  0  0
   67.8635   77.5441   88.0766 C   0  0  0  0  0  0  0  0  0  0  0  0
   67.5412   78.5489   87.1585 C   0  0  0  0  0  0  0  0  0  0  0  0
   68.2955   79.7205   87.1059 C   0  0  0  0  0  0  0  0  0  0  0  0
   69.3861   79.9061   87.9656 C   0  0  0  0  0  0  0  0  0  0  0  0
   69.7165   78.8853   88.8784 C   0  0  0  0  0  0  0  0  0  0  0  0
   70.1117   81.1076   87.8789 O   0  0  0  0  0  0  0  0  0  0  0  0
   70.7923   81.7340   88.9643 C   0  0  0  0  0  0  0  0  0  0  0  0
   72.2783   81.4906   88.8811 C   0  0  0  0  0  0  0  0  0  0  0  0
   72.7982   80.1879   88.9763 C   0  0  0  0  0  0  0  0  0  0  0  0
   74.1778   79.9724   88.9053 C   0  0  0  0  0  0  0  0  0  0  0  0
   75.0461   81.0539   88.7129 C   0  0  0  0  0  0  0  0  0  0  0  0
   74.5360   82.3529   88.5973 C   0  0  0  0  0  0  0  0  0  0  0  0
   75.6279   83.7053   88.3409 Cl  0  0  0  0  0  0  0  0  0  0  0  0
   73.1560   82.5719   88.6818 C   0  0  0  0  0  0  0  0  0  0  0  0
   67.6507   74.1214   92.2847 C   0  0  0  0  0  0  0  0  0  0  0  0
   66.7828   73.4858   91.3488 O   0  0  0  0  0  0  0  0  0  0  0  0
   63.7643   75.4189   90.3883 C   0  0  0  0  0  0  0  0  0  0  0  0
   65.1020   75.0601   90.6307 C   0  0  0  0  0  0  0  0  0  0  0  0
   65.4303   73.8162   91.1912 C   0  0  0  0  0  0  0  0  0  0  0  0
   64.3995   72.9349   91.5535 C   0  0  0  0  0  0  0  0  0  0  0  0
   63.0674   73.2942   91.3638 C   0  0  0  0  0  0  0  0  0  0  0  0
   62.7357   74.5264   90.7816 C   0  0  0  0  0  0  0  0  0  0  0  0
   61.3934   74.8569   90.5956 O   0  0  0  0  0  0  0  0  0  0  0  0
   60.7226   74.2584   90.8598 H   0  0  0  0  0  0  0  0  0  0  0  0
   64.0132   77.7795   90.0767 O   0  0  0  0  0  0  0  0  0  0  0  0
   63.4682   76.7074   89.7046 C   0  0  0  0  0  0  0  0  0  0  0  0
   62.5548   76.7431   88.6537 O   0  0  0  0  0  0  0  0  0  0  0  0
   62.1410   75.9533   88.3656 H   0  0  0  0  0  0  0  0  0  0  0  0
 32 33  2  0  0  0
 33 34  1  0  0  0
 33 24  1  0  0  0
 24 25  2  0  0  0
 25 26  1  0  0  0
 26 23  1  0  0  0
 23 22  1  0  0  0
 22  1  1  0  0  0
  1  2  2  0  0  0
  2  3  1  0  0  0
  3  4  2  0  0  0
  4  5  2  0  0  0
  5  7  1  0  0  0
  7  8  2  0  0  0
  8  9  1  0  0  0
  9 10  2  0  0  0
 10 11  1  0  0  0
 11 13  1  0  0  0
 13 14  1  0  0  0
 14 15  1  0  0  0
 15 16  2  0  0  0
 16 17  1  0  0  0
 17 18  2  0  0  0
 18 19  1  0  0  0
 19 20  1  0  0  0
 19 21  2  0  0  0
 11 12  2  0  0  0
  5  6  2  0  0  0
 26 27  2  0  0  0
 27 28  1  0  0  0
 28 29  2  0  0  0
 29 30  1  0  0  0
 29 24  1  0  0  0
  6  1  1  0  0  0
 12  7  1  0  0  0
 21 15  1  0  0  0
 34 35  1  0  0  0
 30 31  1  0  0  0
M  END
> <Activity>
15.2

> <minimizedAffinity>
-10.69325

$$$$
HIPS6774


 35 38  0  0  0  0  0  0  0  0999 V2000
   68.7569   74.9148   91.4953 C   0  0  0  0  0  0  0  0  0  0  0  0
   70.1141   74.7388   91.7989 C   0  0  0  0  0  0  0  0  0  0  0  0
   71.0679   75.5407   91.1754 C   0  0  0  0  0  0  0  0  0  0  0  0
   70.6810   76.4827   90.2772 N   0  0  0  0  0  0  0  0  0  0  0  0
   69.3710   76.6925   89.9534 C   0  0  0  0  0  0  0  0  0  0  0  0
   68.3835   75.8908   90.5585 C   0  0  0  0  0  0  0  0  0  0  0  0
   69.0386   77.7328   88.9463 C   0  0  0  0  0  0  0  0  0  0  0  0
   67.9465   77.5884   88.0674 C   0  0  0  0  0  0  0  0  0  0  0  0
   67.6288   78.6055   87.1613 C   0  0  0  0  0  0  0  0  0  0  0  0
   68.3867   79.7753   87.1244 C   0  0  0  0  0  0  0  0  0  0  0  0
   69.4763   79.9470   87.9882 C   0  0  0  0  0  0  0  0  0  0  0  0
   69.8020   78.9141   88.8889 C   0  0  0  0  0  0  0  0  0  0  0  0
   70.2057   81.1473   87.9176 O   0  0  0  0  0  0  0  0  0  0  0  0
   70.8706   81.7680   89.0159 C   0  0  0  0  0  0  0  0  0  0  0  0
   72.3670   81.6303   88.8875 C   0  0  0  0  0  0  0  0  0  0  0  0
   73.1811   82.7660   88.7330 C   0  0  0  0  0  0  0  0  0  0  0  0
   74.5668   82.6284   88.6075 C   0  0  0  0  0  0  0  0  0  0  0  0
   75.1516   81.3572   88.6612 C   0  0  0  0  0  0  0  0  0  0  0  0
   74.3505   80.2217   88.8345 C   0  0  0  0  0  0  0  0  0  0  0  0
   75.0897   78.6299   88.9165 Cl  0  0  0  0  0  0  0  0  0  0  0  0
   72.9617   80.3568   88.9467 C   0  0  0  0  0  0  0  0  0  0  0  0
   67.7353   73.9873   92.0946 C   0  0  0  0  0  0  0  0  0  0  0  0
   66.8293   73.4901   91.1121 O   0  0  0  0  0  0  0  0  0  0  0  0
   63.1974   74.0356   91.6433 C   0  0  0  0  0  0  0  0  0  0  0  0
   64.5019   73.5210   91.7456 C   0  0  0  0  0  0  0  0  0  0  0  0
   65.5351   73.9915   90.9206 C   0  0  0  0  0  0  0  0  0  0  0  0
   65.2471   74.9630   89.9491 C   0  0  0  0  0  0  0  0  0  0  0  0
   63.9502   75.4489   89.8028 C   0  0  0  0  0  0  0  0  0  0  0  0
   62.9197   74.9991   90.6413 C   0  0  0  0  0  0  0  0  0  0  0  0
   61.6318   75.5092   90.4781 O   0  0  0  0  0  0  0  0  0  0  0  0
   61.4609   76.1458   89.8122 H   0  0  0  0  0  0  0  0  0  0  0  0
   60.9315   73.6744   92.3264 O   0  0  0  0  0  0  0  0  0  0  0  0
   62.1560   73.5763   92.6024 C   0  0  0  0  0  0  0  0  0  0  0  0
   62.5304   73.0540   93.8381 O   0  0  0  0  0  0  0  0  0  0  0  0
   63.4378   72.9749   94.0577 H   0  0  0  0  0  0  0  0  0  0  0  0
 32 33  2  0  0  0
 33 34  1  0  0  0
 33 24  1  0  0  0
 24 25  2  0  0  0
 25 26  1  0  0  0
 26 23  1  0  0  0
 23 22  1  0  0  0
 22  1  1  0  0  0
  1  2  2  0  0  0
  2  3  1  0  0  0
  3  4  2  0  0  0
  4  5  2  0  0  0
  5  7  1  0  0  0
  7  8  2  0  0  0
  8  9  1  0  0  0
  9 10  2  0  0  0
 10 11  1  0  0  0
 11 13  1  0  0  0
 13 14  1  0  0  0
 14 15  1  0  0  0
 15 16  2  0  0  0
 16 17  1  0  0  0
 17 18  2  0  0  0
 18 19  1  0  0  0
 19 20  1  0  0  0
 19 21  2  0  0  0
 11 12  2  0  0  0
  5  6  2  0  0  0
 26 27  2  0  0  0
 27 28  1  0  0  0
 28 29  2  0  0  0
 29 30  1  0  0  0
 29 24  1  0  0  0
  6  1  1  0  0  0
 12  7  1  0  0  0
 21 15  1  0  0  0
 34 35  1  0  0  0
 30 31  1  0  0  0
M  END
> <Activity>
15.2

> <minimizedAffinity>
-10.19775

$$$$
HIPS6774


 35 38  0  0  0  0  0  0  0  0999 V2000
   67.3912   73.9515   91.6212 C   0  0  0  0  0  0  0  0  0  0  0  0
   68.4791   73.8252   92.4963 C   0  0  0  0  0  0  0  0  0  0  0  0
   69.5598   74.6972   92.3802 C   0  0  0  0  0  0  0  0  0  0  0  0
   69.5567   75.6589   91.4216 N   0  0  0  0  0  0  0  0  0  0  0  0
   68.5179   75.8219   90.5503 C   0  0  0  0  0  0  0  0  0  0  0  0
   67.4153   74.9495   90.6348 C   0  0  0  0  0  0  0  0  0  0  0  0
   68.6058   76.8891   89.5205 C   0  0  0  0  0  0  0  0  0  0  0  0
   68.0500   76.7243   88.2361 C   0  0  0  0  0  0  0  0  0  0  0  0
   68.1067   77.7643   87.3023 C   0  0  0  0  0  0  0  0  0  0  0  0
   68.7084   78.9768   87.6371 C   0  0  0  0  0  0  0  0  0  0  0  0
   69.2668   79.1694   88.9075 C   0  0  0  0  0  0  0  0  0  0  0  0
   69.2210   78.1143   89.8398 C   0  0  0  0  0  0  0  0  0  0  0  0
   69.8563   80.4122   89.1998 O   0  0  0  0  0  0  0  0  0  0  0  0
   70.5473   81.2327   88.2600 C   0  0  0  0  0  0  0  0  0  0  0  0
   72.0251   81.2675   88.5592 C   0  0  0  0  0  0  0  0  0  0  0  0
   72.6744   82.4855   88.8261 C   0  0  0  0  0  0  0  0  0  0  0  0
   74.0461   82.5091   89.0954 C   0  0  0  0  0  0  0  0  0  0  0  0
   74.7741   81.3133   89.1253 C   0  0  0  0  0  0  0  0  0  0  0  0
   74.1320   80.0932   88.8799 C   0  0  0  0  0  0  0  0  0  0  0  0
   75.0463   78.5937   88.9331 Cl  0  0  0  0  0  0  0  0  0  0  0  0
   72.7614   80.0693   88.5968 C   0  0  0  0  0  0  0  0  0  0  0  0
   66.2684   72.9522   91.6830 C   0  0  0  0  0  0  0  0  0  0  0  0
   65.0202   73.5746   91.9797 O   0  0  0  0  0  0  0  0  0  0  0  0
   62.7731   74.8383   89.3107 C   0  0  0  0  0  0  0  0  0  0  0  0
   63.4961   73.9759   90.1535 C   0  0  0  0  0  0  0  0  0  0  0  0
   64.3769   74.4782   91.1236 C   0  0  0  0  0  0  0  0  0  0  0  0
   64.5680   75.8654   91.2224 C   0  0  0  0  0  0  0  0  0  0  0  0
   63.8955   76.7312   90.3637 C   0  0  0  0  0  0  0  0  0  0  0  0
   62.9959   76.2348   89.4089 C   0  0  0  0  0  0  0  0  0  0  0  0
   62.3295   77.1255   88.5673 O   0  0  0  0  0  0  0  0  0  0  0  0
   62.4853   78.0464   88.6420 H   0  0  0  0  0  0  0  0  0  0  0  0
   60.5568   74.5538   88.4512 O   0  0  0  0  0  0  0  0  0  0  0  0
   61.7792   74.2657   88.3622 C   0  0  0  0  0  0  0  0  0  0  0  0
   62.1933   73.3752   87.3746 O   0  0  0  0  0  0  0  0  0  0  0  0
   63.0997   73.1511   87.2960 H   0  0  0  0  0  0  0  0  0  0  0  0
 32 33  2  0  0  0
 33 34  1  0  0  0
 33 24  1  0  0  0
 24 25  2  0  0  0
 25 26  1  0  0  0
 26 23  1  0  0  0
 23 22  1  0  0  0
 22  1  1  0  0  0
  1  2  2  0  0  0
  2  3  1  0  0  0
  3  4  2  0  0  0
  4  5  2  0  0  0
  5  7  1  0  0  0
  7  8  2  0  0  0
  8  9  1  0  0  0
  9 10  2  0  0  0
 10 11  1  0  0  0
 11 13  1  0  0  0
 13 14  1  0  0  0
 14 15  1  0  0  0
 15 16  2  0  0  0
 16 17  1  0  0  0
 17 18  2  0  0  0
 18 19  1  0  0  0
 19 20  1  0  0  0
 19 21  2  0  0  0
 11 12  2  0  0  0
  5  6  2  0  0  0
 26 27  2  0  0  0
 27 28  1  0  0  0
 28 29  2  0  0  0
 29 30  1  0  0  0
 29 24  1  0  0  0
  6  1  1  0  0  0
 12  7  1  0  0  0
 21 15  1  0  0  0
 34 35  1  0  0  0
 30 31  1  0  0  0
M  END
> <Activity>
15.2

> <minimizedAffinity>
-10.12052

$$$$
HIPS6774


 35 38  0  0  0  0  0  0  0  0999 V2000
   67.4432   73.7903   91.6169 C   0  0  0  0  0  0  0  0  0  0  0  0
   68.4506   73.7406   92.5906 C   0  0  0  0  0  0  0  0  0  0  0  0
   69.4682   74.6924   92.5765 C   0  0  0  0  0  0  0  0  0  0  0  0
   69.4822   75.6577   91.6216 N   0  0  0  0  0  0  0  0  0  0  0  0
   68.5204   75.7478   90.6563 C   0  0  0  0  0  0  0  0  0  0  0  0
   67.4841   74.7941   90.6369 C   0  0  0  0  0  0  0  0  0  0  0  0
   68.6236   76.8256   89.6391 C   0  0  0  0  0  0  0  0  0  0  0  0
   68.0771   76.6785   88.3485 C   0  0  0  0  0  0  0  0  0  0  0  0
   68.1480   77.7283   87.4267 C   0  0  0  0  0  0  0  0  0  0  0  0
   68.7547   78.9331   87.7797 C   0  0  0  0  0  0  0  0  0  0  0  0
   69.3041   79.1081   89.0566 C   0  0  0  0  0  0  0  0  0  0  0  0
   69.2439   78.0433   89.9768 C   0  0  0  0  0  0  0  0  0  0  0  0
   69.8991   80.3439   89.3672 O   0  0  0  0  0  0  0  0  0  0  0  0
   70.5223   81.2134   88.4243 C   0  0  0  0  0  0  0  0  0  0  0  0
   72.0153   81.2542   88.6336 C   0  0  0  0  0  0  0  0  0  0  0  0
   72.6825   82.4798   88.8040 C   0  0  0  0  0  0  0  0  0  0  0  0
   74.0678   82.5086   88.9902 C   0  0  0  0  0  0  0  0  0  0  0  0
   74.7931   81.3116   89.0333 C   0  0  0  0  0  0  0  0  0  0  0  0
   74.1345   80.0848   88.8841 C   0  0  0  0  0  0  0  0  0  0  0  0
   75.0463   78.5846   88.9538 Cl  0  0  0  0  0  0  0  0  0  0  0  0
   72.7494   80.0552   88.6839 C   0  0  0  0  0  0  0  0  0  0  0  0
   66.3986   72.7087   91.5730 C   0  0  0  0  0  0  0  0  0  0  0  0
   65.1037   73.2086   91.8998 O   0  0  0  0  0  0  0  0  0  0  0  0
   64.1372   76.5342   90.5670 C   0  0  0  0  0  0  0  0  0  0  0  0
   64.7365   75.5270   91.3436 C   0  0  0  0  0  0  0  0  0  0  0  0
   64.4266   74.1732   91.1420 C   0  0  0  0  0  0  0  0  0  0  0  0
   63.4696   73.8264   90.1753 C   0  0  0  0  0  0  0  0  0  0  0  0
   62.8319   74.8151   89.4301 C   0  0  0  0  0  0  0  0  0  0  0  0
   63.1563   76.1676   89.6115 C   0  0  0  0  0  0  0  0  0  0  0  0
   62.5079   77.1362   88.8454 O   0  0  0  0  0  0  0  0  0  0  0  0
   61.8613   76.8812   88.2171 H   0  0  0  0  0  0  0  0  0  0  0  0
   65.2846   78.5237   89.8910 O   0  0  0  0  0  0  0  0  0  0  0  0
   64.5666   77.9476   90.7499 C   0  0  0  0  0  0  0  0  0  0  0  0
   64.1969   78.6437   91.8982 O   0  0  0  0  0  0  0  0  0  0  0  0
   63.6628   78.2282   92.5463 H   0  0  0  0  0  0  0  0  0  0  0  0
 32 33  2  0  0  0
 33 34  1  0  0  0
 33 24  1  0  0  0
 24 25  2  0  0  0
 25 26  1  0  0  0
 26 23  1  0  0  0
 23 22  1  0  0  0
 22  1  1  0  0  0
  1  2  2  0  0  0
  2  3  1  0  0  0
  3  4  2  0  0  0
  4  5  2  0  0  0
  5  7  1  0  0  0
  7  8  2  0  0  0
  8  9  1  0  0  0
  9 10  2  0  0  0
 10 11  1  0  0  0
 11 13  1  0  0  0
 13 14  1  0  0  0
 14 15  1  0  0  0
 15 16  2  0  0  0
 16 17  1  0  0  0
 17 18  2  0  0  0
 18 19  1  0  0  0
 19 20  1  0  0  0
 19 21  2  0  0  0
 11 12  2  0  0  0
  5  6  2  0  0  0
 26 27  2  0  0  0
 27 28  1  0  0  0
 28 29  2  0  0  0
 29 30  1  0  0  0
 29 24  1  0  0  0
  6  1  1  0  0  0
 12  7  1  0  0  0
 21 15  1  0  0  0
 34 35  1  0  0  0
 30 31  1  0  0  0
M  END
> <Activity>
15.2

> <minimizedAffinity>
-10.10449

$$$$
HIPS6774


 35 38  0  0  0  0  0  0  0  0999 V2000
   64.1308   74.2253   91.3475 C   0  0  0  0  0  0  0  0  0  0  0  0
   63.9841   72.8490   91.1245 C   0  0  0  0  0  0  0  0  0  0  0  0
   65.1122   72.0312   91.1072 C   0  0  0  0  0  0  0  0  0  0  0  0
   66.3439   72.5687   91.3016 N   0  0  0  0  0  0  0  0  0  0  0  0
   66.5346   73.9021   91.5263 C   0  0  0  0  0  0  0  0  0  0  0  0
   65.4153   74.7571   91.5391 C   0  0  0  0  0  0  0  0  0  0  0  0
   67.9192   74.4078   91.7111 C   0  0  0  0  0  0  0  0  0  0  0  0
   68.8573   73.7198   92.5065 C   0  0  0  0  0  0  0  0  0  0  0  0
   70.1678   74.1945   92.6243 C   0  0  0  0  0  0  0  0  0  0  0  0
   70.5595   75.3501   91.9495 C   0  0  0  0  0  0  0  0  0  0  0  0
   69.6487   76.0528   91.1498 C   0  0  0  0  0  0  0  0  0  0  0  0
   68.3259   75.5798   91.0459 C   0  0  0  0  0  0  0  0  0  0  0  0
   70.0934   77.2089   90.4839 O   0  0  0  0  0  0  0  0  0  0  0  0
   71.0058   77.2235   89.3880 C   0  0  0  0  0  0  0  0  0  0  0  0
   71.5171   78.6189   89.1310 C   0  0  0  0  0  0  0  0  0  0  0  0
   70.6230   79.6897   88.9567 C   0  0  0  0  0  0  0  0  0  0  0  0
   71.1059   80.9787   88.7118 C   0  0  0  0  0  0  0  0  0  0  0  0
   72.4858   81.2119   88.6647 C   0  0  0  0  0  0  0  0  0  0  0  0
   73.3842   80.1550   88.8566 C   0  0  0  0  0  0  0  0  0  0  0  0
   75.1149   80.4547   88.8117 Cl  0  0  0  0  0  0  0  0  0  0  0  0
   72.9022   78.8614   89.0885 C   0  0  0  0  0  0  0  0  0  0  0  0
   62.9257   75.1226   91.2715 C   0  0  0  0  0  0  0  0  0  0  0  0
   63.0641   76.1114   90.2535 O   0  0  0  0  0  0  0  0  0  0  0  0
   66.1825   77.2105   88.5688 C   0  0  0  0  0  0  0  0  0  0  0  0
   65.0216   76.4874   88.8947 C   0  0  0  0  0  0  0  0  0  0  0  0
   64.2465   76.8244   90.0150 C   0  0  0  0  0  0  0  0  0  0  0  0
   64.6645   77.8760   90.8456 C   0  0  0  0  0  0  0  0  0  0  0  0
   65.8374   78.5718   90.5636 C   0  0  0  0  0  0  0  0  0  0  0  0
   66.6020   78.2541   89.4314 C   0  0  0  0  0  0  0  0  0  0  0  0
   67.7680   78.9732   89.1684 O   0  0  0  0  0  0  0  0  0  0  0  0
   68.0347   79.6608   89.7463 H   0  0  0  0  0  0  0  0  0  0  0  0
   68.1361   76.5548   87.3501 O   0  0  0  0  0  0  0  0  0  0  0  0
   66.9201   76.8794   87.3190 C   0  0  0  0  0  0  0  0  0  0  0  0
   66.2717   76.9533   86.0886 O   0  0  0  0  0  0  0  0  0  0  0  0
   65.3668   77.1935   86.0495 H   0  0  0  0  0  0  0  0  0  0  0  0
 32 33  2  0  0  0
 33 34  1  0  0  0
 33 24  1  0  0  0
 24 25  2  0  0  0
 25 26  1  0  0  0
 26 23  1  0  0  0
 23 22  1  0  0  0
 22  1  1  0  0  0
  1  2  2  0  0  0
  2  3  1  0  0  0
  3  4  2  0  0  0
  4  5  2  0  0  0
  5  7  1  0  0  0
  7  8  2  0  0  0
  8  9  1  0  0  0
  9 10  2  0  0  0
 10 11  1  0  0  0
 11 13  1  0  0  0
 13 14  1  0  0  0
 14 15  1  0  0  0
 15 16  2  0  0  0
 16 17  1  0  0  0
 17 18  2  0  0  0
 18 19  1  0  0  0
 19 20  1  0  0  0
 19 21  2  0  0  0
 11 12  2  0  0  0
  5  6  2  0  0  0
 26 27  2  0  0  0
 27 28  1  0  0  0
 28 29  2  0  0  0
 29 30  1  0  0  0
 29 24  1  0  0  0
  6  1  1  0  0  0
 12  7  1  0  0  0
 21 15  1  0  0  0
 34 35  1  0  0  0
 30 31  1  0  0  0
M  END
> <Activity>
15.2

> <minimizedAffinity>
-10.02701

$$$$
HIPS6774


 35 38  0  0  0  0  0  0  0  0999 V2000
   63.9540   73.3753   91.7206 C   0  0  0  0  0  0  0  0  0  0  0  0
   63.9828   72.0972   91.1453 C   0  0  0  0  0  0  0  0  0  0  0  0
   65.2075   71.5144   90.8257 C   0  0  0  0  0  0  0  0  0  0  0  0
   66.3629   72.1854   91.0680 N   0  0  0  0  0  0  0  0  0  0  0  0
   66.3838   73.4297   91.6301 C   0  0  0  0  0  0  0  0  0  0  0  0
   65.1619   74.0506   91.9548 C   0  0  0  0  0  0  0  0  0  0  0  0
   67.6930   74.0988   91.8434 C   0  0  0  0  0  0  0  0  0  0  0  0
   68.7027   73.5126   92.6326 C   0  0  0  0  0  0  0  0  0  0  0  0
   69.9427   74.1434   92.7773 C   0  0  0  0  0  0  0  0  0  0  0  0
   70.1931   75.3558   92.1357 C   0  0  0  0  0  0  0  0  0  0  0  0
   69.2086   75.9601   91.3429 C   0  0  0  0  0  0  0  0  0  0  0  0
   67.9560   75.3290   91.2119 C   0  0  0  0  0  0  0  0  0  0  0  0
   69.5114   77.1793   90.7108 O   0  0  0  0  0  0  0  0  0  0  0  0
   69.7879   77.3350   89.3204 C   0  0  0  0  0  0  0  0  0  0  0  0
   70.7326   78.4867   89.0845 C   0  0  0  0  0  0  0  0  0  0  0  0
   70.2400   79.7849   88.8646 C   0  0  0  0  0  0  0  0  0  0  0  0
   71.1230   80.8453   88.6396 C   0  0  0  0  0  0  0  0  0  0  0  0
   72.5050   80.6212   88.6582 C   0  0  0  0  0  0  0  0  0  0  0  0
   73.0054   79.3350   88.8959 C   0  0  0  0  0  0  0  0  0  0  0  0
   74.7405   79.0611   88.9333 Cl  0  0  0  0  0  0  0  0  0  0  0  0
   72.1224   78.2698   89.1078 C   0  0  0  0  0  0  0  0  0  0  0  0
   62.6315   74.0445   91.9778 C   0  0  0  0  0  0  0  0  0  0  0  0
   62.3730   75.0865   91.0393 O   0  0  0  0  0  0  0  0  0  0  0  0
   65.0561   77.5571   90.3559 C   0  0  0  0  0  0  0  0  0  0  0  0
   63.9995   76.8668   90.9754 C   0  0  0  0  0  0  0  0  0  0  0  0
   63.3757   75.7782   90.3469 C   0  0  0  0  0  0  0  0  0  0  0  0
   63.7892   75.4019   89.0593 C   0  0  0  0  0  0  0  0  0  0  0  0
   64.8023   76.1049   88.4122 C   0  0  0  0  0  0  0  0  0  0  0  0
   65.4450   77.1782   89.0465 C   0  0  0  0  0  0  0  0  0  0  0  0
   66.4624   77.8592   88.3782 O   0  0  0  0  0  0  0  0  0  0  0  0
   66.7103   77.5991   87.5128 H   0  0  0  0  0  0  0  0  0  0  0  0
   65.1389   79.3443   91.9467 O   0  0  0  0  0  0  0  0  0  0  0  0
   65.7514   78.6435   91.0989 C   0  0  0  0  0  0  0  0  0  0  0  0
   67.0927   78.9150   90.8400 O   0  0  0  0  0  0  0  0  0  0  0  0
   67.5617   78.4019   90.2118 H   0  0  0  0  0  0  0  0  0  0  0  0
 32 33  2  0  0  0
 33 34  1  0  0  0
 33 24  1  0  0  0
 24 25  2  0  0  0
 25 26  1  0  0  0
 26 23  1  0  0  0
 23 22  1  0  0  0
 22  1  1  0  0  0
  1  2  2  0  0  0
  2  3  1  0  0  0
  3  4  2  0  0  0
  4  5  2  0  0  0
  5  7  1  0  0  0
  7  8  2  0  0  0
  8  9  1  0  0  0
  9 10  2  0  0  0
 10 11  1  0  0  0
 11 13  1  0  0  0
 13 14  1  0  0  0
 14 15  1  0  0  0
 15 16  2  0  0  0
 16 17  1  0  0  0
 17 18  2  0  0  0
 18 19  1  0  0  0
 19 20  1  0  0  0
 19 21  2  0  0  0
 11 12  2  0  0  0
  5  6  2  0  0  0
 26 27  2  0  0  0
 27 28  1  0  0  0
 28 29  2  0  0  0
 29 30  1  0  0  0
 29 24  1  0  0  0
  6  1  1  0  0  0
 12  7  1  0  0  0
 21 15  1  0  0  0
 34 35  1  0  0  0
 30 31  1  0  0  0
M  END
> <Activity>
15.2

> <minimizedAffinity>
-9.71198

$$$$
HIPS6774


 35 38  0  0  0  0  0  0  0  0999 V2000
   64.8952   74.8894   90.7030 C   0  0  0  0  0  0  0  0  0  0  0  0
   63.7602   75.6033   91.1121 C   0  0  0  0  0  0  0  0  0  0  0  0
   63.6100   76.9345   90.7287 C   0  0  0  0  0  0  0  0  0  0  0  0
   64.5612   77.5335   89.9671 N   0  0  0  0  0  0  0  0  0  0  0  0
   65.6806   76.8768   89.5420 C   0  0  0  0  0  0  0  0  0  0  0  0
   65.8671   75.5333   89.9216 C   0  0  0  0  0  0  0  0  0  0  0  0
   66.6792   77.6150   88.7265 C   0  0  0  0  0  0  0  0  0  0  0  0
   66.6385   77.6013   87.3179 C   0  0  0  0  0  0  0  0  0  0  0  0
   67.5635   78.3439   86.5765 C   0  0  0  0  0  0  0  0  0  0  0  0
   68.5307   79.1102   87.2258 C   0  0  0  0  0  0  0  0  0  0  0  0
   68.5930   79.1444   88.6250 C   0  0  0  0  0  0  0  0  0  0  0  0
   67.6691   78.3834   89.3676 C   0  0  0  0  0  0  0  0  0  0  0  0
   69.5822   79.9377   89.2332 O   0  0  0  0  0  0  0  0  0  0  0  0
   70.2761   81.0106   88.6001 C   0  0  0  0  0  0  0  0  0  0  0  0
   71.7689   80.8308   88.7177 C   0  0  0  0  0  0  0  0  0  0  0  0
   72.3283   79.5484   88.8557 C   0  0  0  0  0  0  0  0  0  0  0  0
   73.7127   79.3917   88.9713 C   0  0  0  0  0  0  0  0  0  0  0  0
   74.5503   80.5129   88.9241 C   0  0  0  0  0  0  0  0  0  0  0  0
   74.0035   81.7926   88.7672 C   0  0  0  0  0  0  0  0  0  0  0  0
   75.0591   83.1953   88.6934 Cl  0  0  0  0  0  0  0  0  0  0  0  0
   72.6166   81.9522   88.6650 C   0  0  0  0  0  0  0  0  0  0  0  0
   65.1054   73.4833   91.1946 C   0  0  0  0  0  0  0  0  0  0  0  0
   66.4875   73.1336   91.2263 O   0  0  0  0  0  0  0  0  0  0  0  0
   69.4709   75.3395   91.1661 C   0  0  0  0  0  0  0  0  0  0  0  0
   68.4721   74.4293   90.7776 C   0  0  0  0  0  0  0  0  0  0  0  0
   67.4975   73.9890   91.6861 C   0  0  0  0  0  0  0  0  0  0  0  0
   67.5496   74.4352   93.0160 C   0  0  0  0  0  0  0  0  0  0  0  0
   68.5602   75.2999   93.4289 C   0  0  0  0  0  0  0  0  0  0  0  0
   69.5220   75.7615   92.5183 C   0  0  0  0  0  0  0  0  0  0  0  0
   70.5180   76.6337   92.9574 O   0  0  0  0  0  0  0  0  0  0  0  0
   70.5411   76.9054   93.8538 H   0  0  0  0  0  0  0  0  0  0  0  0
   70.9222   77.0055   90.2442 O   0  0  0  0  0  0  0  0  0  0  0  0
   70.4254   75.8528   90.1458 C   0  0  0  0  0  0  0  0  0  0  0  0
   70.7595   75.0645   89.0473 O   0  0  0  0  0  0  0  0  0  0  0  0
   70.3977   74.2046   88.9603 H   0  0  0  0  0  0  0  0  0  0  0  0
 32 33  2  0  0  0
 33 34  1  0  0  0
 33 24  1  0  0  0
 24 25  2  0  0  0
 25 26  1  0  0  0
 26 23  1  0  0  0
 23 22  1  0  0  0
 22  1  1  0  0  0
  1  2  2  0  0  0
  2  3  1  0  0  0
  3  4  2  0  0  0
  4  5  2  0  0  0
  5  7  1  0  0  0
  7  8  2  0  0  0
  8  9  1  0  0  0
  9 10  2  0  0  0
 10 11  1  0  0  0
 11 13  1  0  0  0
 13 14  1  0  0  0
 14 15  1  0  0  0
 15 16  2  0  0  0
 16 17  1  0  0  0
 17 18  2  0  0  0
 18 19  1  0  0  0
 19 20  1  0  0  0
 19 21  2  0  0  0
 11 12  2  0  0  0
  5  6  2  0  0  0
 26 27  2  0  0  0
 27 28  1  0  0  0
 28 29  2  0  0  0
 29 30  1  0  0  0
 29 24  1  0  0  0
  6  1  1  0  0  0
 12  7  1  0  0  0
 21 15  1  0  0  0
 34 35  1  0  0  0
 30 31  1  0  0  0
M  END
> <Activity>
15.2

> <minimizedAffinity>
-9.70223

$$$$
HIPS6774


 35 38  0  0  0  0  0  0  0  0999 V2000
   69.1499   75.7722   92.0029 C   0  0  0  0  0  0  0  0  0  0  0  0
   69.9599   74.6334   91.8918 C   0  0  0  0  0  0  0  0  0  0  0  0
   71.1202   74.6873   91.1222 C   0  0  0  0  0  0  0  0  0  0  0  0
   71.4583   75.8363   90.4824 N   0  0  0  0  0  0  0  0  0  0  0  0
   70.7025   76.9707   90.5649 C   0  0  0  0  0  0  0  0  0  0  0  0
   69.5179   76.9455   91.3264 C   0  0  0  0  0  0  0  0  0  0  0  0
   71.1376   78.1786   89.8174 C   0  0  0  0  0  0  0  0  0  0  0  0
   72.4649   78.3324   89.3695 C   0  0  0  0  0  0  0  0  0  0  0  0
   72.8346   79.4587   88.6270 C   0  0  0  0  0  0  0  0  0  0  0  0
   71.8903   80.4369   88.3176 C   0  0  0  0  0  0  0  0  0  0  0  0
   70.5631   80.3089   88.7477 C   0  0  0  0  0  0  0  0  0  0  0  0
   70.1984   79.1805   89.5079 C   0  0  0  0  0  0  0  0  0  0  0  0
   69.6464   81.3186   88.4045 O   0  0  0  0  0  0  0  0  0  0  0  0
   69.0139   81.4537   87.1335 C   0  0  0  0  0  0  0  0  0  0  0  0
   68.2081   80.2236   86.7990 C   0  0  0  0  0  0  0  0  0  0  0  0
   67.4600   80.1574   85.6106 C   0  0  0  0  0  0  0  0  0  0  0  0
   66.7101   79.0158   85.3121 C   0  0  0  0  0  0  0  0  0  0  0  0
   66.7226   77.9220   86.1861 C   0  0  0  0  0  0  0  0  0  0  0  0
   67.4804   77.9711   87.3628 C   0  0  0  0  0  0  0  0  0  0  0  0
   67.5052   76.5906   88.4494 Cl  0  0  0  0  0  0  0  0  0  0  0  0
   68.2209   79.1187   87.6697 C   0  0  0  0  0  0  0  0  0  0  0  0
   67.8492   75.6882   92.7541 C   0  0  0  0  0  0  0  0  0  0  0  0
   67.1436   74.4846   92.4596 O   0  0  0  0  0  0  0  0  0  0  0  0
   64.2416   75.6454   90.4592 C   0  0  0  0  0  0  0  0  0  0  0  0
   65.4217   75.6363   91.2235 C   0  0  0  0  0  0  0  0  0  0  0  0
   65.9287   74.4440   91.7627 C   0  0  0  0  0  0  0  0  0  0  0  0
   65.2193   73.2484   91.5682 C   0  0  0  0  0  0  0  0  0  0  0  0
   64.0240   73.2478   90.8537 C   0  0  0  0  0  0  0  0  0  0  0  0
   63.5263   74.4330   90.2925 C   0  0  0  0  0  0  0  0  0  0  0  0
   62.3309   74.4018   89.5744 O   0  0  0  0  0  0  0  0  0  0  0  0
   61.8673   73.5941   89.4713 H   0  0  0  0  0  0  0  0  0  0  0  0
   64.3686   78.0062   90.0825 O   0  0  0  0  0  0  0  0  0  0  0  0
   63.7930   76.9161   89.8270 C   0  0  0  0  0  0  0  0  0  0  0  0
   62.7034   76.9143   88.9594 O   0  0  0  0  0  0  0  0  0  0  0  0
   62.2649   76.1108   88.7597 H   0  0  0  0  0  0  0  0  0  0  0  0
 32 33  2  0  0  0
 33 34  1  0  0  0
 33 24  1  0  0  0
 24 25  2  0  0  0
 25 26  1  0  0  0
 26 23  1  0  0  0
 23 22  1  0  0  0
 22  1  1  0  0  0
  1  2  2  0  0  0
  2  3  1  0  0  0
  3  4  2  0  0  0
  4  5  2  0  0  0
  5  7  1  0  0  0
  7  8  2  0  0  0
  8  9  1  0  0  0
  9 10  2  0  0  0
 10 11  1  0  0  0
 11 13  1  0  0  0
 13 14  1  0  0  0
 14 15  1  0  0  0
 15 16  2  0  0  0
 16 17  1  0  0  0
 17 18  2  0  0  0
 18 19  1  0  0  0
 19 20  1  0  0  0
 19 21  2  0  0  0
 11 12  2  0  0  0
  5  6  2  0  0  0
 26 27  2  0  0  0
 27 28  1  0  0  0
 28 29  2  0  0  0
 29 30  1  0  0  0
 29 24  1  0  0  0
  6  1  1  0  0  0
 12  7  1  0  0  0
 21 15  1  0  0  0
 34 35  1  0  0  0
 30 31  1  0  0  0
M  END
> <Activity>
15.2

> <minimizedAffinity>
-9.48033

$$$$
HIPS6774


 35 38  0  0  0  0  0  0  0  0999 V2000
   68.2714   78.8364   87.7602 C   0  0  0  0  0  0  0  0  0  0  0  0
   67.5891   78.2174   86.7035 C   0  0  0  0  0  0  0  0  0  0  0  0
   67.1004   76.9226   86.8653 C   0  0  0  0  0  0  0  0  0  0  0  0
   67.2895   76.2668   88.0392 N   0  0  0  0  0  0  0  0  0  0  0  0
   67.9440   76.8309   89.0966 C   0  0  0  0  0  0  0  0  0  0  0  0
   68.4595   78.1347   88.9611 C   0  0  0  0  0  0  0  0  0  0  0  0
   68.1218   76.0345   90.3380 C   0  0  0  0  0  0  0  0  0  0  0  0
   69.1808   76.2872   91.2329 C   0  0  0  0  0  0  0  0  0  0  0  0
   69.2960   75.5524   92.4176 C   0  0  0  0  0  0  0  0  0  0  0  0
   68.3592   74.5671   92.7268 C   0  0  0  0  0  0  0  0  0  0  0  0
   67.2948   74.2963   91.8569 C   0  0  0  0  0  0  0  0  0  0  0  0
   67.1909   75.0282   90.6578 C   0  0  0  0  0  0  0  0  0  0  0  0
   66.3720   73.2978   92.2163 O   0  0  0  0  0  0  0  0  0  0  0  0
   65.4996   72.6242   91.3114 C   0  0  0  0  0  0  0  0  0  0  0  0
   64.1814   73.3475   91.1945 C   0  0  0  0  0  0  0  0  0  0  0  0
   63.2037   73.2233   92.1970 C   0  0  0  0  0  0  0  0  0  0  0  0
   61.9817   73.8918   92.0768 C   0  0  0  0  0  0  0  0  0  0  0  0
   61.7376   74.7096   90.9668 C   0  0  0  0  0  0  0  0  0  0  0  0
   62.7132   74.8550   89.9727 C   0  0  0  0  0  0  0  0  0  0  0  0
   62.4086   75.8941   88.5890 Cl  0  0  0  0  0  0  0  0  0  0  0  0
   63.9319   74.1756   90.0850 C   0  0  0  0  0  0  0  0  0  0  0  0
   68.8821   80.1958   87.5550 C   0  0  0  0  0  0  0  0  0  0  0  0
   69.6976   80.5829   88.6589 O   0  0  0  0  0  0  0  0  0  0  0  0
   73.3393   81.2954   88.6471 C   0  0  0  0  0  0  0  0  0  0  0  0
   71.9464   81.4461   88.5294 C   0  0  0  0  0  0  0  0  0  0  0  0
   71.0794   80.3598   88.7232 C   0  0  0  0  0  0  0  0  0  0  0  0
   71.6190   79.0934   88.9978 C   0  0  0  0  0  0  0  0  0  0  0  0
   72.9985   78.9172   89.0710 C   0  0  0  0  0  0  0  0  0  0  0  0
   73.8678   80.0050   88.9019 C   0  0  0  0  0  0  0  0  0  0  0  0
   75.2449   79.8014   88.9889 O   0  0  0  0  0  0  0  0  0  0  0  0
   75.5819   78.9435   89.1578 H   0  0  0  0  0  0  0  0  0  0  0  0
   73.7601   83.6508   88.7273 O   0  0  0  0  0  0  0  0  0  0  0  0
   74.2143   82.4937   88.5281 C   0  0  0  0  0  0  0  0  0  0  0  0
   75.5506   82.3457   88.1645 O   0  0  0  0  0  0  0  0  0  0  0  0
   75.9030   81.4908   88.0128 H   0  0  0  0  0  0  0  0  0  0  0  0
 32 33  2  0  0  0
 33 34  1  0  0  0
 33 24  1  0  0  0
 24 25  2  0  0  0
 25 26  1  0  0  0
 26 23  1  0  0  0
 23 22  1  0  0  0
 22  1  1  0  0  0
  1  2  2  0  0  0
  2  3  1  0  0  0
  3  4  2  0  0  0
  4  5  2  0  0  0
  5  7  1  0  0  0
  7  8  2  0  0  0
  8  9  1  0  0  0
  9 10  2  0  0  0
 10 11  1  0  0  0
 11 13  1  0  0  0
 13 14  1  0  0  0
 14 15  1  0  0  0
 15 16  2  0  0  0
 16 17  1  0  0  0
 17 18  2  0  0  0
 18 19  1  0  0  0
 19 20  1  0  0  0
 19 21  2  0  0  0
 11 12  2  0  0  0
  5  6  2  0  0  0
 26 27  2  0  0  0
 27 28  1  0  0  0
 28 29  2  0  0  0
 29 30  1  0  0  0
 29 24  1  0  0  0
  6  1  1  0  0  0
 12  7  1  0  0  0
 21 15  1  0  0  0
 34 35  1  0  0  0
 30 31  1  0  0  0
M  END
> <Activity>
15.2

> <minimizedAffinity>
-9.43649

$$$$
HIPS6774


 35 38  0  0  0  0  0  0  0  0999 V2000
   67.6452   74.6725   91.9340 C   0  0  0  0  0  0  0  0  0  0  0  0
   67.9638   74.7085   93.2987 C   0  0  0  0  0  0  0  0  0  0  0  0
   68.9622   75.5698   93.7493 C   0  0  0  0  0  0  0  0  0  0  0  0
   69.6222   76.3646   92.8681 N   0  0  0  0  0  0  0  0  0  0  0  0
   69.3432   76.3665   91.5314 C   0  0  0  0  0  0  0  0  0  0  0  0
   68.3467   75.4992   91.0428 C   0  0  0  0  0  0  0  0  0  0  0  0
   70.1273   77.2555   90.6359 C   0  0  0  0  0  0  0  0  0  0  0  0
   71.2785   76.7983   89.9639 C   0  0  0  0  0  0  0  0  0  0  0  0
   71.9700   77.6440   89.0902 C   0  0  0  0  0  0  0  0  0  0  0  0
   71.5217   78.9461   88.8714 C   0  0  0  0  0  0  0  0  0  0  0  0
   70.3788   79.4264   89.5241 C   0  0  0  0  0  0  0  0  0  0  0  0
   69.6941   78.5764   90.4145 C   0  0  0  0  0  0  0  0  0  0  0  0
   69.9626   80.7445   89.2652 O   0  0  0  0  0  0  0  0  0  0  0  0
   69.8031   81.3136   87.9673 C   0  0  0  0  0  0  0  0  0  0  0  0
   68.7817   80.5474   87.1648 C   0  0  0  0  0  0  0  0  0  0  0  0
   68.3284   81.0363   85.9271 C   0  0  0  0  0  0  0  0  0  0  0  0
   67.3759   80.3229   85.1933 C   0  0  0  0  0  0  0  0  0  0  0  0
   66.8884   79.1032   85.6784 C   0  0  0  0  0  0  0  0  0  0  0  0
   67.3486   78.5986   86.9010 C   0  0  0  0  0  0  0  0  0  0  0  0
   66.7454   77.0605   87.4989 Cl  0  0  0  0  0  0  0  0  0  0  0  0
   68.2921   79.3184   87.6434 C   0  0  0  0  0  0  0  0  0  0  0  0
   66.6357   73.6760   91.4329 C   0  0  0  0  0  0  0  0  0  0  0  0
   65.2998   74.0867   91.7154 O   0  0  0  0  0  0  0  0  0  0  0  0
   62.7463   74.9549   89.1666 C   0  0  0  0  0  0  0  0  0  0  0  0
   63.5979   74.2211   90.0111 C   0  0  0  0  0  0  0  0  0  0  0  0
   64.5234   74.8650   90.8466 C   0  0  0  0  0  0  0  0  0  0  0  0
   64.6265   76.2643   90.8042 C   0  0  0  0  0  0  0  0  0  0  0  0
   63.8235   77.0031   89.9389 C   0  0  0  0  0  0  0  0  0  0  0  0
   62.8802   76.3653   89.1198 C   0  0  0  0  0  0  0  0  0  0  0  0
   62.0831   77.1308   88.2687 O   0  0  0  0  0  0  0  0  0  0  0  0
   62.1811   78.0624   88.2469 H   0  0  0  0  0  0  0  0  0  0  0  0
   60.4929   74.5136   88.4893 O   0  0  0  0  0  0  0  0  0  0  0  0
   61.7150   74.2363   88.3693 C   0  0  0  0  0  0  0  0  0  0  0  0
   62.0949   73.2212   87.4946 O   0  0  0  0  0  0  0  0  0  0  0  0
   63.0008   73.0035   87.3947 H   0  0  0  0  0  0  0  0  0  0  0  0
 32 33  2  0  0  0
 33 34  1  0  0  0
 33 24  1  0  0  0
 24 25  2  0  0  0
 25 26  1  0  0  0
 26 23  1  0  0  0
 23 22  1  0  0  0
 22  1  1  0  0  0
  1  2  2  0  0  0
  2  3  1  0  0  0
  3  4  2  0  0  0
  4  5  2  0  0  0
  5  7  1  0  0  0
  7  8  2  0  0  0
  8  9  1  0  0  0
  9 10  2  0  0  0
 10 11  1  0  0  0
 11 13  1  0  0  0
 13 14  1  0  0  0
 14 15  1  0  0  0
 15 16  2  0  0  0
 16 17  1  0  0  0
 17 18  2  0  0  0
 18 19  1  0  0  0
 19 20  1  0  0  0
 19 21  2  0  0  0
 11 12  2  0  0  0
  5  6  2  0  0  0
 26 27  2  0  0  0
 27 28  1  0  0  0
 28 29  2  0  0  0
 29 30  1  0  0  0
 29 24  1  0  0  0
  6  1  1  0  0  0
 12  7  1  0  0  0
 21 15  1  0  0  0
 34 35  1  0  0  0
 30 31  1  0  0  0
M  END
> <Activity>
15.2

> <minimizedAffinity>
-9.28179

$$$$
HIPS6066


 34 37  0  0  0  0  0  0  0  0999 V2000
   68.8335   74.9045   91.6671 C   0  0  0  0  0  0  0  0  0  0  0  0
   70.1997   74.6571   91.8588 C   0  0  0  0  0  0  0  0  0  0  0  0
   71.1495   75.3647   91.1223 C   0  0  0  0  0  0  0  0  0  0  0  0
   70.7449   76.3195   90.1863 C   0  0  0  0  0  0  0  0  0  0  0  0
   69.3803   76.5714   89.9718 C   0  0  0  0  0  0  0  0  0  0  0  0
   68.4304   75.8523   90.7145 C   0  0  0  0  0  0  0  0  0  0  0  0
   68.9463   77.5919   88.9867 C   0  0  0  0  0  0  0  0  0  0  0  0
   67.8528   77.3435   88.1400 C   0  0  0  0  0  0  0  0  0  0  0  0
   67.4610   78.2952   87.1961 C   0  0  0  0  0  0  0  0  0  0  0  0
   68.1496   79.5050   87.0900 C   0  0  0  0  0  0  0  0  0  0  0  0
   69.2286   79.7831   87.9357 C   0  0  0  0  0  0  0  0  0  0  0  0
   69.6308   78.8170   88.8798 C   0  0  0  0  0  0  0  0  0  0  0  0
   69.8624   81.0305   87.8133 O   0  0  0  0  0  0  0  0  0  0  0  0
   70.5445   81.7129   88.8687 C   0  0  0  0  0  0  0  0  0  0  0  0
   72.0225   81.4088   88.8455 C   0  0  0  0  0  0  0  0  0  0  0  0
   72.9651   82.4498   88.7609 C   0  0  0  0  0  0  0  0  0  0  0  0
   74.3331   82.1629   88.7611 C   0  0  0  0  0  0  0  0  0  0  0  0
   74.7700   80.8374   88.8392 C   0  0  0  0  0  0  0  0  0  0  0  0
   73.8397   79.7950   88.8938 C   0  0  0  0  0  0  0  0  0  0  0  0
   72.4702   80.0766   88.8938 C   0  0  0  0  0  0  0  0  0  0  0  0
   67.7975   74.1923   92.4962 C   0  0  0  0  0  0  0  0  0  0  0  0
   66.9071   73.4602   91.6529 O   0  0  0  0  0  0  0  0  0  0  0  0
   63.9556   75.5752   90.8844 C   0  0  0  0  0  0  0  0  0  0  0  0
   65.2793   75.1526   91.1155 C   0  0  0  0  0  0  0  0  0  0  0  0
   65.5727   73.8116   91.3884 C   0  0  0  0  0  0  0  0  0  0  0  0
   64.5318   72.8687   91.3923 C   0  0  0  0  0  0  0  0  0  0  0  0
   63.2182   73.2726   91.1504 C   0  0  0  0  0  0  0  0  0  0  0  0
   62.9177   74.6180   90.9062 C   0  0  0  0  0  0  0  0  0  0  0  0
   61.5918   74.9943   90.6815 O   0  0  0  0  0  0  0  0  0  0  0  0
   60.9124   74.3493   90.6987 H   0  0  0  0  0  0  0  0  0  0  0  0
   63.8856   77.8616   91.5464 O   0  0  0  0  0  0  0  0  0  0  0  0
   63.6765   77.0108   90.6406 C   0  0  0  0  0  0  0  0  0  0  0  0
   63.1713   77.4391   89.4159 O   0  0  0  0  0  0  0  0  0  0  0  0
   63.0106   76.8185   88.7326 H   0  0  0  0  0  0  0  0  0  0  0  0
 31 32  2  0  0  0
 32 33  1  0  0  0
 32 23  1  0  0  0
 23 24  2  0  0  0
 24 25  1  0  0  0
 25 22  1  0  0  0
 22 21  1  0  0  0
 21  1  1  0  0  0
  1  2  2  0  0  0
  2  3  1  0  0  0
  3  4  2  0  0  0
  4  5  1  0  0  0
  5  7  1  0  0  0
  7  8  2  0  0  0
  8  9  1  0  0  0
  9 10  2  0  0  0
 10 11  1  0  0  0
 11 13  1  0  0  0
 13 14  1  0  0  0
 14 15  1  0  0  0
 15 16  2  0  0  0
 16 17  1  0  0  0
 17 18  2  0  0  0
 18 19  1  0  0  0
 19 20  2  0  0  0
 11 12  2  0  0  0
  5  6  2  0  0  0
 25 26  2  0  0  0
 26 27  1  0  0  0
 27 28  2  0  0  0
 28 29  1  0  0  0
 28 23  1  0  0  0
  6  1  1  0  0  0
 12  7  1  0  0  0
 20 15  1  0  0  0
 33 34  1  0  0  0
 29 30  1  0  0  0
M  END
> <Activity>
15.4

> <minimizedAffinity>
-10.92311

$$$$
HIPS6066


 34 37  0  0  0  0  0  0  0  0999 V2000
   67.6036   73.7162   91.6258 C   0  0  0  0  0  0  0  0  0  0  0  0
   68.6024   73.6114   92.6034 C   0  0  0  0  0  0  0  0  0  0  0  0
   69.6390   74.5435   92.6481 C   0  0  0  0  0  0  0  0  0  0  0  0
   69.6905   75.5831   91.7163 C   0  0  0  0  0  0  0  0  0  0  0  0
   68.7055   75.6962   90.7221 C   0  0  0  0  0  0  0  0  0  0  0  0
   67.6675   74.7518   90.6816 C   0  0  0  0  0  0  0  0  0  0  0  0
   68.7501   76.8046   89.7373 C   0  0  0  0  0  0  0  0  0  0  0  0
   68.2466   76.6226   88.4382 C   0  0  0  0  0  0  0  0  0  0  0  0
   68.3121   77.6591   87.5046 C   0  0  0  0  0  0  0  0  0  0  0  0
   68.8735   78.8879   87.8567 C   0  0  0  0  0  0  0  0  0  0  0  0
   69.3629   79.0992   89.1500 C   0  0  0  0  0  0  0  0  0  0  0  0
   69.3074   78.0486   90.0878 C   0  0  0  0  0  0  0  0  0  0  0  0
   69.8825   80.3659   89.4633 O   0  0  0  0  0  0  0  0  0  0  0  0
   70.5864   81.2139   88.5520 C   0  0  0  0  0  0  0  0  0  0  0  0
   72.0791   81.0495   88.7002 C   0  0  0  0  0  0  0  0  0  0  0  0
   72.6467   79.7701   88.8427 C   0  0  0  0  0  0  0  0  0  0  0  0
   74.0318   79.6229   88.9584 C   0  0  0  0  0  0  0  0  0  0  0  0
   74.8591   80.7495   88.9391 C   0  0  0  0  0  0  0  0  0  0  0  0
   74.3012   82.0268   88.8274 C   0  0  0  0  0  0  0  0  0  0  0  0
   72.9163   82.1794   88.7115 C   0  0  0  0  0  0  0  0  0  0  0  0
   66.4458   72.7535   91.6005 C   0  0  0  0  0  0  0  0  0  0  0  0
   65.2357   73.4261   91.9514 O   0  0  0  0  0  0  0  0  0  0  0  0
   64.5014   76.8266   90.6580 C   0  0  0  0  0  0  0  0  0  0  0  0
   65.0954   75.7555   91.3538 C   0  0  0  0  0  0  0  0  0  0  0  0
   64.6298   74.4450   91.1971 C   0  0  0  0  0  0  0  0  0  0  0  0
   63.5784   74.1931   90.3006 C   0  0  0  0  0  0  0  0  0  0  0  0
   62.9914   75.2439   89.5945 C   0  0  0  0  0  0  0  0  0  0  0  0
   63.4355   76.5597   89.7713 C   0  0  0  0  0  0  0  0  0  0  0  0
   62.8190   77.5923   89.0614 O   0  0  0  0  0  0  0  0  0  0  0  0
   62.1126   77.4017   88.4761 H   0  0  0  0  0  0  0  0  0  0  0  0
   65.5980   78.8228   89.9625 O   0  0  0  0  0  0  0  0  0  0  0  0
   64.9927   78.2077   90.8808 C   0  0  0  0  0  0  0  0  0  0  0  0
   64.8035   78.8408   92.1062 O   0  0  0  0  0  0  0  0  0  0  0  0
   64.3553   78.3964   92.7988 H   0  0  0  0  0  0  0  0  0  0  0  0
 31 32  2  0  0  0
 32 33  1  0  0  0
 32 23  1  0  0  0
 23 24  2  0  0  0
 24 25  1  0  0  0
 25 22  1  0  0  0
 22 21  1  0  0  0
 21  1  1  0  0  0
  1  2  2  0  0  0
  2  3  1  0  0  0
  3  4  2  0  0  0
  4  5  1  0  0  0
  5  7  1  0  0  0
  7  8  2  0  0  0
  8  9  1  0  0  0
  9 10  2  0  0  0
 10 11  1  0  0  0
 11 13  1  0  0  0
 13 14  1  0  0  0
 14 15  1  0  0  0
 15 16  2  0  0  0
 16 17  1  0  0  0
 17 18  2  0  0  0
 18 19  1  0  0  0
 19 20  2  0  0  0
 11 12  2  0  0  0
  5  6  2  0  0  0
 25 26  2  0  0  0
 26 27  1  0  0  0
 27 28  2  0  0  0
 28 29  1  0  0  0
 28 23  1  0  0  0
  6  1  1  0  0  0
 12  7  1  0  0  0
 20 15  1  0  0  0
 33 34  1  0  0  0
 29 30  1  0  0  0
M  END
> <Activity>
15.4

> <minimizedAffinity>
-10.17099

$$$$
HIPS6066


 34 37  0  0  0  0  0  0  0  0999 V2000
   64.1038   74.2442   91.3344 C   0  0  0  0  0  0  0  0  0  0  0  0
   63.9250   72.8680   91.1385 C   0  0  0  0  0  0  0  0  0  0  0  0
   65.0272   72.0134   91.1257 C   0  0  0  0  0  0  0  0  0  0  0  0
   66.3153   72.5246   91.3027 C   0  0  0  0  0  0  0  0  0  0  0  0
   66.5145   73.9021   91.4874 C   0  0  0  0  0  0  0  0  0  0  0  0
   65.4001   74.7561   91.4954 C   0  0  0  0  0  0  0  0  0  0  0  0
   67.8792   74.4480   91.6865 C   0  0  0  0  0  0  0  0  0  0  0  0
   68.7683   73.8315   92.5831 C   0  0  0  0  0  0  0  0  0  0  0  0
   70.0440   74.3614   92.7880 C   0  0  0  0  0  0  0  0  0  0  0  0
   70.4490   75.5056   92.0984 C   0  0  0  0  0  0  0  0  0  0  0  0
   69.5887   76.1251   91.1857 C   0  0  0  0  0  0  0  0  0  0  0  0
   68.2971   75.5967   90.9886 C   0  0  0  0  0  0  0  0  0  0  0  0
   70.0595   77.2508   90.4901 O   0  0  0  0  0  0  0  0  0  0  0  0
   70.9509   77.2130   89.3726 C   0  0  0  0  0  0  0  0  0  0  0  0
   71.5629   78.5691   89.1202 C   0  0  0  0  0  0  0  0  0  0  0  0
   70.7456   79.7009   88.9462 C   0  0  0  0  0  0  0  0  0  0  0  0
   71.3189   80.9577   88.7336 C   0  0  0  0  0  0  0  0  0  0  0  0
   72.7094   81.0936   88.6870 C   0  0  0  0  0  0  0  0  0  0  0  0
   73.5285   79.9694   88.8296 C   0  0  0  0  0  0  0  0  0  0  0  0
   72.9599   78.7099   89.0423 C   0  0  0  0  0  0  0  0  0  0  0  0
   62.9201   75.1721   91.4104 C   0  0  0  0  0  0  0  0  0  0  0  0
   63.0265   76.1918   90.4160 O   0  0  0  0  0  0  0  0  0  0  0  0
   66.1078   77.1984   88.6083 C   0  0  0  0  0  0  0  0  0  0  0  0
   64.9025   76.5539   88.9488 C   0  0  0  0  0  0  0  0  0  0  0  0
   64.1998   76.9010   90.1083 C   0  0  0  0  0  0  0  0  0  0  0  0
   64.6879   77.9364   90.9221 C   0  0  0  0  0  0  0  0  0  0  0  0
   65.8732   78.5924   90.5877 C   0  0  0  0  0  0  0  0  0  0  0  0
   66.5937   78.2274   89.4442 C   0  0  0  0  0  0  0  0  0  0  0  0
   67.7841   78.8926   89.1429 O   0  0  0  0  0  0  0  0  0  0  0  0
   68.0956   79.5737   89.7059 H   0  0  0  0  0  0  0  0  0  0  0  0
   68.0020   76.2802   87.4949 O   0  0  0  0  0  0  0  0  0  0  0  0
   66.8476   76.7756   87.3949 C   0  0  0  0  0  0  0  0  0  0  0  0
   66.2858   76.9281   86.1302 O   0  0  0  0  0  0  0  0  0  0  0  0
   65.4284   77.2949   86.0396 H   0  0  0  0  0  0  0  0  0  0  0  0
 31 32  2  0  0  0
 32 33  1  0  0  0
 32 23  1  0  0  0
 23 24  2  0  0  0
 24 25  1  0  0  0
 25 22  1  0  0  0
 22 21  1  0  0  0
 21  1  1  0  0  0
  1  2  2  0  0  0
  2  3  1  0  0  0
  3  4  2  0  0  0
  4  5  1  0  0  0
  5  7  1  0  0  0
  7  8  2  0  0  0
  8  9  1  0  0  0
  9 10  2  0  0  0
 10 11  1  0  0  0
 11 13  1  0  0  0
 13 14  1  0  0  0
 14 15  1  0  0  0
 15 16  2  0  0  0
 16 17  1  0  0  0
 17 18  2  0  0  0
 18 19  1  0  0  0
 19 20  2  0  0  0
 11 12  2  0  0  0
  5  6  2  0  0  0
 25 26  2  0  0  0
 26 27  1  0  0  0
 27 28  2  0  0  0
 28 29  1  0  0  0
 28 23  1  0  0  0
  6  1  1  0  0  0
 12  7  1  0  0  0
 20 15  1  0  0  0
 33 34  1  0  0  0
 29 30  1  0  0  0
M  END
> <Activity>
15.4

> <minimizedAffinity>
-9.99513

$$$$
HIPS6066


 34 37  0  0  0  0  0  0  0  0999 V2000
   68.6354   74.7515   91.2541 C   0  0  0  0  0  0  0  0  0  0  0  0
   69.9439   74.6912   91.7527 C   0  0  0  0  0  0  0  0  0  0  0  0
   70.9001   75.6112   91.3232 C   0  0  0  0  0  0  0  0  0  0  0  0
   70.5608   76.5942   90.3903 C   0  0  0  0  0  0  0  0  0  0  0  0
   69.2584   76.6618   89.8703 C   0  0  0  0  0  0  0  0  0  0  0  0
   68.3027   75.7297   90.3050 C   0  0  0  0  0  0  0  0  0  0  0  0
   68.8908   77.7103   88.8877 C   0  0  0  0  0  0  0  0  0  0  0  0
   67.8289   77.5041   87.9910 C   0  0  0  0  0  0  0  0  0  0  0  0
   67.5001   78.4821   87.0499 C   0  0  0  0  0  0  0  0  0  0  0  0
   68.2208   79.6766   86.9963 C   0  0  0  0  0  0  0  0  0  0  0  0
   69.2690   79.9129   87.8921 C   0  0  0  0  0  0  0  0  0  0  0  0
   69.6078   78.9203   88.8335 C   0  0  0  0  0  0  0  0  0  0  0  0
   69.9364   81.1467   87.8206 O   0  0  0  0  0  0  0  0  0  0  0  0
   70.6380   81.7654   88.9022 C   0  0  0  0  0  0  0  0  0  0  0  0
   72.1067   81.4210   88.8642 C   0  0  0  0  0  0  0  0  0  0  0  0
   73.0768   82.4359   88.7728 C   0  0  0  0  0  0  0  0  0  0  0  0
   74.4363   82.1117   88.7593 C   0  0  0  0  0  0  0  0  0  0  0  0
   74.8374   80.7745   88.8304 C   0  0  0  0  0  0  0  0  0  0  0  0
   73.8794   79.7578   88.8917 C   0  0  0  0  0  0  0  0  0  0  0  0
   72.5182   80.0769   88.9055 C   0  0  0  0  0  0  0  0  0  0  0  0
   67.5764   73.8036   91.7518 C   0  0  0  0  0  0  0  0  0  0  0  0
   66.4691   74.5335   92.2820 O   0  0  0  0  0  0  0  0  0  0  0  0
   63.5269   75.3485   90.1714 C   0  0  0  0  0  0  0  0  0  0  0  0
   64.4474   74.6506   90.9774 C   0  0  0  0  0  0  0  0  0  0  0  0
   65.5645   75.2941   91.5220 C   0  0  0  0  0  0  0  0  0  0  0  0
   65.7456   76.6674   91.2905 C   0  0  0  0  0  0  0  0  0  0  0  0
   64.8328   77.3731   90.5057 C   0  0  0  0  0  0  0  0  0  0  0  0
   63.7303   76.7257   89.9353 C   0  0  0  0  0  0  0  0  0  0  0  0
   62.8416   77.4553   89.1428 O   0  0  0  0  0  0  0  0  0  0  0  0
   62.9881   78.3687   88.9939 H   0  0  0  0  0  0  0  0  0  0  0  0
   61.2015   74.8884   89.9434 O   0  0  0  0  0  0  0  0  0  0  0  0
   62.3779   74.6249   89.5761 C   0  0  0  0  0  0  0  0  0  0  0  0
   62.5795   73.6395   88.6134 O   0  0  0  0  0  0  0  0  0  0  0  0
   63.4483   73.4323   88.3300 H   0  0  0  0  0  0  0  0  0  0  0  0
 31 32  2  0  0  0
 32 33  1  0  0  0
 32 23  1  0  0  0
 23 24  2  0  0  0
 24 25  1  0  0  0
 25 22  1  0  0  0
 22 21  1  0  0  0
 21  1  1  0  0  0
  1  2  2  0  0  0
  2  3  1  0  0  0
  3  4  2  0  0  0
  4  5  1  0  0  0
  5  7  1  0  0  0
  7  8  2  0  0  0
  8  9  1  0  0  0
  9 10  2  0  0  0
 10 11  1  0  0  0
 11 13  1  0  0  0
 13 14  1  0  0  0
 14 15  1  0  0  0
 15 16  2  0  0  0
 16 17  1  0  0  0
 17 18  2  0  0  0
 18 19  1  0  0  0
 19 20  2  0  0  0
 11 12  2  0  0  0
  5  6  2  0  0  0
 25 26  2  0  0  0
 26 27  1  0  0  0
 27 28  2  0  0  0
 28 29  1  0  0  0
 28 23  1  0  0  0
  6  1  1  0  0  0
 12  7  1  0  0  0
 20 15  1  0  0  0
 33 34  1  0  0  0
 29 30  1  0  0  0
M  END
> <Activity>
15.4

> <minimizedAffinity>
-9.96601

$$$$
HIPS6066


 34 37  0  0  0  0  0  0  0  0999 V2000
   70.0585   75.1752   90.7529 C   0  0  0  0  0  0  0  0  0  0  0  0
   70.7752   74.6946   91.8573 C   0  0  0  0  0  0  0  0  0  0  0  0
   70.1278   73.9474   92.8411 C   0  0  0  0  0  0  0  0  0  0  0  0
   68.7611   73.6784   92.7341 C   0  0  0  0  0  0  0  0  0  0  0  0
   68.0244   74.1627   91.6413 C   0  0  0  0  0  0  0  0  0  0  0  0
   68.6828   74.9171   90.6572 C   0  0  0  0  0  0  0  0  0  0  0  0
   66.5754   73.8705   91.5180 C   0  0  0  0  0  0  0  0  0  0  0  0
   66.1305   72.5545   91.3068 C   0  0  0  0  0  0  0  0  0  0  0  0
   64.7676   72.2847   91.1659 C   0  0  0  0  0  0  0  0  0  0  0  0
   63.8345   73.3204   91.2401 C   0  0  0  0  0  0  0  0  0  0  0  0
   64.2521   74.6357   91.4700 C   0  0  0  0  0  0  0  0  0  0  0  0
   65.6286   74.9087   91.5998 C   0  0  0  0  0  0  0  0  0  0  0  0
   63.2699   75.6343   91.5741 O   0  0  0  0  0  0  0  0  0  0  0  0
   63.1298   76.7451   90.6846 C   0  0  0  0  0  0  0  0  0  0  0  0
   64.4165   77.0122   89.9427 C   0  0  0  0  0  0  0  0  0  0  0  0
   65.2986   78.0169   90.3805 C   0  0  0  0  0  0  0  0  0  0  0  0
   66.4988   78.2453   89.7015 C   0  0  0  0  0  0  0  0  0  0  0  0
   66.8244   77.4785   88.5790 C   0  0  0  0  0  0  0  0  0  0  0  0
   65.9399   76.4978   88.1196 C   0  0  0  0  0  0  0  0  0  0  0  0
   64.7381   76.2655   88.7952 C   0  0  0  0  0  0  0  0  0  0  0  0
   70.7542   75.9323   89.6526 C   0  0  0  0  0  0  0  0  0  0  0  0
   70.0306   77.1226   89.3372 O   0  0  0  0  0  0  0  0  0  0  0  0
   72.6403   79.7350   88.9625 C   0  0  0  0  0  0  0  0  0  0  0  0
   72.0029   78.4897   89.1272 C   0  0  0  0  0  0  0  0  0  0  0  0
   70.6072   78.3862   89.1251 C   0  0  0  0  0  0  0  0  0  0  0  0
   69.8341   79.5399   88.9159 C   0  0  0  0  0  0  0  0  0  0  0  0
   70.4542   80.7772   88.7369 C   0  0  0  0  0  0  0  0  0  0  0  0
   71.8494   80.8884   88.7680 C   0  0  0  0  0  0  0  0  0  0  0  0
   72.4409   82.1422   88.5999 O   0  0  0  0  0  0  0  0  0  0  0  0
   71.9046   82.8998   88.4717 H   0  0  0  0  0  0  0  0  0  0  0  0
   74.7009   80.9280   88.9232 O   0  0  0  0  0  0  0  0  0  0  0  0
   74.1200   79.8133   89.0127 C   0  0  0  0  0  0  0  0  0  0  0  0
   74.8890   78.6606   89.1485 O   0  0  0  0  0  0  0  0  0  0  0  0
   74.4717   77.8244   89.2163 H   0  0  0  0  0  0  0  0  0  0  0  0
 31 32  2  0  0  0
 32 33  1  0  0  0
 32 23  1  0  0  0
 23 24  2  0  0  0
 24 25  1  0  0  0
 25 22  1  0  0  0
 22 21  1  0  0  0
 21  1  1  0  0  0
  1  2  2  0  0  0
  2  3  1  0  0  0
  3  4  2  0  0  0
  4  5  1  0  0  0
  5  7  1  0  0  0
  7  8  2  0  0  0
  8  9  1  0  0  0
  9 10  2  0  0  0
 10 11  1  0  0  0
 11 13  1  0  0  0
 13 14  1  0  0  0
 14 15  1  0  0  0
 15 16  2  0  0  0
 16 17  1  0  0  0
 17 18  2  0  0  0
 18 19  1  0  0  0
 19 20  2  0  0  0
 11 12  2  0  0  0
  5  6  2  0  0  0
 25 26  2  0  0  0
 26 27  1  0  0  0
 27 28  2  0  0  0
 28 29  1  0  0  0
 28 23  1  0  0  0
  6  1  1  0  0  0
 12  7  1  0  0  0
 20 15  1  0  0  0
 33 34  1  0  0  0
 29 30  1  0  0  0
M  END
> <Activity>
15.4

> <minimizedAffinity>
-9.76985

$$$$
HIPS6066


 34 37  0  0  0  0  0  0  0  0999 V2000
   70.0639   74.9098   90.8339 C   0  0  0  0  0  0  0  0  0  0  0  0
   70.7095   74.4626   91.9947 C   0  0  0  0  0  0  0  0  0  0  0  0
   69.9810   73.8286   93.0011 C   0  0  0  0  0  0  0  0  0  0  0  0
   68.6039   73.6406   92.8602 C   0  0  0  0  0  0  0  0  0  0  0  0
   67.9383   74.0936   91.7099 C   0  0  0  0  0  0  0  0  0  0  0  0
   68.6781   74.7340   90.7031 C   0  0  0  0  0  0  0  0  0  0  0  0
   66.4781   73.8865   91.5512 C   0  0  0  0  0  0  0  0  0  0  0  0
   65.9581   72.5934   91.3732 C   0  0  0  0  0  0  0  0  0  0  0  0
   64.5858   72.4027   91.1989 C   0  0  0  0  0  0  0  0  0  0  0  0
   63.7176   73.4959   91.2062 C   0  0  0  0  0  0  0  0  0  0  0  0
   64.2097   74.7907   91.4020 C   0  0  0  0  0  0  0  0  0  0  0  0
   65.5962   74.9834   91.5656 C   0  0  0  0  0  0  0  0  0  0  0  0
   63.2893   75.8511   91.4390 O   0  0  0  0  0  0  0  0  0  0  0  0
   63.2429   76.9321   90.5041 C   0  0  0  0  0  0  0  0  0  0  0  0
   64.5816   77.1300   89.8362 C   0  0  0  0  0  0  0  0  0  0  0  0
   64.9552   76.3376   88.7353 C   0  0  0  0  0  0  0  0  0  0  0  0
   66.1877   76.5399   88.1079 C   0  0  0  0  0  0  0  0  0  0  0  0
   67.0577   77.5283   88.5770 C   0  0  0  0  0  0  0  0  0  0  0  0
   66.7070   78.3004   89.6888 C   0  0  0  0  0  0  0  0  0  0  0  0
   65.4754   78.1019   90.3200 C   0  0  0  0  0  0  0  0  0  0  0  0
   70.8451   75.5424   89.7125 C   0  0  0  0  0  0  0  0  0  0  0  0
   70.2682   76.7993   89.3556 O   0  0  0  0  0  0  0  0  0  0  0  0
   70.9238   80.4364   89.0130 C   0  0  0  0  0  0  0  0  0  0  0  0
   70.2717   79.2041   89.2138 C   0  0  0  0  0  0  0  0  0  0  0  0
   70.9821   77.9984   89.1919 C   0  0  0  0  0  0  0  0  0  0  0  0
   72.3738   78.0256   89.0053 C   0  0  0  0  0  0  0  0  0  0  0  0
   73.0334   79.2412   88.8198 C   0  0  0  0  0  0  0  0  0  0  0  0
   72.3214   80.4465   88.8118 C   0  0  0  0  0  0  0  0  0  0  0  0
   73.0070   81.6462   88.6098 O   0  0  0  0  0  0  0  0  0  0  0  0
   73.9346   81.6392   88.4774 H   0  0  0  0  0  0  0  0  0  0  0  0
   69.4125   81.9775   88.0070 O   0  0  0  0  0  0  0  0  0  0  0  0
   70.1331   81.6906   89.0003 C   0  0  0  0  0  0  0  0  0  0  0  0
   70.1817   82.5729   90.0761 O   0  0  0  0  0  0  0  0  0  0  0  0
   70.7128   82.3735   90.8219 H   0  0  0  0  0  0  0  0  0  0  0  0
 31 32  2  0  0  0
 32 33  1  0  0  0
 32 23  1  0  0  0
 23 24  2  0  0  0
 24 25  1  0  0  0
 25 22  1  0  0  0
 22 21  1  0  0  0
 21  1  1  0  0  0
  1  2  2  0  0  0
  2  3  1  0  0  0
  3  4  2  0  0  0
  4  5  1  0  0  0
  5  7  1  0  0  0
  7  8  2  0  0  0
  8  9  1  0  0  0
  9 10  2  0  0  0
 10 11  1  0  0  0
 11 13  1  0  0  0
 13 14  1  0  0  0
 14 15  1  0  0  0
 15 16  2  0  0  0
 16 17  1  0  0  0
 17 18  2  0  0  0
 18 19  1  0  0  0
 19 20  2  0  0  0
 11 12  2  0  0  0
  5  6  2  0  0  0
 25 26  2  0  0  0
 26 27  1  0  0  0
 27 28  2  0  0  0
 28 29  1  0  0  0
 28 23  1  0  0  0
  6  1  1  0  0  0
 12  7  1  0  0  0
 20 15  1  0  0  0
 33 34  1  0  0  0
 29 30  1  0  0  0
M  END
> <Activity>
15.4

> <minimizedAffinity>
-9.36870

$$$$
HIPS6066


 34 37  0  0  0  0  0  0  0  0999 V2000
   69.1926   75.6326   91.9182 C   0  0  0  0  0  0  0  0  0  0  0  0
   70.0938   74.5601   91.8747 C   0  0  0  0  0  0  0  0  0  0  0  0
   71.2556   74.6523   91.1084 C   0  0  0  0  0  0  0  0  0  0  0  0
   71.5247   75.8113   90.3763 C   0  0  0  0  0  0  0  0  0  0  0  0
   70.6270   76.8906   90.3978 C   0  0  0  0  0  0  0  0  0  0  0  0
   69.4581   76.7885   91.1687 C   0  0  0  0  0  0  0  0  0  0  0  0
   70.9139   78.1273   89.6306 C   0  0  0  0  0  0  0  0  0  0  0  0
   72.2403   78.5270   89.3956 C   0  0  0  0  0  0  0  0  0  0  0  0
   72.5085   79.7047   88.6948 C   0  0  0  0  0  0  0  0  0  0  0  0
   71.4598   80.4922   88.2161 C   0  0  0  0  0  0  0  0  0  0  0  0
   70.1314   80.1042   88.4202 C   0  0  0  0  0  0  0  0  0  0  0  0
   69.8617   78.9217   89.1382 C   0  0  0  0  0  0  0  0  0  0  0  0
   69.1151   80.9123   87.8847 O   0  0  0  0  0  0  0  0  0  0  0  0
   68.1214   80.4744   86.9543 C   0  0  0  0  0  0  0  0  0  0  0  0
   67.5874   79.1140   87.3305 C   0  0  0  0  0  0  0  0  0  0  0  0
   67.6816   78.0357   86.4318 C   0  0  0  0  0  0  0  0  0  0  0  0
   67.2042   76.7730   86.7943 C   0  0  0  0  0  0  0  0  0  0  0  0
   66.6246   76.5785   88.0514 C   0  0  0  0  0  0  0  0  0  0  0  0
   66.5003   77.6515   88.9393 C   0  0  0  0  0  0  0  0  0  0  0  0
   66.9762   78.9165   88.5815 C   0  0  0  0  0  0  0  0  0  0  0  0
   67.9641   75.5723   92.7872 C   0  0  0  0  0  0  0  0  0  0  0  0
   67.2098   74.3949   92.4961 O   0  0  0  0  0  0  0  0  0  0  0  0
   64.1104   75.6362   90.8750 C   0  0  0  0  0  0  0  0  0  0  0  0
   65.3699   75.5922   91.5042 C   0  0  0  0  0  0  0  0  0  0  0  0
   65.9726   74.3720   91.8305 C   0  0  0  0  0  0  0  0  0  0  0  0
   65.3252   73.1737   91.4877 C   0  0  0  0  0  0  0  0  0  0  0  0
   64.0838   73.2041   90.8511 C   0  0  0  0  0  0  0  0  0  0  0  0
   63.4648   74.4232   90.5500 C   0  0  0  0  0  0  0  0  0  0  0  0
   62.2159   74.4218   89.9252 O   0  0  0  0  0  0  0  0  0  0  0  0
   61.7982   73.6098   89.7148 H   0  0  0  0  0  0  0  0  0  0  0  0
   63.3941   77.8244   91.4830 O   0  0  0  0  0  0  0  0  0  0  0  0
   63.4825   76.9471   90.5826 C   0  0  0  0  0  0  0  0  0  0  0  0
   62.9732   77.2252   89.3171 O   0  0  0  0  0  0  0  0  0  0  0  0
   63.0314   76.5832   88.6372 H   0  0  0  0  0  0  0  0  0  0  0  0
 31 32  2  0  0  0
 32 33  1  0  0  0
 32 23  1  0  0  0
 23 24  2  0  0  0
 24 25  1  0  0  0
 25 22  1  0  0  0
 22 21  1  0  0  0
 21  1  1  0  0  0
  1  2  2  0  0  0
  2  3  1  0  0  0
  3  4  2  0  0  0
  4  5  1  0  0  0
  5  7  1  0  0  0
  7  8  2  0  0  0
  8  9  1  0  0  0
  9 10  2  0  0  0
 10 11  1  0  0  0
 11 13  1  0  0  0
 13 14  1  0  0  0
 14 15  1  0  0  0
 15 16  2  0  0  0
 16 17  1  0  0  0
 17 18  2  0  0  0
 18 19  1  0  0  0
 19 20  2  0  0  0
 11 12  2  0  0  0
  5  6  2  0  0  0
 25 26  2  0  0  0
 26 27  1  0  0  0
 27 28  2  0  0  0
 28 29  1  0  0  0
 28 23  1  0  0  0
  6  1  1  0  0  0
 12  7  1  0  0  0
 20 15  1  0  0  0
 33 34  1  0  0  0
 29 30  1  0  0  0
M  END
> <Activity>
15.4

> <minimizedAffinity>
-9.35180

$$$$
HIPS6066


 34 37  0  0  0  0  0  0  0  0999 V2000
   70.1118   75.3861   91.4254 C   0  0  0  0  0  0  0  0  0  0  0  0
   70.0489   74.4286   92.4470 C   0  0  0  0  0  0  0  0  0  0  0  0
   68.8158   74.0523   92.9791 C   0  0  0  0  0  0  0  0  0  0  0  0
   67.6376   74.6309   92.5009 C   0  0  0  0  0  0  0  0  0  0  0  0
   67.6824   75.6011   91.4869 C   0  0  0  0  0  0  0  0  0  0  0  0
   68.9279   75.9771   90.9591 C   0  0  0  0  0  0  0  0  0  0  0  0
   66.4333   76.2103   90.9685 C   0  0  0  0  0  0  0  0  0  0  0  0
   65.9893   77.4497   91.4595 C   0  0  0  0  0  0  0  0  0  0  0  0
   64.8000   78.0100   90.9885 C   0  0  0  0  0  0  0  0  0  0  0  0
   64.0448   77.3455   90.0206 C   0  0  0  0  0  0  0  0  0  0  0  0
   64.4770   76.1202   89.5021 C   0  0  0  0  0  0  0  0  0  0  0  0
   65.6711   75.5497   89.9868 C   0  0  0  0  0  0  0  0  0  0  0  0
   63.6998   75.5123   88.5025 O   0  0  0  0  0  0  0  0  0  0  0  0
   62.6427   74.5784   88.7375 C   0  0  0  0  0  0  0  0  0  0  0  0
   62.6942   74.0439   90.1478 C   0  0  0  0  0  0  0  0  0  0  0  0
   61.7740   74.4885   91.1147 C   0  0  0  0  0  0  0  0  0  0  0  0
   61.8135   73.9740   92.4137 C   0  0  0  0  0  0  0  0  0  0  0  0
   62.7736   73.0183   92.7588 C   0  0  0  0  0  0  0  0  0  0  0  0
   63.7105   72.5926   91.8122 C   0  0  0  0  0  0  0  0  0  0  0  0
   63.6753   73.1043   90.5115 C   0  0  0  0  0  0  0  0  0  0  0  0
   71.4294   75.7597   90.7992 C   0  0  0  0  0  0  0  0  0  0  0  0
   71.2179   76.3415   89.5120 O   0  0  0  0  0  0  0  0  0  0  0  0
   72.3918   79.8334   89.0605 C   0  0  0  0  0  0  0  0  0  0  0  0
   72.3742   78.4416   89.2767 C   0  0  0  0  0  0  0  0  0  0  0  0
   71.1752   77.7205   89.2460 C   0  0  0  0  0  0  0  0  0  0  0  0
   69.9771   78.3936   88.9558 C   0  0  0  0  0  0  0  0  0  0  0  0
   69.9835   79.7698   88.7254 C   0  0  0  0  0  0  0  0  0  0  0  0
   71.1773   80.4987   88.7845 C   0  0  0  0  0  0  0  0  0  0  0  0
   71.1503   81.8773   88.5634 O   0  0  0  0  0  0  0  0  0  0  0  0
   70.3377   82.3067   88.3812 H   0  0  0  0  0  0  0  0  0  0  0  0
   74.7626   79.9854   88.8948 O   0  0  0  0  0  0  0  0  0  0  0  0
   73.6750   80.5717   89.1426 C   0  0  0  0  0  0  0  0  0  0  0  0
   73.7000   81.9161   89.5036 O   0  0  0  0  0  0  0  0  0  0  0  0
   72.8997   82.3659   89.6909 H   0  0  0  0  0  0  0  0  0  0  0  0
 31 32  2  0  0  0
 32 33  1  0  0  0
 32 23  1  0  0  0
 23 24  2  0  0  0
 24 25  1  0  0  0
 25 22  1  0  0  0
 22 21  1  0  0  0
 21  1  1  0  0  0
  1  2  2  0  0  0
  2  3  1  0  0  0
  3  4  2  0  0  0
  4  5  1  0  0  0
  5  7  1  0  0  0
  7  8  2  0  0  0
  8  9  1  0  0  0
  9 10  2  0  0  0
 10 11  1  0  0  0
 11 13  1  0  0  0
 13 14  1  0  0  0
 14 15  1  0  0  0
 15 16  2  0  0  0
 16 17  1  0  0  0
 17 18  2  0  0  0
 18 19  1  0  0  0
 19 20  2  0  0  0
 11 12  2  0  0  0
  5  6  2  0  0  0
 25 26  2  0  0  0
 26 27  1  0  0  0
 27 28  2  0  0  0
 28 29  1  0  0  0
 28 23  1  0  0  0
  6  1  1  0  0  0
 12  7  1  0  0  0
 20 15  1  0  0  0
 33 34  1  0  0  0
 29 30  1  0  0  0
M  END
> <Activity>
15.4

> <minimizedAffinity>
-9.34663

$$$$
HIPS6066


 34 37  0  0  0  0  0  0  0  0999 V2000
   70.2298   75.4107   91.5537 C   0  0  0  0  0  0  0  0  0  0  0  0
   70.1246   74.4169   92.5364 C   0  0  0  0  0  0  0  0  0  0  0  0
   68.9133   74.2099   93.1962 C   0  0  0  0  0  0  0  0  0  0  0  0
   67.8003   74.9948   92.8853 C   0  0  0  0  0  0  0  0  0  0  0  0
   67.8907   76.0035   91.9128 C   0  0  0  0  0  0  0  0  0  0  0  0
   69.1145   76.2079   91.2558 C   0  0  0  0  0  0  0  0  0  0  0  0
   66.7087   76.8322   91.5717 C   0  0  0  0  0  0  0  0  0  0  0  0
   66.5835   78.1361   92.0800 C   0  0  0  0  0  0  0  0  0  0  0  0
   65.4580   78.9058   91.7783 C   0  0  0  0  0  0  0  0  0  0  0  0
   64.4498   78.3877   90.9633 C   0  0  0  0  0  0  0  0  0  0  0  0
   64.5619   77.0996   90.4292 C   0  0  0  0  0  0  0  0  0  0  0  0
   65.6923   76.3191   90.7442 C   0  0  0  0  0  0  0  0  0  0  0  0
   63.5378   76.6411   89.5843 O   0  0  0  0  0  0  0  0  0  0  0  0
   63.3301   75.2766   89.2104 C   0  0  0  0  0  0  0  0  0  0  0  0
   63.0746   74.4145   90.4224 C   0  0  0  0  0  0  0  0  0  0  0  0
   63.9802   73.3995   90.7814 C   0  0  0  0  0  0  0  0  0  0  0  0
   63.7487   72.6183   91.9170 C   0  0  0  0  0  0  0  0  0  0  0  0
   62.6107   72.8393   92.6981 C   0  0  0  0  0  0  0  0  0  0  0  0
   61.6903   73.8262   92.3321 C   0  0  0  0  0  0  0  0  0  0  0  0
   61.9173   74.6104   91.1969 C   0  0  0  0  0  0  0  0  0  0  0  0
   71.5130   75.6070   90.7904 C   0  0  0  0  0  0  0  0  0  0  0  0
   71.2379   76.1057   89.4806 O   0  0  0  0  0  0  0  0  0  0  0  0
   69.2898   79.0459   88.3247 C   0  0  0  0  0  0  0  0  0  0  0  0
   69.6475   77.7335   88.6907 C   0  0  0  0  0  0  0  0  0  0  0  0
   70.9283   77.4414   89.1732 C   0  0  0  0  0  0  0  0  0  0  0  0
   71.8565   78.4837   89.3302 C   0  0  0  0  0  0  0  0  0  0  0  0
   71.5093   79.7904   88.9848 C   0  0  0  0  0  0  0  0  0  0  0  0
   70.2385   80.0809   88.4743 C   0  0  0  0  0  0  0  0  0  0  0  0
   69.9248   81.3959   88.1242 O   0  0  0  0  0  0  0  0  0  0  0  0
   70.5635   82.0735   88.2283 H   0  0  0  0  0  0  0  0  0  0  0  0
   67.7960   79.6565   86.5735 O   0  0  0  0  0  0  0  0  0  0  0  0
   67.9377   79.3114   87.7772 C   0  0  0  0  0  0  0  0  0  0  0  0
   66.8085   79.1945   88.5832 O   0  0  0  0  0  0  0  0  0  0  0  0
   66.8977   78.9388   89.4802 H   0  0  0  0  0  0  0  0  0  0  0  0
 31 32  2  0  0  0
 32 33  1  0  0  0
 32 23  1  0  0  0
 23 24  2  0  0  0
 24 25  1  0  0  0
 25 22  1  0  0  0
 22 21  1  0  0  0
 21  1  1  0  0  0
  1  2  2  0  0  0
  2  3  1  0  0  0
  3  4  2  0  0  0
  4  5  1  0  0  0
  5  7  1  0  0  0
  7  8  2  0  0  0
  8  9  1  0  0  0
  9 10  2  0  0  0
 10 11  1  0  0  0
 11 13  1  0  0  0
 13 14  1  0  0  0
 14 15  1  0  0  0
 15 16  2  0  0  0
 16 17  1  0  0  0
 17 18  2  0  0  0
 18 19  1  0  0  0
 19 20  2  0  0  0
 11 12  2  0  0  0
  5  6  2  0  0  0
 25 26  2  0  0  0
 26 27  1  0  0  0
 27 28  2  0  0  0
 28 29  1  0  0  0
 28 23  1  0  0  0
  6  1  1  0  0  0
 12  7  1  0  0  0
 20 15  1  0  0  0
 33 34  1  0  0  0
 29 30  1  0  0  0
M  END
> <Activity>
15.4

> <minimizedAffinity>
-9.32016

$$$$
HIPS6066


 34 37  0  0  0  0  0  0  0  0999 V2000
   69.0034   75.8248   92.0924 C   0  0  0  0  0  0  0  0  0  0  0  0
   69.7840   74.6607   92.0860 C   0  0  0  0  0  0  0  0  0  0  0  0
   70.9701   74.6169   91.3534 C   0  0  0  0  0  0  0  0  0  0  0  0
   71.3838   75.7305   90.6182 C   0  0  0  0  0  0  0  0  0  0  0  0
   70.6081   76.9007   90.6027 C   0  0  0  0  0  0  0  0  0  0  0  0
   69.4137   76.9354   91.3398 C   0  0  0  0  0  0  0  0  0  0  0  0
   71.0489   78.0891   89.8323 C   0  0  0  0  0  0  0  0  0  0  0  0
   72.3874   78.2159   89.4241 C   0  0  0  0  0  0  0  0  0  0  0  0
   72.8062   79.3472   88.7205 C   0  0  0  0  0  0  0  0  0  0  0  0
   71.8961   80.3596   88.4113 C   0  0  0  0  0  0  0  0  0  0  0  0
   70.5540   80.2463   88.7896 C   0  0  0  0  0  0  0  0  0  0  0  0
   70.1349   79.1099   89.5102 C   0  0  0  0  0  0  0  0  0  0  0  0
   69.6721   81.2752   88.4202 O   0  0  0  0  0  0  0  0  0  0  0  0
   69.0267   81.3875   87.1491 C   0  0  0  0  0  0  0  0  0  0  0  0
   68.2116   80.1550   86.8433 C   0  0  0  0  0  0  0  0  0  0  0  0
   67.4835   80.0591   85.6433 C   0  0  0  0  0  0  0  0  0  0  0  0
   66.7473   78.9062   85.3563 C   0  0  0  0  0  0  0  0  0  0  0  0
   66.7269   77.8447   86.2656 C   0  0  0  0  0  0  0  0  0  0  0  0
   67.4237   77.9434   87.4739 C   0  0  0  0  0  0  0  0  0  0  0  0
   68.1616   79.0946   87.7657 C   0  0  0  0  0  0  0  0  0  0  0  0
   67.7516   75.9087   92.9253 C   0  0  0  0  0  0  0  0  0  0  0  0
   66.6933   75.1794   92.3024 O   0  0  0  0  0  0  0  0  0  0  0  0
   63.4885   75.5128   90.4601 C   0  0  0  0  0  0  0  0  0  0  0  0
   64.5089   75.0233   91.2988 C   0  0  0  0  0  0  0  0  0  0  0  0
   65.6955   75.7410   91.4879 C   0  0  0  0  0  0  0  0  0  0  0  0
   65.8506   76.9877   90.8601 C   0  0  0  0  0  0  0  0  0  0  0  0
   64.8409   77.4901   90.0384 C   0  0  0  0  0  0  0  0  0  0  0  0
   63.6652   76.7609   89.8239 C   0  0  0  0  0  0  0  0  0  0  0  0
   62.6783   77.2830   88.9851 O   0  0  0  0  0  0  0  0  0  0  0  0
   62.8079   78.1125   88.5689 H   0  0  0  0  0  0  0  0  0  0  0  0
   61.9163   74.3684   89.0856 O   0  0  0  0  0  0  0  0  0  0  0  0
   62.2628   74.7057   90.2493 C   0  0  0  0  0  0  0  0  0  0  0  0
   61.4725   74.3178   91.3279 O   0  0  0  0  0  0  0  0  0  0  0  0
   61.7170   74.5609   92.1992 H   0  0  0  0  0  0  0  0  0  0  0  0
 31 32  2  0  0  0
 32 33  1  0  0  0
 32 23  1  0  0  0
 23 24  2  0  0  0
 24 25  1  0  0  0
 25 22  1  0  0  0
 22 21  1  0  0  0
 21  1  1  0  0  0
  1  2  2  0  0  0
  2  3  1  0  0  0
  3  4  2  0  0  0
  4  5  1  0  0  0
  5  7  1  0  0  0
  7  8  2  0  0  0
  8  9  1  0  0  0
  9 10  2  0  0  0
 10 11  1  0  0  0
 11 13  1  0  0  0
 13 14  1  0  0  0
 14 15  1  0  0  0
 15 16  2  0  0  0
 16 17  1  0  0  0
 17 18  2  0  0  0
 18 19  1  0  0  0
 19 20  2  0  0  0
 11 12  2  0  0  0
  5  6  2  0  0  0
 25 26  2  0  0  0
 26 27  1  0  0  0
 27 28  2  0  0  0
 28 29  1  0  0  0
 28 23  1  0  0  0
  6  1  1  0  0  0
 12  7  1  0  0  0
 20 15  1  0  0  0
 33 34  1  0  0  0
 29 30  1  0  0  0
M  END
> <Activity>
15.4

> <minimizedAffinity>
-9.29853

$$$$
HIPS6134


 35 38  0  0  0  0  0  0  0  0999 V2000
   68.8900   74.9499   91.6767 C   0  0  0  0  0  0  0  0  0  0  0  0
   70.2448   74.6321   91.8492 C   0  0  0  0  0  0  0  0  0  0  0  0
   71.2228   75.3014   91.1108 C   0  0  0  0  0  0  0  0  0  0  0  0
   70.8584   76.2882   90.1909 C   0  0  0  0  0  0  0  0  0  0  0  0
   69.5049   76.6126   89.9974 C   0  0  0  0  0  0  0  0  0  0  0  0
   68.5282   75.9478   90.7574 C   0  0  0  0  0  0  0  0  0  0  0  0
   69.1055   77.6479   89.0135 C   0  0  0  0  0  0  0  0  0  0  0  0
   67.9731   77.4562   88.2035 C   0  0  0  0  0  0  0  0  0  0  0  0
   67.5838   78.4394   87.2913 C   0  0  0  0  0  0  0  0  0  0  0  0
   68.3077   79.6286   87.1900 C   0  0  0  0  0  0  0  0  0  0  0  0
   69.4330   79.8452   87.9925 C   0  0  0  0  0  0  0  0  0  0  0  0
   69.8397   78.8404   88.8927 C   0  0  0  0  0  0  0  0  0  0  0  0
   70.1103   81.0685   87.8657 O   0  0  0  0  0  0  0  0  0  0  0  0
   70.7387   81.7826   88.9314 C   0  0  0  0  0  0  0  0  0  0  0  0
   72.2366   81.6472   88.8609 C   0  0  0  0  0  0  0  0  0  0  0  0
   73.0398   82.7908   88.7250 C   0  0  0  0  0  0  0  0  0  0  0  0
   74.4312   82.6709   88.6541 C   0  0  0  0  0  0  0  0  0  0  0  0
   75.0301   81.4104   88.7153 C   0  0  0  0  0  0  0  0  0  0  0  0
   74.2379   80.2646   88.8435 C   0  0  0  0  0  0  0  0  0  0  0  0
   74.9898   78.6813   88.9233 Cl  0  0  0  0  0  0  0  0  0  0  0  0
   72.8448   80.3809   88.9102 C   0  0  0  0  0  0  0  0  0  0  0  0
   67.8382   74.2654   92.5088 C   0  0  0  0  0  0  0  0  0  0  0  0
   66.9212   73.5337   91.6913 O   0  0  0  0  0  0  0  0  0  0  0  0
   63.9403   75.6494   90.8774 C   0  0  0  0  0  0  0  0  0  0  0  0
   65.2704   75.2860   91.1507 C   0  0  0  0  0  0  0  0  0  0  0  0
   65.6155   73.9395   91.3756 C   0  0  0  0  0  0  0  0  0  0  0  0
   64.6202   72.9604   91.3039 C   0  0  0  0  0  0  0  0  0  0  0  0
   63.2947   73.3138   91.0443 C   0  0  0  0  0  0  0  0  0  0  0  0
   62.9476   74.6504   90.8209 C   0  0  0  0  0  0  0  0  0  0  0  0
   61.6143   74.9465   90.5254 O   0  0  0  0  0  0  0  0  0  0  0  0
   60.9774   74.2599   90.4953 H   0  0  0  0  0  0  0  0  0  0  0  0
   63.7921   77.9333   91.5133 O   0  0  0  0  0  0  0  0  0  0  0  0
   63.6272   77.0640   90.6158 C   0  0  0  0  0  0  0  0  0  0  0  0
   63.1059   77.4306   89.3815 O   0  0  0  0  0  0  0  0  0  0  0  0
   62.9832   76.7844   88.7141 H   0  0  0  0  0  0  0  0  0  0  0  0
 32 33  2  0  0  0
 33 34  1  0  0  0
 33 24  1  0  0  0
 24 25  2  0  0  0
 25 26  1  0  0  0
 26 23  1  0  0  0
 23 22  1  0  0  0
 22  1  1  0  0  0
  1  2  2  0  0  0
  2  3  1  0  0  0
  3  4  2  0  0  0
  4  5  1  0  0  0
  5  7  1  0  0  0
  7  8  2  0  0  0
  8  9  1  0  0  0
  9 10  2  0  0  0
 10 11  1  0  0  0
 11 13  1  0  0  0
 13 14  1  0  0  0
 14 15  1  0  0  0
 15 16  2  0  0  0
 16 17  1  0  0  0
 17 18  2  0  0  0
 18 19  1  0  0  0
 19 20  1  0  0  0
 19 21  2  0  0  0
 11 12  2  0  0  0
  5  6  2  0  0  0
 26 27  2  0  0  0
 27 28  1  0  0  0
 28 29  2  0  0  0
 29 30  1  0  0  0
 29 24  1  0  0  0
  6  1  1  0  0  0
 12  7  1  0  0  0
 21 15  1  0  0  0
 34 35  1  0  0  0
 30 31  1  0  0  0
M  END
> <Activity>
16.0

> <minimizedAffinity>
-10.96685

$$$$
HIPS6134


 35 38  0  0  0  0  0  0  0  0999 V2000
   68.8067   74.9180   91.6997 C   0  0  0  0  0  0  0  0  0  0  0  0
   70.1519   74.6233   91.9642 C   0  0  0  0  0  0  0  0  0  0  0  0
   71.1664   75.3262   91.3112 C   0  0  0  0  0  0  0  0  0  0  0  0
   70.8489   76.3240   90.3858 C   0  0  0  0  0  0  0  0  0  0  0  0
   69.5064   76.6258   90.1006 C   0  0  0  0  0  0  0  0  0  0  0  0
   68.4914   75.9270   90.7753 C   0  0  0  0  0  0  0  0  0  0  0  0
   69.1576   77.6727   89.1098 C   0  0  0  0  0  0  0  0  0  0  0  0
   68.0389   77.5126   88.2741 C   0  0  0  0  0  0  0  0  0  0  0  0
   67.6972   78.5070   87.3550 C   0  0  0  0  0  0  0  0  0  0  0  0
   68.4551   79.6763   87.2722 C   0  0  0  0  0  0  0  0  0  0  0  0
   69.5674   79.8614   88.1003 C   0  0  0  0  0  0  0  0  0  0  0  0
   69.9263   78.8449   89.0077 C   0  0  0  0  0  0  0  0  0  0  0  0
   70.2802   81.0660   87.9910 O   0  0  0  0  0  0  0  0  0  0  0  0
   70.9559   81.7296   89.0605 C   0  0  0  0  0  0  0  0  0  0  0  0
   72.4476   81.6961   88.8583 C   0  0  0  0  0  0  0  0  0  0  0  0
   73.1376   80.4749   88.9201 C   0  0  0  0  0  0  0  0  0  0  0  0
   74.5235   80.4381   88.7378 C   0  0  0  0  0  0  0  0  0  0  0  0
   75.2303   81.6184   88.4961 C   0  0  0  0  0  0  0  0  0  0  0  0
   74.5526   82.8409   88.4399 C   0  0  0  0  0  0  0  0  0  0  0  0
   75.4394   84.3236   88.1333 Cl  0  0  0  0  0  0  0  0  0  0  0  0
   73.1661   82.8817   88.6262 C   0  0  0  0  0  0  0  0  0  0  0  0
   67.7121   74.1966   92.4403 C   0  0  0  0  0  0  0  0  0  0  0  0
   66.6580   73.8022   91.5584 O   0  0  0  0  0  0  0  0  0  0  0  0
   63.5473   75.0713   89.9041 C   0  0  0  0  0  0  0  0  0  0  0  0
   64.4897   74.1782   90.4427 C   0  0  0  0  0  0  0  0  0  0  0  0
   65.6703   74.6557   91.0434 C   0  0  0  0  0  0  0  0  0  0  0  0
   65.8871   76.0348   91.1172 C   0  0  0  0  0  0  0  0  0  0  0  0
   64.9619   76.9285   90.5746 C   0  0  0  0  0  0  0  0  0  0  0  0
   63.7880   76.4583   89.9764 C   0  0  0  0  0  0  0  0  0  0  0  0
   62.8755   77.3954   89.4846 O   0  0  0  0  0  0  0  0  0  0  0  0
   63.0645   78.3110   89.5474 H   0  0  0  0  0  0  0  0  0  0  0  0
   61.2081   74.6581   89.9116 O   0  0  0  0  0  0  0  0  0  0  0  0
   62.3107   74.5326   89.3140 C   0  0  0  0  0  0  0  0  0  0  0  0
   62.3730   73.8444   88.1090 O   0  0  0  0  0  0  0  0  0  0  0  0
   63.1926   73.7511   87.6646 H   0  0  0  0  0  0  0  0  0  0  0  0
 32 33  2  0  0  0
 33 34  1  0  0  0
 33 24  1  0  0  0
 24 25  2  0  0  0
 25 26  1  0  0  0
 26 23  1  0  0  0
 23 22  1  0  0  0
 22  1  1  0  0  0
  1  2  2  0  0  0
  2  3  1  0  0  0
  3  4  2  0  0  0
  4  5  1  0  0  0
  5  7  1  0  0  0
  7  8  2  0  0  0
  8  9  1  0  0  0
  9 10  2  0  0  0
 10 11  1  0  0  0
 11 13  1  0  0  0
 13 14  1  0  0  0
 14 15  1  0  0  0
 15 16  2  0  0  0
 16 17  1  0  0  0
 17 18  2  0  0  0
 18 19  1  0  0  0
 19 20  1  0  0  0
 19 21  2  0  0  0
 11 12  2  0  0  0
  5  6  2  0  0  0
 26 27  2  0  0  0
 27 28  1  0  0  0
 28 29  2  0  0  0
 29 30  1  0  0  0
 29 24  1  0  0  0
  6  1  1  0  0  0
 12  7  1  0  0  0
 21 15  1  0  0  0
 34 35  1  0  0  0
 30 31  1  0  0  0
M  END
> <Activity>
16.0

> <minimizedAffinity>
-10.02207

$$$$
HIPS6134


 35 38  0  0  0  0  0  0  0  0999 V2000
   63.9981   74.1779   91.3249 C   0  0  0  0  0  0  0  0  0  0  0  0
   63.8165   72.8039   91.1120 C   0  0  0  0  0  0  0  0  0  0  0  0
   64.9161   71.9434   91.1020 C   0  0  0  0  0  0  0  0  0  0  0  0
   66.2053   72.4455   91.2984 C   0  0  0  0  0  0  0  0  0  0  0  0
   66.4072   73.8211   91.5030 C   0  0  0  0  0  0  0  0  0  0  0  0
   65.2942   74.6779   91.5301 C   0  0  0  0  0  0  0  0  0  0  0  0
   67.7721   74.3672   91.6982 C   0  0  0  0  0  0  0  0  0  0  0  0
   68.6748   73.7256   92.5636 C   0  0  0  0  0  0  0  0  0  0  0  0
   69.9674   74.2269   92.7325 C   0  0  0  0  0  0  0  0  0  0  0  0
   70.3779   75.3601   92.0284 C   0  0  0  0  0  0  0  0  0  0  0  0
   69.4994   76.0099   91.1547 C   0  0  0  0  0  0  0  0  0  0  0  0
   68.1873   75.5183   91.0068 C   0  0  0  0  0  0  0  0  0  0  0  0
   69.9719   77.1316   90.4548 O   0  0  0  0  0  0  0  0  0  0  0  0
   70.9638   77.1104   89.4270 C   0  0  0  0  0  0  0  0  0  0  0  0
   71.4941   78.4944   89.1615 C   0  0  0  0  0  0  0  0  0  0  0  0
   70.6037   79.5595   88.9513 C   0  0  0  0  0  0  0  0  0  0  0  0
   71.0903   80.8460   88.6996 C   0  0  0  0  0  0  0  0  0  0  0  0
   72.4669   81.0781   88.6529 C   0  0  0  0  0  0  0  0  0  0  0  0
   73.3619   80.0219   88.8540 C   0  0  0  0  0  0  0  0  0  0  0  0
   75.0913   80.3133   88.7983 Cl  0  0  0  0  0  0  0  0  0  0  0  0
   72.8781   78.7322   89.1018 C   0  0  0  0  0  0  0  0  0  0  0  0
   62.8092   75.0998   91.3869 C   0  0  0  0  0  0  0  0  0  0  0  0
   62.9075   76.1437   90.4148 O   0  0  0  0  0  0  0  0  0  0  0  0
   66.0578   77.1183   88.6400 C   0  0  0  0  0  0  0  0  0  0  0  0
   64.8581   76.4476   88.9347 C   0  0  0  0  0  0  0  0  0  0  0  0
   64.0900   76.8098   90.0579 C   0  0  0  0  0  0  0  0  0  0  0  0
   64.5246   77.8619   90.8695 C   0  0  0  0  0  0  0  0  0  0  0  0
   65.7207   78.5257   90.5907 C   0  0  0  0  0  0  0  0  0  0  0  0
   66.4870   78.1686   89.4761 C   0  0  0  0  0  0  0  0  0  0  0  0
   67.6553   78.8908   89.2184 O   0  0  0  0  0  0  0  0  0  0  0  0
   67.9141   79.5839   89.7934 H   0  0  0  0  0  0  0  0  0  0  0  0
   67.9751   76.2501   87.5387 O   0  0  0  0  0  0  0  0  0  0  0  0
   66.8144   76.7307   87.4379 C   0  0  0  0  0  0  0  0  0  0  0  0
   66.2554   76.9384   86.1833 O   0  0  0  0  0  0  0  0  0  0  0  0
   65.3925   77.2957   86.1081 H   0  0  0  0  0  0  0  0  0  0  0  0
 32 33  2  0  0  0
 33 34  1  0  0  0
 33 24  1  0  0  0
 24 25  2  0  0  0
 25 26  1  0  0  0
 26 23  1  0  0  0
 23 22  1  0  0  0
 22  1  1  0  0  0
  1  2  2  0  0  0
  2  3  1  0  0  0
  3  4  2  0  0  0
  4  5  1  0  0  0
  5  7  1  0  0  0
  7  8  2  0  0  0
  8  9  1  0  0  0
  9 10  2  0  0  0
 10 11  1  0  0  0
 11 13  1  0  0  0
 13 14  1  0  0  0
 14 15  1  0  0  0
 15 16  2  0  0  0
 16 17  1  0  0  0
 17 18  2  0  0  0
 18 19  1  0  0  0
 19 20  1  0  0  0
 19 21  2  0  0  0
 11 12  2  0  0  0
  5  6  2  0  0  0
 26 27  2  0  0  0
 27 28  1  0  0  0
 28 29  2  0  0  0
 29 30  1  0  0  0
 29 24  1  0  0  0
  6  1  1  0  0  0
 12  7  1  0  0  0
 21 15  1  0  0  0
 34 35  1  0  0  0
 30 31  1  0  0  0
M  END
> <Activity>
16.0

> <minimizedAffinity>
-9.97322

$$$$
HIPS6134


 35 38  0  0  0  0  0  0  0  0999 V2000
   69.9115   75.1980   90.7190 C   0  0  0  0  0  0  0  0  0  0  0  0
   70.5891   74.8075   91.8828 C   0  0  0  0  0  0  0  0  0  0  0  0
   69.9198   74.0948   92.8796 C   0  0  0  0  0  0  0  0  0  0  0  0
   68.5690   73.7705   92.7273 C   0  0  0  0  0  0  0  0  0  0  0  0
   67.8713   74.1625   91.5723 C   0  0  0  0  0  0  0  0  0  0  0  0
   68.5564   74.8632   90.5656 C   0  0  0  0  0  0  0  0  0  0  0  0
   66.4341   73.8365   91.4062 C   0  0  0  0  0  0  0  0  0  0  0  0
   66.0165   72.4970   91.3240 C   0  0  0  0  0  0  0  0  0  0  0  0
   64.6613   72.1878   91.1886 C   0  0  0  0  0  0  0  0  0  0  0  0
   63.7092   73.2079   91.1515 C   0  0  0  0  0  0  0  0  0  0  0  0
   64.1009   74.5481   91.2407 C   0  0  0  0  0  0  0  0  0  0  0  0
   65.4709   74.8586   91.3498 C   0  0  0  0  0  0  0  0  0  0  0  0
   63.0999   75.5324   91.2212 O   0  0  0  0  0  0  0  0  0  0  0  0
   63.0326   76.6284   90.3075 C   0  0  0  0  0  0  0  0  0  0  0  0
   64.4041   77.1854   90.0324 C   0  0  0  0  0  0  0  0  0  0  0  0
   64.9649   78.1337   90.9028 C   0  0  0  0  0  0  0  0  0  0  0  0
   66.2363   78.6580   90.6498 C   0  0  0  0  0  0  0  0  0  0  0  0
   66.9550   78.2427   89.5264 C   0  0  0  0  0  0  0  0  0  0  0  0
   66.4017   77.3037   88.6495 C   0  0  0  0  0  0  0  0  0  0  0  0
   67.3052   76.7794   87.2396 Cl  0  0  0  0  0  0  0  0  0  0  0  0
   65.1276   76.7802   88.8974 C   0  0  0  0  0  0  0  0  0  0  0  0
   70.6446   75.9217   89.6208 C   0  0  0  0  0  0  0  0  0  0  0  0
   70.0203   77.1704   89.3120 O   0  0  0  0  0  0  0  0  0  0  0  0
   72.7252   79.7394   88.9835 C   0  0  0  0  0  0  0  0  0  0  0  0
   72.0969   78.4920   89.1421 C   0  0  0  0  0  0  0  0  0  0  0  0
   70.6929   78.3867   89.1182 C   0  0  0  0  0  0  0  0  0  0  0  0
   69.9271   79.5382   88.9140 C   0  0  0  0  0  0  0  0  0  0  0  0
   70.5425   80.7827   88.7671 C   0  0  0  0  0  0  0  0  0  0  0  0
   71.9369   80.8918   88.7907 C   0  0  0  0  0  0  0  0  0  0  0  0
   72.5045   82.1543   88.5989 O   0  0  0  0  0  0  0  0  0  0  0  0
   71.9534   82.9016   88.4733 H   0  0  0  0  0  0  0  0  0  0  0  0
   74.7908   80.8981   88.8015 O   0  0  0  0  0  0  0  0  0  0  0  0
   74.1961   79.8016   88.9819 C   0  0  0  0  0  0  0  0  0  0  0  0
   74.9289   78.6319   89.1387 O   0  0  0  0  0  0  0  0  0  0  0  0
   74.4869   77.8166   89.2728 H   0  0  0  0  0  0  0  0  0  0  0  0
 32 33  2  0  0  0
 33 34  1  0  0  0
 33 24  1  0  0  0
 24 25  2  0  0  0
 25 26  1  0  0  0
 26 23  1  0  0  0
 23 22  1  0  0  0
 22  1  1  0  0  0
  1  2  2  0  0  0
  2  3  1  0  0  0
  3  4  2  0  0  0
  4  5  1  0  0  0
  5  7  1  0  0  0
  7  8  2  0  0  0
  8  9  1  0  0  0
  9 10  2  0  0  0
 10 11  1  0  0  0
 11 13  1  0  0  0
 13 14  1  0  0  0
 14 15  1  0  0  0
 15 16  2  0  0  0
 16 17  1  0  0  0
 17 18  2  0  0  0
 18 19  1  0  0  0
 19 20  1  0  0  0
 19 21  2  0  0  0
 11 12  2  0  0  0
  5  6  2  0  0  0
 26 27  2  0  0  0
 27 28  1  0  0  0
 28 29  2  0  0  0
 29 30  1  0  0  0
 29 24  1  0  0  0
  6  1  1  0  0  0
 12  7  1  0  0  0
 21 15  1  0  0  0
 34 35  1  0  0  0
 30 31  1  0  0  0
M  END
> <Activity>
16.0

> <minimizedAffinity>
-9.92284

$$$$
HIPS6134


 35 38  0  0  0  0  0  0  0  0999 V2000
   64.7721   74.5689   90.9091 C   0  0  0  0  0  0  0  0  0  0  0  0
   63.5605   75.2057   91.2134 C   0  0  0  0  0  0  0  0  0  0  0  0
   63.3092   76.4973   90.7462 C   0  0  0  0  0  0  0  0  0  0  0  0
   64.2650   77.1665   89.9772 C   0  0  0  0  0  0  0  0  0  0  0  0
   65.4890   76.5478   89.6710 C   0  0  0  0  0  0  0  0  0  0  0  0
   65.7269   75.2412   90.1291 C   0  0  0  0  0  0  0  0  0  0  0  0
   66.5165   77.2538   88.8678 C   0  0  0  0  0  0  0  0  0  0  0  0
   66.5288   77.1310   87.4677 C   0  0  0  0  0  0  0  0  0  0  0  0
   67.4830   77.8118   86.7084 C   0  0  0  0  0  0  0  0  0  0  0  0
   68.4214   78.6340   87.3345 C   0  0  0  0  0  0  0  0  0  0  0  0
   68.4225   78.7785   88.7260 C   0  0  0  0  0  0  0  0  0  0  0  0
   67.4762   78.0692   89.4920 C   0  0  0  0  0  0  0  0  0  0  0  0
   69.3739   79.6358   89.3013 O   0  0  0  0  0  0  0  0  0  0  0  0
   70.0399   80.7058   88.6288 C   0  0  0  0  0  0  0  0  0  0  0  0
   71.5349   80.5547   88.7245 C   0  0  0  0  0  0  0  0  0  0  0  0
   72.1032   79.2812   88.8874 C   0  0  0  0  0  0  0  0  0  0  0  0
   73.4907   79.1351   88.9817 C   0  0  0  0  0  0  0  0  0  0  0  0
   74.3197   80.2575   88.9174 C   0  0  0  0  0  0  0  0  0  0  0  0
   73.7624   81.5311   88.7625 C   0  0  0  0  0  0  0  0  0  0  0  0
   74.8033   82.9412   88.6788 Cl  0  0  0  0  0  0  0  0  0  0  0  0
   72.3739   81.6813   88.6721 C   0  0  0  0  0  0  0  0  0  0  0  0
   65.0238   73.1573   91.3689 C   0  0  0  0  0  0  0  0  0  0  0  0
   66.4233   72.8728   91.4371 O   0  0  0  0  0  0  0  0  0  0  0  0
   69.3438   75.1976   91.1371 C   0  0  0  0  0  0  0  0  0  0  0  0
   68.3294   74.2937   90.7769 C   0  0  0  0  0  0  0  0  0  0  0  0
   67.4262   73.8062   91.7409 C   0  0  0  0  0  0  0  0  0  0  0  0
   67.5366   74.2483   93.0626 C   0  0  0  0  0  0  0  0  0  0  0  0
   68.5483   75.1370   93.4312 C   0  0  0  0  0  0  0  0  0  0  0  0
   69.4480   75.6232   92.4767 C   0  0  0  0  0  0  0  0  0  0  0  0
   70.4170   76.5417   92.8893 O   0  0  0  0  0  0  0  0  0  0  0  0
   70.4606   76.8051   93.7874 H   0  0  0  0  0  0  0  0  0  0  0  0
   71.3154   76.3008   90.4033 O   0  0  0  0  0  0  0  0  0  0  0  0
   70.2472   75.7085   90.0928 C   0  0  0  0  0  0  0  0  0  0  0  0
   69.8928   75.5708   88.7567 O   0  0  0  0  0  0  0  0  0  0  0  0
   69.0986   75.1304   88.5256 H   0  0  0  0  0  0  0  0  0  0  0  0
 32 33  2  0  0  0
 33 34  1  0  0  0
 33 24  1  0  0  0
 24 25  2  0  0  0
 25 26  1  0  0  0
 26 23  1  0  0  0
 23 22  1  0  0  0
 22  1  1  0  0  0
  1  2  2  0  0  0
  2  3  1  0  0  0
  3  4  2  0  0  0
  4  5  1  0  0  0
  5  7  1  0  0  0
  7  8  2  0  0  0
  8  9  1  0  0  0
  9 10  2  0  0  0
 10 11  1  0  0  0
 11 13  1  0  0  0
 13 14  1  0  0  0
 14 15  1  0  0  0
 15 16  2  0  0  0
 16 17  1  0  0  0
 17 18  2  0  0  0
 18 19  1  0  0  0
 19 20  1  0  0  0
 19 21  2  0  0  0
 11 12  2  0  0  0
  5  6  2  0  0  0
 26 27  2  0  0  0
 27 28  1  0  0  0
 28 29  2  0  0  0
 29 30  1  0  0  0
 29 24  1  0  0  0
  6  1  1  0  0  0
 12  7  1  0  0  0
 21 15  1  0  0  0
 34 35  1  0  0  0
 30 31  1  0  0  0
M  END
> <Activity>
16.0

> <minimizedAffinity>
-9.69096

$$$$
HIPS6134


 35 38  0  0  0  0  0  0  0  0999 V2000
   68.2481   79.0592   87.4055 C   0  0  0  0  0  0  0  0  0  0  0  0
   67.4136   78.5961   86.3782 C   0  0  0  0  0  0  0  0  0  0  0  0
   66.8475   77.3219   86.4537 C   0  0  0  0  0  0  0  0  0  0  0  0
   67.1129   76.4972   87.5501 C   0  0  0  0  0  0  0  0  0  0  0  0
   67.9550   76.9406   88.5840 C   0  0  0  0  0  0  0  0  0  0  0  0
   68.5059   78.2308   88.5098 C   0  0  0  0  0  0  0  0  0  0  0  0
   68.2552   76.0686   89.7454 C   0  0  0  0  0  0  0  0  0  0  0  0
   69.5375   76.0714   90.3207 C   0  0  0  0  0  0  0  0  0  0  0  0
   69.8158   75.2662   91.4274 C   0  0  0  0  0  0  0  0  0  0  0  0
   68.8158   74.4651   91.9813 C   0  0  0  0  0  0  0  0  0  0  0  0
   67.5296   74.4530   91.4309 C   0  0  0  0  0  0  0  0  0  0  0  0
   67.2588   75.2455   90.2978 C   0  0  0  0  0  0  0  0  0  0  0  0
   66.5564   73.6464   92.0418 O   0  0  0  0  0  0  0  0  0  0  0  0
   65.6285   72.8037   91.3564 C   0  0  0  0  0  0  0  0  0  0  0  0
   64.2866   73.4742   91.2261 C   0  0  0  0  0  0  0  0  0  0  0  0
   63.2951   73.2560   92.1960 C   0  0  0  0  0  0  0  0  0  0  0  0
   62.0454   73.8721   92.0778 C   0  0  0  0  0  0  0  0  0  0  0  0
   61.7755   74.7069   90.9909 C   0  0  0  0  0  0  0  0  0  0  0  0
   62.7545   74.9248   90.0157 C   0  0  0  0  0  0  0  0  0  0  0  0
   62.4171   75.9756   88.6517 Cl  0  0  0  0  0  0  0  0  0  0  0  0
   64.0048   74.3062   90.1288 C   0  0  0  0  0  0  0  0  0  0  0  0
   68.8181   80.4517   87.3504 C   0  0  0  0  0  0  0  0  0  0  0  0
   69.5814   80.7495   88.5222 O   0  0  0  0  0  0  0  0  0  0  0  0
   73.2804   81.3286   88.6009 C   0  0  0  0  0  0  0  0  0  0  0  0
   71.9027   81.5853   88.4917 C   0  0  0  0  0  0  0  0  0  0  0  0
   70.9635   80.5500   88.6614 C   0  0  0  0  0  0  0  0  0  0  0  0
   71.4167   79.2619   88.9611 C   0  0  0  0  0  0  0  0  0  0  0  0
   72.7836   78.9958   89.0600 C   0  0  0  0  0  0  0  0  0  0  0  0
   73.7200   80.0213   88.8916 C   0  0  0  0  0  0  0  0  0  0  0  0
   75.0743   79.7108   89.0405 O   0  0  0  0  0  0  0  0  0  0  0  0
   75.3349   78.8318   89.2337 H   0  0  0  0  0  0  0  0  0  0  0  0
   75.4499   82.2239   88.2344 O   0  0  0  0  0  0  0  0  0  0  0  0
   74.2278   82.4452   88.4490 C   0  0  0  0  0  0  0  0  0  0  0  0
   73.7723   83.7503   88.5866 O   0  0  0  0  0  0  0  0  0  0  0  0
   72.8638   83.9150   88.7462 H   0  0  0  0  0  0  0  0  0  0  0  0
 32 33  2  0  0  0
 33 34  1  0  0  0
 33 24  1  0  0  0
 24 25  2  0  0  0
 25 26  1  0  0  0
 26 23  1  0  0  0
 23 22  1  0  0  0
 22  1  1  0  0  0
  1  2  2  0  0  0
  2  3  1  0  0  0
  3  4  2  0  0  0
  4  5  1  0  0  0
  5  7  1  0  0  0
  7  8  2  0  0  0
  8  9  1  0  0  0
  9 10  2  0  0  0
 10 11  1  0  0  0
 11 13  1  0  0  0
 13 14  1  0  0  0
 14 15  1  0  0  0
 15 16  2  0  0  0
 16 17  1  0  0  0
 17 18  2  0  0  0
 18 19  1  0  0  0
 19 20  1  0  0  0
 19 21  2  0  0  0
 11 12  2  0  0  0
  5  6  2  0  0  0
 26 27  2  0  0  0
 27 28  1  0  0  0
 28 29  2  0  0  0
 29 30  1  0  0  0
 29 24  1  0  0  0
  6  1  1  0  0  0
 12  7  1  0  0  0
 21 15  1  0  0  0
 34 35  1  0  0  0
 30 31  1  0  0  0
M  END
> <Activity>
16.0

> <minimizedAffinity>
-9.60534

$$$$
HIPS6134


 35 38  0  0  0  0  0  0  0  0999 V2000
   70.1809   74.7941   91.6409 C   0  0  0  0  0  0  0  0  0  0  0  0
   70.0285   73.9138   92.7216 C   0  0  0  0  0  0  0  0  0  0  0  0
   68.9345   74.0386   93.5803 C   0  0  0  0  0  0  0  0  0  0  0  0
   67.9871   75.0446   93.3723 C   0  0  0  0  0  0  0  0  0  0  0  0
   68.1292   75.9422   92.3004 C   0  0  0  0  0  0  0  0  0  0  0  0
   69.2225   75.7986   91.4301 C   0  0  0  0  0  0  0  0  0  0  0  0
   67.1378   77.0225   92.0784 C   0  0  0  0  0  0  0  0  0  0  0  0
   67.3690   78.3119   92.5879 C   0  0  0  0  0  0  0  0  0  0  0  0
   66.4462   79.3355   92.3618 C   0  0  0  0  0  0  0  0  0  0  0  0
   65.2946   79.0891   91.6123 C   0  0  0  0  0  0  0  0  0  0  0  0
   65.0480   77.8158   91.0877 C   0  0  0  0  0  0  0  0  0  0  0  0
   65.9670   76.7779   91.3402 C   0  0  0  0  0  0  0  0  0  0  0  0
   63.8859   77.6295   90.3222 O   0  0  0  0  0  0  0  0  0  0  0  0
   63.5988   76.4859   89.5157 C   0  0  0  0  0  0  0  0  0  0  0  0
   63.4229   75.2567   90.3673 C   0  0  0  0  0  0  0  0  0  0  0  0
   62.3126   75.1453   91.2195 C   0  0  0  0  0  0  0  0  0  0  0  0
   62.1465   74.0082   92.0163 C   0  0  0  0  0  0  0  0  0  0  0  0
   63.0875   72.9769   91.9707 C   0  0  0  0  0  0  0  0  0  0  0  0
   64.2007   73.0818   91.1302 C   0  0  0  0  0  0  0  0  0  0  0  0
   65.3815   71.7854   91.0704 Cl  0  0  0  0  0  0  0  0  0  0  0  0
   64.3722   74.2205   90.3347 C   0  0  0  0  0  0  0  0  0  0  0  0
   71.3321   74.6291   90.6844 C   0  0  0  0  0  0  0  0  0  0  0  0
   71.0292   75.1858   89.4028 O   0  0  0  0  0  0  0  0  0  0  0  0
   68.9231   78.1346   88.4576 C   0  0  0  0  0  0  0  0  0  0  0  0
   69.2994   76.8046   88.7133 C   0  0  0  0  0  0  0  0  0  0  0  0
   70.5954   76.5004   89.1724 C   0  0  0  0  0  0  0  0  0  0  0  0
   71.5020   77.5416   89.3916 C   0  0  0  0  0  0  0  0  0  0  0  0
   71.1403   78.8643   89.1293 C   0  0  0  0  0  0  0  0  0  0  0  0
   69.8541   79.1708   88.6727 C   0  0  0  0  0  0  0  0  0  0  0  0
   69.5294   80.5138   88.4637 O   0  0  0  0  0  0  0  0  0  0  0  0
   70.1707   81.1800   88.6155 H   0  0  0  0  0  0  0  0  0  0  0  0
   66.9049   79.3871   88.4850 O   0  0  0  0  0  0  0  0  0  0  0  0
   67.5484   78.4130   88.0101 C   0  0  0  0  0  0  0  0  0  0  0  0
   66.9463   77.5664   87.0879 O   0  0  0  0  0  0  0  0  0  0  0  0
   67.4246   76.8422   86.7348 H   0  0  0  0  0  0  0  0  0  0  0  0
 32 33  2  0  0  0
 33 34  1  0  0  0
 33 24  1  0  0  0
 24 25  2  0  0  0
 25 26  1  0  0  0
 26 23  1  0  0  0
 23 22  1  0  0  0
 22  1  1  0  0  0
  1  2  2  0  0  0
  2  3  1  0  0  0
  3  4  2  0  0  0
  4  5  1  0  0  0
  5  7  1  0  0  0
  7  8  2  0  0  0
  8  9  1  0  0  0
  9 10  2  0  0  0
 10 11  1  0  0  0
 11 13  1  0  0  0
 13 14  1  0  0  0
 14 15  1  0  0  0
 15 16  2  0  0  0
 16 17  1  0  0  0
 17 18  2  0  0  0
 18 19  1  0  0  0
 19 20  1  0  0  0
 19 21  2  0  0  0
 11 12  2  0  0  0
  5  6  2  0  0  0
 26 27  2  0  0  0
 27 28  1  0  0  0
 28 29  2  0  0  0
 29 30  1  0  0  0
 29 24  1  0  0  0
  6  1  1  0  0  0
 12  7  1  0  0  0
 21 15  1  0  0  0
 34 35  1  0  0  0
 30 31  1  0  0  0
M  END
> <Activity>
16.0

> <minimizedAffinity>
-9.51825

$$$$
HIPS6134


 35 38  0  0  0  0  0  0  0  0999 V2000
   69.9261   75.4296   90.3281 C   0  0  0  0  0  0  0  0  0  0  0  0
   70.7350   75.0179   91.3969 C   0  0  0  0  0  0  0  0  0  0  0  0
   70.1922   74.2626   92.4382 C   0  0  0  0  0  0  0  0  0  0  0  0
   68.8383   73.9164   92.4258 C   0  0  0  0  0  0  0  0  0  0  0  0
   68.0104   74.3290   91.3680 C   0  0  0  0  0  0  0  0  0  0  0  0
   68.5680   75.0729   90.3148 C   0  0  0  0  0  0  0  0  0  0  0  0
   66.5692   73.9798   91.3514 C   0  0  0  0  0  0  0  0  0  0  0  0
   66.1668   72.6340   91.3031 C   0  0  0  0  0  0  0  0  0  0  0  0
   64.8101   72.3028   91.3084 C   0  0  0  0  0  0  0  0  0  0  0  0
   63.8431   73.3070   91.3795 C   0  0  0  0  0  0  0  0  0  0  0  0
   64.2203   74.6530   91.4374 C   0  0  0  0  0  0  0  0  0  0  0  0
   65.5890   74.9858   91.4044 C   0  0  0  0  0  0  0  0  0  0  0  0
   63.2071   75.6204   91.5309 O   0  0  0  0  0  0  0  0  0  0  0  0
   63.0989   76.7891   90.7165 C   0  0  0  0  0  0  0  0  0  0  0  0
   64.4601   77.3222   90.3559 C   0  0  0  0  0  0  0  0  0  0  0  0
   65.1106   78.2247   91.2123 C   0  0  0  0  0  0  0  0  0  0  0  0
   66.3728   78.7269   90.8804 C   0  0  0  0  0  0  0  0  0  0  0  0
   66.9927   78.3349   89.6916 C   0  0  0  0  0  0  0  0  0  0  0  0
   66.3494   77.4417   88.8284 C   0  0  0  0  0  0  0  0  0  0  0  0
   67.1288   76.9467   87.3363 Cl  0  0  0  0  0  0  0  0  0  0  0  0
   65.0842   76.9406   89.1556 C   0  0  0  0  0  0  0  0  0  0  0  0
   70.5209   76.2003   89.1794 C   0  0  0  0  0  0  0  0  0  0  0  0
   71.7140   76.8835   89.5719 O   0  0  0  0  0  0  0  0  0  0  0  0
   71.3087   80.5574   88.9700 C   0  0  0  0  0  0  0  0  0  0  0  0
   70.9863   79.2206   89.2613 C   0  0  0  0  0  0  0  0  0  0  0  0
   71.9917   78.2366   89.3245 C   0  0  0  0  0  0  0  0  0  0  0  0
   73.3227   78.6085   89.1134 C   0  0  0  0  0  0  0  0  0  0  0  0
   73.6504   79.9317   88.8122 C   0  0  0  0  0  0  0  0  0  0  0  0
   72.6547   80.9122   88.7480 C   0  0  0  0  0  0  0  0  0  0  0  0
   73.0398   82.2290   88.4827 O   0  0  0  0  0  0  0  0  0  0  0  0
   73.9430   82.4332   88.3394 H   0  0  0  0  0  0  0  0  0  0  0  0
   69.4361   81.6235   87.9705 O   0  0  0  0  0  0  0  0  0  0  0  0
   70.2321   81.5613   88.9456 C   0  0  0  0  0  0  0  0  0  0  0  0
   70.1244   82.4720   89.9891 O   0  0  0  0  0  0  0  0  0  0  0  0
   70.7162   82.4259   90.7141 H   0  0  0  0  0  0  0  0  0  0  0  0
 32 33  2  0  0  0
 33 34  1  0  0  0
 33 24  1  0  0  0
 24 25  2  0  0  0
 25 26  1  0  0  0
 26 23  1  0  0  0
 23 22  1  0  0  0
 22  1  1  0  0  0
  1  2  2  0  0  0
  2  3  1  0  0  0
  3  4  2  0  0  0
  4  5  1  0  0  0
  5  7  1  0  0  0
  7  8  2  0  0  0
  8  9  1  0  0  0
  9 10  2  0  0  0
 10 11  1  0  0  0
 11 13  1  0  0  0
 13 14  1  0  0  0
 14 15  1  0  0  0
 15 16  2  0  0  0
 16 17  1  0  0  0
 17 18  2  0  0  0
 18 19  1  0  0  0
 19 20  1  0  0  0
 19 21  2  0  0  0
 11 12  2  0  0  0
  5  6  2  0  0  0
 26 27  2  0  0  0
 27 28  1  0  0  0
 28 29  2  0  0  0
 29 30  1  0  0  0
 29 24  1  0  0  0
  6  1  1  0  0  0
 12  7  1  0  0  0
 21 15  1  0  0  0
 34 35  1  0  0  0
 30 31  1  0  0  0
M  END
> <Activity>
16.0

> <minimizedAffinity>
-9.35631

$$$$
HIPS6134


 35 38  0  0  0  0  0  0  0  0999 V2000
   67.6385   79.3566   87.1925 C   0  0  0  0  0  0  0  0  0  0  0  0
   67.1840   78.5302   86.1548 C   0  0  0  0  0  0  0  0  0  0  0  0
   66.7557   77.2298   86.4288 C   0  0  0  0  0  0  0  0  0  0  0  0
   66.7822   76.7407   87.7376 C   0  0  0  0  0  0  0  0  0  0  0  0
   67.2442   77.5511   88.7886 C   0  0  0  0  0  0  0  0  0  0  0  0
   67.6559   78.8645   88.5076 C   0  0  0  0  0  0  0  0  0  0  0  0
   67.2902   77.0378   90.1792 C   0  0  0  0  0  0  0  0  0  0  0  0
   67.6686   77.8850   91.2349 C   0  0  0  0  0  0  0  0  0  0  0  0
   67.6924   77.4087   92.5475 C   0  0  0  0  0  0  0  0  0  0  0  0
   67.3231   76.0909   92.8225 C   0  0  0  0  0  0  0  0  0  0  0  0
   66.9343   75.2322   91.7887 C   0  0  0  0  0  0  0  0  0  0  0  0
   66.9374   75.7070   90.4622 C   0  0  0  0  0  0  0  0  0  0  0  0
   66.5510   73.9239   92.1245 O   0  0  0  0  0  0  0  0  0  0  0  0
   65.7404   73.0653   91.3206 C   0  0  0  0  0  0  0  0  0  0  0  0
   64.3508   73.6246   91.1673 C   0  0  0  0  0  0  0  0  0  0  0  0
   63.4018   73.4368   92.1848 C   0  0  0  0  0  0  0  0  0  0  0  0
   62.1083   73.9497   92.0461 C   0  0  0  0  0  0  0  0  0  0  0  0
   61.7522   74.6502   90.8912 C   0  0  0  0  0  0  0  0  0  0  0  0
   62.6887   74.8362   89.8688 C   0  0  0  0  0  0  0  0  0  0  0  0
   62.2430   75.7185   88.4192 Cl  0  0  0  0  0  0  0  0  0  0  0  0
   63.9828   74.3203   90.0027 C   0  0  0  0  0  0  0  0  0  0  0  0
   68.0524   80.7757   86.9063 C   0  0  0  0  0  0  0  0  0  0  0  0
   69.0495   81.2240   87.8278 O   0  0  0  0  0  0  0  0  0  0  0  0
   71.2504   78.5410   89.2355 C   0  0  0  0  0  0  0  0  0  0  0  0
   70.0914   79.2210   88.8231 C   0  0  0  0  0  0  0  0  0  0  0  0
   70.1798   80.4900   88.2191 C   0  0  0  0  0  0  0  0  0  0  0  0
   71.4395   81.0605   88.0145 C   0  0  0  0  0  0  0  0  0  0  0  0
   72.5950   80.3971   88.4315 C   0  0  0  0  0  0  0  0  0  0  0  0
   72.5116   79.1366   89.0324 C   0  0  0  0  0  0  0  0  0  0  0  0
   73.7001   78.4973   89.3949 O   0  0  0  0  0  0  0  0  0  0  0  0
   74.5234   78.9196   89.2469 H   0  0  0  0  0  0  0  0  0  0  0  0
   71.1391   77.0537   91.0844 O   0  0  0  0  0  0  0  0  0  0  0  0
   71.1167   77.2021   89.8330 C   0  0  0  0  0  0  0  0  0  0  0  0
   71.0080   76.0926   89.0041 O   0  0  0  0  0  0  0  0  0  0  0  0
   70.9913   76.2027   88.0738 H   0  0  0  0  0  0  0  0  0  0  0  0
 32 33  2  0  0  0
 33 34  1  0  0  0
 33 24  1  0  0  0
 24 25  2  0  0  0
 25 26  1  0  0  0
 26 23  1  0  0  0
 23 22  1  0  0  0
 22  1  1  0  0  0
  1  2  2  0  0  0
  2  3  1  0  0  0
  3  4  2  0  0  0
  4  5  1  0  0  0
  5  7  1  0  0  0
  7  8  2  0  0  0
  8  9  1  0  0  0
  9 10  2  0  0  0
 10 11  1  0  0  0
 11 13  1  0  0  0
 13 14  1  0  0  0
 14 15  1  0  0  0
 15 16  2  0  0  0
 16 17  1  0  0  0
 17 18  2  0  0  0
 18 19  1  0  0  0
 19 20  1  0  0  0
 19 21  2  0  0  0
 11 12  2  0  0  0
  5  6  2  0  0  0
 26 27  2  0  0  0
 27 28  1  0  0  0
 28 29  2  0  0  0
 29 30  1  0  0  0
 29 24  1  0  0  0
  6  1  1  0  0  0
 12  7  1  0  0  0
 21 15  1  0  0  0
 34 35  1  0  0  0
 30 31  1  0  0  0
M  END
> <Activity>
16.0

> <minimizedAffinity>
-9.23860

$$$$
HIPS6134


 35 38  0  0  0  0  0  0  0  0999 V2000
   64.1847   74.4646   91.0167 C   0  0  0  0  0  0  0  0  0  0  0  0
   64.1643   73.0627   90.9969 C   0  0  0  0  0  0  0  0  0  0  0  0
   65.3046   72.3386   91.3504 C   0  0  0  0  0  0  0  0  0  0  0  0
   66.4755   73.0053   91.7209 C   0  0  0  0  0  0  0  0  0  0  0  0
   66.5174   74.4098   91.7366 C   0  0  0  0  0  0  0  0  0  0  0  0
   65.3606   75.1311   91.3975 C   0  0  0  0  0  0  0  0  0  0  0  0
   67.7587   75.1281   92.1143 C   0  0  0  0  0  0  0  0  0  0  0  0
   69.0110   74.6467   91.6954 C   0  0  0  0  0  0  0  0  0  0  0  0
   70.1794   75.3335   92.0328 C   0  0  0  0  0  0  0  0  0  0  0  0
   70.1099   76.5140   92.7744 C   0  0  0  0  0  0  0  0  0  0  0  0
   68.8738   77.0168   93.1944 C   0  0  0  0  0  0  0  0  0  0  0  0
   67.6986   76.3076   92.8763 C   0  0  0  0  0  0  0  0  0  0  0  0
   68.8604   78.2200   93.9180 O   0  0  0  0  0  0  0  0  0  0  0  0
   68.4743   79.4943   93.4007 C   0  0  0  0  0  0  0  0  0  0  0  0
   68.1159   80.4417   94.5148 C   0  0  0  0  0  0  0  0  0  0  0  0
   68.5646   80.1915   95.8214 C   0  0  0  0  0  0  0  0  0  0  0  0
   68.2310   81.0651   96.8610 C   0  0  0  0  0  0  0  0  0  0  0  0
   67.4457   82.1917   96.6051 C   0  0  0  0  0  0  0  0  0  0  0  0
   66.9879   82.4456   95.3079 C   0  0  0  0  0  0  0  0  0  0  0  0
   66.0039   83.8621   94.9852 Cl  0  0  0  0  0  0  0  0  0  0  0  0
   67.3164   81.5708   94.2659 C   0  0  0  0  0  0  0  0  0  0  0  0
   62.9412   75.2463   90.6853 C   0  0  0  0  0  0  0  0  0  0  0  0
   63.2472   76.4102   89.9131 O   0  0  0  0  0  0  0  0  0  0  0  0
   66.7926   77.0733   88.9060 C   0  0  0  0  0  0  0  0  0  0  0  0
   65.5210   76.4764   88.9575 C   0  0  0  0  0  0  0  0  0  0  0  0
   64.5175   76.9953   89.7980 C   0  0  0  0  0  0  0  0  0  0  0  0
   64.7939   78.1279   90.5695 C   0  0  0  0  0  0  0  0  0  0  0  0
   66.0576   78.7201   90.5331 C   0  0  0  0  0  0  0  0  0  0  0  0
   67.0575   78.2075   89.6999 C   0  0  0  0  0  0  0  0  0  0  0  0
   68.2924   78.8609   89.6700 O   0  0  0  0  0  0  0  0  0  0  0  0
   68.4378   79.6128   90.2099 H   0  0  0  0  0  0  0  0  0  0  0  0
   68.1669   75.3171   88.0878 O   0  0  0  0  0  0  0  0  0  0  0  0
   67.8033   76.5198   87.9897 C   0  0  0  0  0  0  0  0  0  0  0  0
   68.3881   77.3465   87.0388 O   0  0  0  0  0  0  0  0  0  0  0  0
   68.1179   78.2408   86.9656 H   0  0  0  0  0  0  0  0  0  0  0  0
 32 33  2  0  0  0
 33 34  1  0  0  0
 33 24  1  0  0  0
 24 25  2  0  0  0
 25 26  1  0  0  0
 26 23  1  0  0  0
 23 22  1  0  0  0
 22  1  1  0  0  0
  1  2  2  0  0  0
  2  3  1  0  0  0
  3  4  2  0  0  0
  4  5  1  0  0  0
  5  7  1  0  0  0
  7  8  2  0  0  0
  8  9  1  0  0  0
  9 10  2  0  0  0
 10 11  1  0  0  0
 11 13  1  0  0  0
 13 14  1  0  0  0
 14 15  1  0  0  0
 15 16  2  0  0  0
 16 17  1  0  0  0
 17 18  2  0  0  0
 18 19  1  0  0  0
 19 20  1  0  0  0
 19 21  2  0  0  0
 11 12  2  0  0  0
  5  6  2  0  0  0
 26 27  2  0  0  0
 27 28  1  0  0  0
 28 29  2  0  0  0
 29 30  1  0  0  0
 29 24  1  0  0  0
  6  1  1  0  0  0
 12  7  1  0  0  0
 21 15  1  0  0  0
 34 35  1  0  0  0
 30 31  1  0  0  0
M  END
> <Activity>
16.0

> <minimizedAffinity>
-9.10220

$$$$
HIPS6546


 35 37  0  0  0  0  0  0  0  0999 V2000
   69.5297   75.4618   91.4190 C   0  0  0  0  0  0  0  0  0  0  0  0
   70.4346   74.8717   92.3191 C   0  0  0  0  0  0  0  0  0  0  0  0
   70.1312   73.6528   92.9299 C   0  0  0  0  0  0  0  0  0  0  0  0
   68.9261   73.0067   92.6490 C   0  0  0  0  0  0  0  0  0  0  0  0
   68.0151   73.5728   91.7447 C   0  0  0  0  0  0  0  0  0  0  0  0
   68.3155   74.8062   91.1444 C   0  0  0  0  0  0  0  0  0  0  0  0
   70.4629   79.2102   89.5274 C   0  0  0  0  0  0  0  0  0  0  0  0
   69.2840   79.0710   90.2709 C   0  0  0  0  0  0  0  0  0  0  0  0
   68.9794   77.8532   90.8856 C   0  0  0  0  0  0  0  0  0  0  0  0
   69.8511   76.7558   90.7663 C   0  0  0  0  0  0  0  0  0  0  0  0
   71.0353   76.9052   90.0218 C   0  0  0  0  0  0  0  0  0  0  0  0
   71.3386   78.1249   89.4105 C   0  0  0  0  0  0  0  0  0  0  0  0
   70.8731   80.7487   88.7715 S   0  0  0  0  0  0  0  0  0  0  0  0
   72.3628   80.8737   88.6026 O   0  0  0  0  0  0  0  0  0  0  0  0
   70.4068   81.8611   89.6675 O   0  0  0  0  0  0  0  0  0  0  0  0
   70.1014   80.8963   87.2697 O   0  0  0  0  0  0  0  0  0  0  0  0
   69.0036   80.0123   87.2340 C   0  0  0  0  0  0  0  0  0  0  0  0
   66.9848   81.5399   87.2067 C   0  0  0  0  0  0  0  0  0  0  0  0
   67.8685   80.5994   86.3622 C   0  0  0  0  0  0  0  0  0  0  0  0
   67.0037   79.4606   85.7842 C   0  0  0  0  0  0  0  0  0  0  0  0
   68.4882   81.4001   85.1997 C   0  0  0  0  0  0  0  0  0  0  0  0
   66.7068   72.8856   91.4507 C   0  0  0  0  0  0  0  0  0  0  0  0
   65.6036   73.6569   91.9292 O   0  0  0  0  0  0  0  0  0  0  0  0
   64.9907   74.7147   91.2369 C   0  0  0  0  0  0  0  0  0  0  0  0
   63.9997   74.4042   90.3036 C   0  0  0  0  0  0  0  0  0  0  0  0
   63.3421   75.4162   89.6048 C   0  0  0  0  0  0  0  0  0  0  0  0
   63.6607   76.7598   89.8265 C   0  0  0  0  0  0  0  0  0  0  0  0
   62.9073   77.7247   89.1540 O   0  0  0  0  0  0  0  0  0  0  0  0
   64.6956   77.0929   90.7361 C   0  0  0  0  0  0  0  0  0  0  0  0
   65.3391   76.0621   91.4452 C   0  0  0  0  0  0  0  0  0  0  0  0
   62.2316   77.4616   88.5605 H   0  0  0  0  0  0  0  0  0  0  0  0
   65.1526   78.4834   90.9530 C   0  0  0  0  0  0  0  0  0  0  0  0
   65.6903   79.1384   90.0206 O   0  0  0  0  0  0  0  0  0  0  0  0
   65.0440   79.0586   92.2165 O   0  0  0  0  0  0  0  0  0  0  0  0
   64.6458   78.5798   92.9166 H   0  0  0  0  0  0  0  0  0  0  0  0
 18 19  1  0  0  0
 19 20  1  0  0  0
 19 21  1  0  0  0
 19 17  1  0  0  0
 17 16  1  0  0  0
 16 13  1  0  0  0
 13 14  2  0  0  0
 13 15  2  0  0  0
 13  7  1  0  0  0
  7  8  2  0  0  0
  8  9  1  0  0  0
  9 10  2  0  0  0
 10  1  1  0  0  0
  1  2  2  0  0  0
  2  3  1  0  0  0
  3  4  2  0  0  0
  4  5  1  0  0  0
  5 22  1  0  0  0
 22 23  1  0  0  0
 23 24  1  0  0  0
 24 25  2  0  0  0
 25 26  1  0  0  0
 26 27  2  0  0  0
 27 28  1  0  0  0
 27 29  1  0  0  0
 29 32  1  0  0  0
 32 33  2  0  0  0
 32 34  1  0  0  0
 29 30  2  0  0  0
  5  6  2  0  0  0
 10 11  1  0  0  0
 11 12  2  0  0  0
 12  7  1  0  0  0
  6  1  1  0  0  0
 30 24  1  0  0  0
 28 31  1  0  0  0
 34 35  1  0  0  0
M  END
> <Activity>
17.1

> <minimizedAffinity>
-8.88306

$$$$
HIPS6546


 35 37  0  0  0  0  0  0  0  0999 V2000
   70.9632   78.3223   89.5376 C   0  0  0  0  0  0  0  0  0  0  0  0
   72.3222   77.9967   89.3824 C   0  0  0  0  0  0  0  0  0  0  0  0
   73.2001   78.8966   88.7739 C   0  0  0  0  0  0  0  0  0  0  0  0
   72.7357   80.1311   88.3167 C   0  0  0  0  0  0  0  0  0  0  0  0
   71.3859   80.4800   88.4729 C   0  0  0  0  0  0  0  0  0  0  0  0
   70.5023   79.5668   89.0704 C   0  0  0  0  0  0  0  0  0  0  0  0
   68.2552   75.5609   91.4193 C   0  0  0  0  0  0  0  0  0  0  0  0
   69.1928   75.1017   90.4855 C   0  0  0  0  0  0  0  0  0  0  0  0
   70.0729   75.9982   89.8730 C   0  0  0  0  0  0  0  0  0  0  0  0
   70.0287   77.3687   90.1866 C   0  0  0  0  0  0  0  0  0  0  0  0
   69.0873   77.8210   91.1289 C   0  0  0  0  0  0  0  0  0  0  0  0
   68.2102   76.9219   91.7419 C   0  0  0  0  0  0  0  0  0  0  0  0
   67.1591   74.4369   92.2206 S   0  0  0  0  0  0  0  0  0  0  0  0
   67.4249   74.4047   93.7010 O   0  0  0  0  0  0  0  0  0  0  0  0
   67.3997   73.0598   91.6699 O   0  0  0  0  0  0  0  0  0  0  0  0
   65.5468   74.8692   91.9268 O   0  0  0  0  0  0  0  0  0  0  0  0
   65.3087   74.8191   90.5379 C   0  0  0  0  0  0  0  0  0  0  0  0
   63.6084   75.3685   88.7444 C   0  0  0  0  0  0  0  0  0  0  0  0
   63.8087   75.0531   90.2408 C   0  0  0  0  0  0  0  0  0  0  0  0
   63.2789   76.2264   91.0903 C   0  0  0  0  0  0  0  0  0  0  0  0
   63.0191   73.7778   90.5964 C   0  0  0  0  0  0  0  0  0  0  0  0
   70.8783   81.8054   87.9669 C   0  0  0  0  0  0  0  0  0  0  0  0
   69.4506   81.8243   87.9218 O   0  0  0  0  0  0  0  0  0  0  0  0
   68.6429   80.8344   87.3374 C   0  0  0  0  0  0  0  0  0  0  0  0
   68.3502   80.9422   85.9764 C   0  0  0  0  0  0  0  0  0  0  0  0
   67.5724   79.9753   85.3399 C   0  0  0  0  0  0  0  0  0  0  0  0
   67.0728   78.8796   86.0511 C   0  0  0  0  0  0  0  0  0  0  0  0
   66.3710   77.9070   85.3354 O   0  0  0  0  0  0  0  0  0  0  0  0
   67.3205   78.7767   87.4431 C   0  0  0  0  0  0  0  0  0  0  0  0
   68.1199   79.7513   88.0680 C   0  0  0  0  0  0  0  0  0  0  0  0
   66.2290   78.0138   84.4154 H   0  0  0  0  0  0  0  0  0  0  0  0
   66.7479   77.6989   88.2796 C   0  0  0  0  0  0  0  0  0  0  0  0
   67.0183   76.4902   88.0479 O   0  0  0  0  0  0  0  0  0  0  0  0
   65.8522   78.0147   89.2979 O   0  0  0  0  0  0  0  0  0  0  0  0
   65.6445   78.9104   89.4781 H   0  0  0  0  0  0  0  0  0  0  0  0
 18 19  1  0  0  0
 19 20  1  0  0  0
 19 21  1  0  0  0
 19 17  1  0  0  0
 17 16  1  0  0  0
 16 13  1  0  0  0
 13 14  2  0  0  0
 13 15  2  0  0  0
 13  7  1  0  0  0
  7  8  2  0  0  0
  8  9  1  0  0  0
  9 10  2  0  0  0
 10  1  1  0  0  0
  1  2  2  0  0  0
  2  3  1  0  0  0
  3  4  2  0  0  0
  4  5  1  0  0  0
  5 22  1  0  0  0
 22 23  1  0  0  0
 23 24  1  0  0  0
 24 25  2  0  0  0
 25 26  1  0  0  0
 26 27  2  0  0  0
 27 28  1  0  0  0
 27 29  1  0  0  0
 29 32  1  0  0  0
 32 33  2  0  0  0
 32 34  1  0  0  0
 29 30  2  0  0  0
  5  6  2  0  0  0
 10 11  1  0  0  0
 11 12  2  0  0  0
 12  7  1  0  0  0
  6  1  1  0  0  0
 30 24  1  0  0  0
 28 31  1  0  0  0
 34 35  1  0  0  0
M  END
> <Activity>
17.1

> <minimizedAffinity>
-8.44878

$$$$
HIPS6546


 35 37  0  0  0  0  0  0  0  0999 V2000
   67.4843   78.8410   87.5026 C   0  0  0  0  0  0  0  0  0  0  0  0
   66.9918   78.7198   86.1912 C   0  0  0  0  0  0  0  0  0  0  0  0
   67.2719   79.7005   85.2370 C   0  0  0  0  0  0  0  0  0  0  0  0
   68.0477   80.8102   85.5767 C   0  0  0  0  0  0  0  0  0  0  0  0
   68.5587   80.9438   86.8763 C   0  0  0  0  0  0  0  0  0  0  0  0
   68.2621   79.9644   87.8380 C   0  0  0  0  0  0  0  0  0  0  0  0
   66.6327   75.8220   90.4454 C   0  0  0  0  0  0  0  0  0  0  0  0
   67.2060   75.4667   89.2177 C   0  0  0  0  0  0  0  0  0  0  0  0
   67.4826   76.4469   88.2604 C   0  0  0  0  0  0  0  0  0  0  0  0
   67.1905   77.7985   88.5178 C   0  0  0  0  0  0  0  0  0  0  0  0
   66.6192   78.1475   89.7550 C   0  0  0  0  0  0  0  0  0  0  0  0
   66.3460   77.1657   90.7114 C   0  0  0  0  0  0  0  0  0  0  0  0
   66.3055   74.5998   91.6724 S   0  0  0  0  0  0  0  0  0  0  0  0
   66.9957   74.9488   92.9629 O   0  0  0  0  0  0  0  0  0  0  0  0
   66.8460   73.2828   91.1918 O   0  0  0  0  0  0  0  0  0  0  0  0
   64.6368   74.4459   91.9266 O   0  0  0  0  0  0  0  0  0  0  0  0
   64.0374   73.9790   90.7388 C   0  0  0  0  0  0  0  0  0  0  0  0
   61.6675   74.4863   90.0067 C   0  0  0  0  0  0  0  0  0  0  0  0
   63.0932   75.0558   90.1538 C   0  0  0  0  0  0  0  0  0  0  0  0
   63.6086   75.5174   88.7754 C   0  0  0  0  0  0  0  0  0  0  0  0
   63.0557   76.2660   91.1079 C   0  0  0  0  0  0  0  0  0  0  0  0
   69.3838   82.1478   87.2504 C   0  0  0  0  0  0  0  0  0  0  0  0
   70.0924   81.9248   88.4706 O   0  0  0  0  0  0  0  0  0  0  0  0
   71.0853   80.9506   88.6672 C   0  0  0  0  0  0  0  0  0  0  0  0
   72.4176   81.3194   88.4715 C   0  0  0  0  0  0  0  0  0  0  0  0
   73.4452   80.3987   88.6752 C   0  0  0  0  0  0  0  0  0  0  0  0
   73.1615   79.0907   89.0808 C   0  0  0  0  0  0  0  0  0  0  0  0
   74.2411   78.2451   89.3458 O   0  0  0  0  0  0  0  0  0  0  0  0
   71.8129   78.6842   89.2402 C   0  0  0  0  0  0  0  0  0  0  0  0
   70.7880   79.6283   89.0464 C   0  0  0  0  0  0  0  0  0  0  0  0
   75.1179   78.5536   89.2274 H   0  0  0  0  0  0  0  0  0  0  0  0
   71.4308   77.2945   89.5749 C   0  0  0  0  0  0  0  0  0  0  0  0
   70.6917   76.6255   88.8044 O   0  0  0  0  0  0  0  0  0  0  0  0
   71.8410   76.7356   90.7826 O   0  0  0  0  0  0  0  0  0  0  0  0
   72.3907   77.2249   91.3626 H   0  0  0  0  0  0  0  0  0  0  0  0
 18 19  1  0  0  0
 19 20  1  0  0  0
 19 21  1  0  0  0
 19 17  1  0  0  0
 17 16  1  0  0  0
 16 13  1  0  0  0
 13 14  2  0  0  0
 13 15  2  0  0  0
 13  7  1  0  0  0
  7  8  2  0  0  0
  8  9  1  0  0  0
  9 10  2  0  0  0
 10  1  1  0  0  0
  1  2  2  0  0  0
  2  3  1  0  0  0
  3  4  2  0  0  0
  4  5  1  0  0  0
  5 22  1  0  0  0
 22 23  1  0  0  0
 23 24  1  0  0  0
 24 25  2  0  0  0
 25 26  1  0  0  0
 26 27  2  0  0  0
 27 28  1  0  0  0
 27 29  1  0  0  0
 29 32  1  0  0  0
 32 33  2  0  0  0
 32 34  1  0  0  0
 29 30  2  0  0  0
  5  6  2  0  0  0
 10 11  1  0  0  0
 11 12  2  0  0  0
 12  7  1  0  0  0
  6  1  1  0  0  0
 30 24  1  0  0  0
 28 31  1  0  0  0
 34 35  1  0  0  0
M  END
> <Activity>
17.1

> <minimizedAffinity>
-8.10476

$$$$
HIPS6546


 35 37  0  0  0  0  0  0  0  0999 V2000
   69.2057   75.4548   90.9980 C   0  0  0  0  0  0  0  0  0  0  0  0
   70.1575   74.5964   91.5763 C   0  0  0  0  0  0  0  0  0  0  0  0
   71.5226   74.8545   91.4323 C   0  0  0  0  0  0  0  0  0  0  0  0
   71.9548   75.9710   90.7145 C   0  0  0  0  0  0  0  0  0  0  0  0
   71.0211   76.8464   90.1402 C   0  0  0  0  0  0  0  0  0  0  0  0
   69.6496   76.5757   90.2728 C   0  0  0  0  0  0  0  0  0  0  0  0
   64.9998   74.6731   91.4443 C   0  0  0  0  0  0  0  0  0  0  0  0
   65.9325   73.6496   91.6555 C   0  0  0  0  0  0  0  0  0  0  0  0
   67.2995   73.9024   91.5101 C   0  0  0  0  0  0  0  0  0  0  0  0
   67.7542   75.1843   91.1521 C   0  0  0  0  0  0  0  0  0  0  0  0
   66.8113   76.2079   90.9465 C   0  0  0  0  0  0  0  0  0  0  0  0
   65.4452   75.9530   91.0951 C   0  0  0  0  0  0  0  0  0  0  0  0
   63.2752   74.3753   91.6526 S   0  0  0  0  0  0  0  0  0  0  0  0
   62.5654   75.6398   92.0536 O   0  0  0  0  0  0  0  0  0  0  0  0
   63.0933   73.3659   92.7505 O   0  0  0  0  0  0  0  0  0  0  0  0
   62.6031   73.7571   90.2247 O   0  0  0  0  0  0  0  0  0  0  0  0
   61.7000   74.7045   89.7002 C   0  0  0  0  0  0  0  0  0  0  0  0
   63.6031   75.2026   88.1066 C   0  0  0  0  0  0  0  0  0  0  0  0
   62.0739   75.0529   88.2401 C   0  0  0  0  0  0  0  0  0  0  0  0
   61.3885   76.3689   87.8191 C   0  0  0  0  0  0  0  0  0  0  0  0
   61.5965   73.9179   87.3125 C   0  0  0  0  0  0  0  0  0  0  0  0
   71.4844   78.0442   89.3520 C   0  0  0  0  0  0  0  0  0  0  0  0
   70.5038   79.0828   89.3738 O   0  0  0  0  0  0  0  0  0  0  0  0
   69.5134   79.2859   88.3983 C   0  0  0  0  0  0  0  0  0  0  0  0
   69.3983   80.5566   87.8313 C   0  0  0  0  0  0  0  0  0  0  0  0
   68.4480   80.8079   86.8420 C   0  0  0  0  0  0  0  0  0  0  0  0
   67.5943   79.7930   86.3981 C   0  0  0  0  0  0  0  0  0  0  0  0
   66.7229   80.0913   85.3482 O   0  0  0  0  0  0  0  0  0  0  0  0
   67.6648   78.5086   86.9938 C   0  0  0  0  0  0  0  0  0  0  0  0
   68.6391   78.2659   87.9793 C   0  0  0  0  0  0  0  0  0  0  0  0
   66.7079   80.9539   84.9825 H   0  0  0  0  0  0  0  0  0  0  0  0
   66.7341   77.4128   86.6440 C   0  0  0  0  0  0  0  0  0  0  0  0
   66.4500   76.5159   87.4821 O   0  0  0  0  0  0  0  0  0  0  0  0
   66.2103   77.3340   85.3562 O   0  0  0  0  0  0  0  0  0  0  0  0
   66.4155   77.9960   84.7256 H   0  0  0  0  0  0  0  0  0  0  0  0
 18 19  1  0  0  0
 19 20  1  0  0  0
 19 21  1  0  0  0
 19 17  1  0  0  0
 17 16  1  0  0  0
 16 13  1  0  0  0
 13 14  2  0  0  0
 13 15  2  0  0  0
 13  7  1  0  0  0
  7  8  2  0  0  0
  8  9  1  0  0  0
  9 10  2  0  0  0
 10  1  1  0  0  0
  1  2  2  0  0  0
  2  3  1  0  0  0
  3  4  2  0  0  0
  4  5  1  0  0  0
  5 22  1  0  0  0
 22 23  1  0  0  0
 23 24  1  0  0  0
 24 25  2  0  0  0
 25 26  1  0  0  0
 26 27  2  0  0  0
 27 28  1  0  0  0
 27 29  1  0  0  0
 29 32  1  0  0  0
 32 33  2  0  0  0
 32 34  1  0  0  0
 29 30  2  0  0  0
  5  6  2  0  0  0
 10 11  1  0  0  0
 11 12  2  0  0  0
 12  7  1  0  0  0
  6  1  1  0  0  0
 30 24  1  0  0  0
 28 31  1  0  0  0
 34 35  1  0  0  0
M  END
> <Activity>
17.1

> <minimizedAffinity>
-7.76388

$$$$
HIPS6546


 35 37  0  0  0  0  0  0  0  0999 V2000
   68.7700   75.0298   91.4229 C   0  0  0  0  0  0  0  0  0  0  0  0
   69.7070   74.4885   92.3208 C   0  0  0  0  0  0  0  0  0  0  0  0
   71.0479   74.8749   92.2621 C   0  0  0  0  0  0  0  0  0  0  0  0
   71.4699   75.8064   91.3119 C   0  0  0  0  0  0  0  0  0  0  0  0
   70.5486   76.3673   90.4149 C   0  0  0  0  0  0  0  0  0  0  0  0
   69.2041   75.9650   90.4656 C   0  0  0  0  0  0  0  0  0  0  0  0
   64.6370   73.8529   91.6035 C   0  0  0  0  0  0  0  0  0  0  0  0
   65.6484   72.8881   91.6943 C   0  0  0  0  0  0  0  0  0  0  0  0
   66.9919   73.2694   91.6352 C   0  0  0  0  0  0  0  0  0  0  0  0
   67.3438   74.6230   91.4852 C   0  0  0  0  0  0  0  0  0  0  0  0
   66.3221   75.5861   91.3994 C   0  0  0  0  0  0  0  0  0  0  0  0
   64.9796   75.2024   91.4615 C   0  0  0  0  0  0  0  0  0  0  0  0
   62.9397   73.3889   91.7057 S   0  0  0  0  0  0  0  0  0  0  0  0
   62.2311   74.2051   92.7523 O   0  0  0  0  0  0  0  0  0  0  0  0
   62.8625   71.9427   92.1058 O   0  0  0  0  0  0  0  0  0  0  0  0
   62.1803   73.5818   90.2029 O   0  0  0  0  0  0  0  0  0  0  0  0
   62.0331   74.9595   89.9415 C   0  0  0  0  0  0  0  0  0  0  0  0
   61.7537   74.0337   87.6018 C   0  0  0  0  0  0  0  0  0  0  0  0
   62.2250   75.2442   88.4331 C   0  0  0  0  0  0  0  0  0  0  0  0
   63.7114   75.5275   88.1342 C   0  0  0  0  0  0  0  0  0  0  0  0
   61.3891   76.4792   88.0425 C   0  0  0  0  0  0  0  0  0  0  0  0
   71.0034   77.3616   89.3781 C   0  0  0  0  0  0  0  0  0  0  0  0
   70.1284   78.4899   89.3310 O   0  0  0  0  0  0  0  0  0  0  0  0
   69.1976   78.7543   88.3126 C   0  0  0  0  0  0  0  0  0  0  0  0
   68.5745   77.6697   87.6921 C   0  0  0  0  0  0  0  0  0  0  0  0
   67.6253   77.8751   86.6912 C   0  0  0  0  0  0  0  0  0  0  0  0
   67.2784   79.1696   86.2914 C   0  0  0  0  0  0  0  0  0  0  0  0
   66.2623   79.3051   85.3427 O   0  0  0  0  0  0  0  0  0  0  0  0
   67.9333   80.2821   86.8769 C   0  0  0  0  0  0  0  0  0  0  0  0
   68.8770   80.0598   87.8964 C   0  0  0  0  0  0  0  0  0  0  0  0
   65.8551   78.5430   84.9802 H   0  0  0  0  0  0  0  0  0  0  0  0
   67.6884   81.6746   86.4406 C   0  0  0  0  0  0  0  0  0  0  0  0
   68.0829   82.0760   85.3132 O   0  0  0  0  0  0  0  0  0  0  0  0
   67.0685   82.5724   87.3059 O   0  0  0  0  0  0  0  0  0  0  0  0
   66.7716   82.2838   88.1465 H   0  0  0  0  0  0  0  0  0  0  0  0
 18 19  1  0  0  0
 19 20  1  0  0  0
 19 21  1  0  0  0
 19 17  1  0  0  0
 17 16  1  0  0  0
 16 13  1  0  0  0
 13 14  2  0  0  0
 13 15  2  0  0  0
 13  7  1  0  0  0
  7  8  2  0  0  0
  8  9  1  0  0  0
  9 10  2  0  0  0
 10  1  1  0  0  0
  1  2  2  0  0  0
  2  3  1  0  0  0
  3  4  2  0  0  0
  4  5  1  0  0  0
  5 22  1  0  0  0
 22 23  1  0  0  0
 23 24  1  0  0  0
 24 25  2  0  0  0
 25 26  1  0  0  0
 26 27  2  0  0  0
 27 28  1  0  0  0
 27 29  1  0  0  0
 29 32  1  0  0  0
 32 33  2  0  0  0
 32 34  1  0  0  0
 29 30  2  0  0  0
  5  6  2  0  0  0
 10 11  1  0  0  0
 11 12  2  0  0  0
 12  7  1  0  0  0
  6  1  1  0  0  0
 30 24  1  0  0  0
 28 31  1  0  0  0
 34 35  1  0  0  0
M  END
> <Activity>
17.1

> <minimizedAffinity>
-7.59415

$$$$
HIPS6546


 35 37  0  0  0  0  0  0  0  0999 V2000
   67.3787   79.0436   87.3841 C   0  0  0  0  0  0  0  0  0  0  0  0
   67.0523   78.9345   86.0208 C   0  0  0  0  0  0  0  0  0  0  0  0
   67.4881   79.8993   85.1098 C   0  0  0  0  0  0  0  0  0  0  0  0
   68.2560   80.9807   85.5450 C   0  0  0  0  0  0  0  0  0  0  0  0
   68.6027   81.1015   86.8990 C   0  0  0  0  0  0  0  0  0  0  0  0
   68.1496   80.1387   87.8154 C   0  0  0  0  0  0  0  0  0  0  0  0
   66.0477   76.0731   90.1955 C   0  0  0  0  0  0  0  0  0  0  0  0
   66.1604   75.7553   88.8360 C   0  0  0  0  0  0  0  0  0  0  0  0
   66.5922   76.7200   87.9213 C   0  0  0  0  0  0  0  0  0  0  0  0
   66.9191   78.0179   88.3539 C   0  0  0  0  0  0  0  0  0  0  0  0
   66.8077   78.3275   89.7216 C   0  0  0  0  0  0  0  0  0  0  0  0
   66.3782   77.3602   90.6343 C   0  0  0  0  0  0  0  0  0  0  0  0
   65.5322   74.8578   91.3634 S   0  0  0  0  0  0  0  0  0  0  0  0
   65.4802   73.4977   90.7224 O   0  0  0  0  0  0  0  0  0  0  0  0
   64.1499   75.2066   91.8380 O   0  0  0  0  0  0  0  0  0  0  0  0
   66.5784   74.8346   92.6966 O   0  0  0  0  0  0  0  0  0  0  0  0
   67.5928   73.8837   92.4617 C   0  0  0  0  0  0  0  0  0  0  0  0
   70.0617   73.7061   92.9933 C   0  0  0  0  0  0  0  0  0  0  0  0
   68.9685   74.5820   92.3480 C   0  0  0  0  0  0  0  0  0  0  0  0
   68.9243   75.9534   93.0525 C   0  0  0  0  0  0  0  0  0  0  0  0
   69.3060   74.7922   90.8587 C   0  0  0  0  0  0  0  0  0  0  0  0
   69.4186   82.2755   87.3747 C   0  0  0  0  0  0  0  0  0  0  0  0
   70.0912   81.9706   88.5976 O   0  0  0  0  0  0  0  0  0  0  0  0
   71.0983   81.0033   88.7518 C   0  0  0  0  0  0  0  0  0  0  0  0
   72.4259   81.4025   88.5855 C   0  0  0  0  0  0  0  0  0  0  0  0
   73.4667   80.4889   88.7498 C   0  0  0  0  0  0  0  0  0  0  0  0
   73.2012   79.1575   89.0857 C   0  0  0  0  0  0  0  0  0  0  0  0
   74.2924   78.3165   89.3155 O   0  0  0  0  0  0  0  0  0  0  0  0
   71.8582   78.7222   89.2136 C   0  0  0  0  0  0  0  0  0  0  0  0
   70.8197   79.6589   89.0605 C   0  0  0  0  0  0  0  0  0  0  0  0
   75.1650   78.6444   89.2197 H   0  0  0  0  0  0  0  0  0  0  0  0
   71.4963   77.3113   89.4739 C   0  0  0  0  0  0  0  0  0  0  0  0
   70.7358   76.6852   88.6882 O   0  0  0  0  0  0  0  0  0  0  0  0
   71.9503   76.6821   90.6302 O   0  0  0  0  0  0  0  0  0  0  0  0
   72.5162   77.1391   91.2209 H   0  0  0  0  0  0  0  0  0  0  0  0
 18 19  1  0  0  0
 19 20  1  0  0  0
 19 21  1  0  0  0
 19 17  1  0  0  0
 17 16  1  0  0  0
 16 13  1  0  0  0
 13 14  2  0  0  0
 13 15  2  0  0  0
 13  7  1  0  0  0
  7  8  2  0  0  0
  8  9  1  0  0  0
  9 10  2  0  0  0
 10  1  1  0  0  0
  1  2  2  0  0  0
  2  3  1  0  0  0
  3  4  2  0  0  0
  4  5  1  0  0  0
  5 22  1  0  0  0
 22 23  1  0  0  0
 23 24  1  0  0  0
 24 25  2  0  0  0
 25 26  1  0  0  0
 26 27  2  0  0  0
 27 28  1  0  0  0
 27 29  1  0  0  0
 29 32  1  0  0  0
 32 33  2  0  0  0
 32 34  1  0  0  0
 29 30  2  0  0  0
  5  6  2  0  0  0
 10 11  1  0  0  0
 11 12  2  0  0  0
 12  7  1  0  0  0
  6  1  1  0  0  0
 30 24  1  0  0  0
 28 31  1  0  0  0
 34 35  1  0  0  0
M  END
> <Activity>
17.1

> <minimizedAffinity>
-7.46335

$$$$
HIPS6546


 35 37  0  0  0  0  0  0  0  0999 V2000
   70.7955   78.3257   89.5058 C   0  0  0  0  0  0  0  0  0  0  0  0
   72.1938   78.3857   89.3704 C   0  0  0  0  0  0  0  0  0  0  0  0
   72.7912   79.4267   88.6561 C   0  0  0  0  0  0  0  0  0  0  0  0
   72.0040   80.4206   88.0721 C   0  0  0  0  0  0  0  0  0  0  0  0
   70.6079   80.3856   88.2059 C   0  0  0  0  0  0  0  0  0  0  0  0
   70.0090   79.3291   88.9108 C   0  0  0  0  0  0  0  0  0  0  0  0
   68.9489   75.1267   91.7095 C   0  0  0  0  0  0  0  0  0  0  0  0
   69.3719   76.2858   92.3724 C   0  0  0  0  0  0  0  0  0  0  0  0
   69.9727   77.3258   91.6574 C   0  0  0  0  0  0  0  0  0  0  0  0
   70.1583   77.2219   90.2670 C   0  0  0  0  0  0  0  0  0  0  0  0
   69.7264   76.0565   89.6081 C   0  0  0  0  0  0  0  0  0  0  0  0
   69.1236   75.0193   90.3251 C   0  0  0  0  0  0  0  0  0  0  0  0
   68.1637   73.8203   92.5945 S   0  0  0  0  0  0  0  0  0  0  0  0
   67.6660   74.3096   93.9273 O   0  0  0  0  0  0  0  0  0  0  0  0
   69.1730   72.7345   92.8397 O   0  0  0  0  0  0  0  0  0  0  0  0
   66.8800   73.1798   91.6920 O   0  0  0  0  0  0  0  0  0  0  0  0
   65.7987   74.0837   91.7351 C   0  0  0  0  0  0  0  0  0  0  0  0
   63.8038   74.0877   90.1762 C   0  0  0  0  0  0  0  0  0  0  0  0
   64.4817   73.3650   91.3581 C   0  0  0  0  0  0  0  0  0  0  0  0
   63.5253   73.3465   92.5680 C   0  0  0  0  0  0  0  0  0  0  0  0
   64.7991   71.9140   90.9456 C   0  0  0  0  0  0  0  0  0  0  0  0
   69.7543   81.4485   87.5640 C   0  0  0  0  0  0  0  0  0  0  0  0
   68.6033   80.8752   86.9417 O   0  0  0  0  0  0  0  0  0  0  0  0
   67.9465   79.7081   87.3664 C   0  0  0  0  0  0  0  0  0  0  0  0
   67.8615   78.6383   86.4732 C   0  0  0  0  0  0  0  0  0  0  0  0
   67.2410   77.4476   86.8504 C   0  0  0  0  0  0  0  0  0  0  0  0
   66.6944   77.3017   88.1295 C   0  0  0  0  0  0  0  0  0  0  0  0
   66.1615   76.0561   88.4689 O   0  0  0  0  0  0  0  0  0  0  0  0
   66.7300   78.3921   89.0345 C   0  0  0  0  0  0  0  0  0  0  0  0
   67.3732   79.5814   88.6453 C   0  0  0  0  0  0  0  0  0  0  0  0
   66.1574   75.3612   87.8403 H   0  0  0  0  0  0  0  0  0  0  0  0
   66.0912   78.3454   90.3683 C   0  0  0  0  0  0  0  0  0  0  0  0
   66.2798   77.3671   91.1397 O   0  0  0  0  0  0  0  0  0  0  0  0
   65.2233   79.3629   90.7562 O   0  0  0  0  0  0  0  0  0  0  0  0
   65.0762   80.0946   90.1897 H   0  0  0  0  0  0  0  0  0  0  0  0
 18 19  1  0  0  0
 19 20  1  0  0  0
 19 21  1  0  0  0
 19 17  1  0  0  0
 17 16  1  0  0  0
 16 13  1  0  0  0
 13 14  2  0  0  0
 13 15  2  0  0  0
 13  7  1  0  0  0
  7  8  2  0  0  0
  8  9  1  0  0  0
  9 10  2  0  0  0
 10  1  1  0  0  0
  1  2  2  0  0  0
  2  3  1  0  0  0
  3  4  2  0  0  0
  4  5  1  0  0  0
  5 22  1  0  0  0
 22 23  1  0  0  0
 23 24  1  0  0  0
 24 25  2  0  0  0
 25 26  1  0  0  0
 26 27  2  0  0  0
 27 28  1  0  0  0
 27 29  1  0  0  0
 29 32  1  0  0  0
 32 33  2  0  0  0
 32 34  1  0  0  0
 29 30  2  0  0  0
  5  6  2  0  0  0
 10 11  1  0  0  0
 11 12  2  0  0  0
 12  7  1  0  0  0
  6  1  1  0  0  0
 30 24  1  0  0  0
 28 31  1  0  0  0
 34 35  1  0  0  0
M  END
> <Activity>
17.1

> <minimizedAffinity>
-7.32034

$$$$
HIPS6546


 35 37  0  0  0  0  0  0  0  0999 V2000
   68.4446   74.7977   91.1564 C   0  0  0  0  0  0  0  0  0  0  0  0
   69.4314   74.2754   92.0112 C   0  0  0  0  0  0  0  0  0  0  0  0
   70.7733   74.6212   91.8367 C   0  0  0  0  0  0  0  0  0  0  0  0
   71.1470   75.4929   90.8124 C   0  0  0  0  0  0  0  0  0  0  0  0
   70.1763   76.0344   89.9564 C   0  0  0  0  0  0  0  0  0  0  0  0
   68.8299   75.6724   90.1240 C   0  0  0  0  0  0  0  0  0  0  0  0
   64.3088   73.7459   91.6934 C   0  0  0  0  0  0  0  0  0  0  0  0
   65.2676   72.7469   91.4822 C   0  0  0  0  0  0  0  0  0  0  0  0
   66.6119   73.0876   91.3070 C   0  0  0  0  0  0  0  0  0  0  0  0
   67.0173   74.4340   91.3416 C   0  0  0  0  0  0  0  0  0  0  0  0
   66.0488   75.4309   91.5589 C   0  0  0  0  0  0  0  0  0  0  0  0
   64.7058   75.0872   91.7364 C   0  0  0  0  0  0  0  0  0  0  0  0
   62.6150   73.3280   91.9447 S   0  0  0  0  0  0  0  0  0  0  0  0
   62.1069   73.9303   93.2263 O   0  0  0  0  0  0  0  0  0  0  0  0
   62.5017   71.8335   92.0505 O   0  0  0  0  0  0  0  0  0  0  0  0
   61.6733   73.8566   90.6384 O   0  0  0  0  0  0  0  0  0  0  0  0
   62.1247   75.1314   90.2392 C   0  0  0  0  0  0  0  0  0  0  0  0
   61.9248   73.8225   88.0814 C   0  0  0  0  0  0  0  0  0  0  0  0
   62.3057   75.1813   88.7037 C   0  0  0  0  0  0  0  0  0  0  0  0
   63.7706   75.5153   88.3552 C   0  0  0  0  0  0  0  0  0  0  0  0
   61.3884   76.2757   88.1229 C   0  0  0  0  0  0  0  0  0  0  0  0
   70.5780   76.9636   88.8404 C   0  0  0  0  0  0  0  0  0  0  0  0
   69.7584   78.1336   88.8273 O   0  0  0  0  0  0  0  0  0  0  0  0
   68.7075   78.3996   89.7209 C   0  0  0  0  0  0  0  0  0  0  0  0
   67.3978   78.2652   89.2560 C   0  0  0  0  0  0  0  0  0  0  0  0
   66.3167   78.4942   90.1067 C   0  0  0  0  0  0  0  0  0  0  0  0
   66.5232   78.8606   91.4405 C   0  0  0  0  0  0  0  0  0  0  0  0
   65.3986   78.9941   92.2581 O   0  0  0  0  0  0  0  0  0  0  0  0
   67.8445   79.0469   91.9187 C   0  0  0  0  0  0  0  0  0  0  0  0
   68.9252   78.7969   91.0533 C   0  0  0  0  0  0  0  0  0  0  0  0
   64.5421   78.8623   91.9019 H   0  0  0  0  0  0  0  0  0  0  0  0
   68.1395   79.5241   93.2879 C   0  0  0  0  0  0  0  0  0  0  0  0
   68.7830   78.8038   94.0971 O   0  0  0  0  0  0  0  0  0  0  0  0
   67.6511   80.7574   93.7115 O   0  0  0  0  0  0  0  0  0  0  0  0
   67.1714   81.3004   93.1174 H   0  0  0  0  0  0  0  0  0  0  0  0
 18 19  1  0  0  0
 19 20  1  0  0  0
 19 21  1  0  0  0
 19 17  1  0  0  0
 17 16  1  0  0  0
 16 13  1  0  0  0
 13 14  2  0  0  0
 13 15  2  0  0  0
 13  7  1  0  0  0
  7  8  2  0  0  0
  8  9  1  0  0  0
  9 10  2  0  0  0
 10  1  1  0  0  0
  1  2  2  0  0  0
  2  3  1  0  0  0
  3  4  2  0  0  0
  4  5  1  0  0  0
  5 22  1  0  0  0
 22 23  1  0  0  0
 23 24  1  0  0  0
 24 25  2  0  0  0
 25 26  1  0  0  0
 26 27  2  0  0  0
 27 28  1  0  0  0
 27 29  1  0  0  0
 29 32  1  0  0  0
 32 33  2  0  0  0
 32 34  1  0  0  0
 29 30  2  0  0  0
  5  6  2  0  0  0
 10 11  1  0  0  0
 11 12  2  0  0  0
 12  7  1  0  0  0
  6  1  1  0  0  0
 30 24  1  0  0  0
 28 31  1  0  0  0
 34 35  1  0  0  0
M  END
> <Activity>
17.1

> <minimizedAffinity>
-7.23152

$$$$
HIPS6546


 35 37  0  0  0  0  0  0  0  0999 V2000
   68.2181   78.4787   88.3968 C   0  0  0  0  0  0  0  0  0  0  0  0
   68.3037   79.7165   87.7352 C   0  0  0  0  0  0  0  0  0  0  0  0
   69.5242   80.3902   87.6504 C   0  0  0  0  0  0  0  0  0  0  0  0
   70.6728   79.8379   88.2199 C   0  0  0  0  0  0  0  0  0  0  0  0
   70.6111   78.5983   88.8738 C   0  0  0  0  0  0  0  0  0  0  0  0
   69.3796   77.9307   88.9716 C   0  0  0  0  0  0  0  0  0  0  0  0
   64.4650   76.3936   88.6526 C   0  0  0  0  0  0  0  0  0  0  0  0
   64.8487   77.2796   89.6673 C   0  0  0  0  0  0  0  0  0  0  0  0
   66.0684   77.9574   89.5855 C   0  0  0  0  0  0  0  0  0  0  0  0
   66.9227   77.7592   88.4858 C   0  0  0  0  0  0  0  0  0  0  0  0
   66.5277   76.8712   87.4687 C   0  0  0  0  0  0  0  0  0  0  0  0
   65.3064   76.1970   87.5518 C   0  0  0  0  0  0  0  0  0  0  0  0
   62.9167   75.5547   88.7292 S   0  0  0  0  0  0  0  0  0  0  0  0
   62.9225   74.3516   87.8259 O   0  0  0  0  0  0  0  0  0  0  0  0
   61.8412   76.4917   88.2568 O   0  0  0  0  0  0  0  0  0  0  0  0
   62.5734   75.0868   90.3216 O   0  0  0  0  0  0  0  0  0  0  0  0
   62.6571   73.6820   90.4105 C   0  0  0  0  0  0  0  0  0  0  0  0
   64.6988   74.3978   91.7254 C   0  0  0  0  0  0  0  0  0  0  0  0
   63.6673   73.2719   91.5079 C   0  0  0  0  0  0  0  0  0  0  0  0
   64.3970   71.9768   91.0966 C   0  0  0  0  0  0  0  0  0  0  0  0
   62.9073   73.0242   92.8260 C   0  0  0  0  0  0  0  0  0  0  0  0
   71.8459   78.0064   89.5026 C   0  0  0  0  0  0  0  0  0  0  0  0
   71.5851   76.6971   90.0110 O   0  0  0  0  0  0  0  0  0  0  0  0
   70.5512   76.3621   90.9011 C   0  0  0  0  0  0  0  0  0  0  0  0
   70.0817   75.0471   90.9002 C   0  0  0  0  0  0  0  0  0  0  0  0
   69.0729   74.6541   91.7793 C   0  0  0  0  0  0  0  0  0  0  0  0
   68.5140   75.5676   92.6787 C   0  0  0  0  0  0  0  0  0  0  0  0
   67.5668   75.0878   93.5861 O   0  0  0  0  0  0  0  0  0  0  0  0
   68.9449   76.9180   92.6633 C   0  0  0  0  0  0  0  0  0  0  0  0
   69.9743   77.2959   91.7819 C   0  0  0  0  0  0  0  0  0  0  0  0
   67.3094   74.1872   93.5623 H   0  0  0  0  0  0  0  0  0  0  0  0
   68.3362   77.9613   93.5178 C   0  0  0  0  0  0  0  0  0  0  0  0
   69.0457   78.6502   94.2986 O   0  0  0  0  0  0  0  0  0  0  0  0
   66.9562   78.1471   93.5067 O   0  0  0  0  0  0  0  0  0  0  0  0
   66.4198   77.6398   92.9297 H   0  0  0  0  0  0  0  0  0  0  0  0
 18 19  1  0  0  0
 19 20  1  0  0  0
 19 21  1  0  0  0
 19 17  1  0  0  0
 17 16  1  0  0  0
 16 13  1  0  0  0
 13 14  2  0  0  0
 13 15  2  0  0  0
 13  7  1  0  0  0
  7  8  2  0  0  0
  8  9  1  0  0  0
  9 10  2  0  0  0
 10  1  1  0  0  0
  1  2  2  0  0  0
  2  3  1  0  0  0
  3  4  2  0  0  0
  4  5  1  0  0  0
  5 22  1  0  0  0
 22 23  1  0  0  0
 23 24  1  0  0  0
 24 25  2  0  0  0
 25 26  1  0  0  0
 26 27  2  0  0  0
 27 28  1  0  0  0
 27 29  1  0  0  0
 29 32  1  0  0  0
 32 33  2  0  0  0
 32 34  1  0  0  0
 29 30  2  0  0  0
  5  6  2  0  0  0
 10 11  1  0  0  0
 11 12  2  0  0  0
 12  7  1  0  0  0
  6  1  1  0  0  0
 30 24  1  0  0  0
 28 31  1  0  0  0
 34 35  1  0  0  0
M  END
> <Activity>
17.1

> <minimizedAffinity>
-7.10828

$$$$
HIPS6546


 35 37  0  0  0  0  0  0  0  0999 V2000
   66.0039   75.3626   89.8992 C   0  0  0  0  0  0  0  0  0  0  0  0
   64.6536   74.9885   90.0176 C   0  0  0  0  0  0  0  0  0  0  0  0
   64.2934   73.8684   90.7702 C   0  0  0  0  0  0  0  0  0  0  0  0
   65.2724   73.1110   91.4156 C   0  0  0  0  0  0  0  0  0  0  0  0
   66.6240   73.4744   91.3200 C   0  0  0  0  0  0  0  0  0  0  0  0
   66.9848   74.5916   90.5495 C   0  0  0  0  0  0  0  0  0  0  0  0
   67.1205   78.8144   87.5888 C   0  0  0  0  0  0  0  0  0  0  0  0
   66.7653   78.9540   88.9365 C   0  0  0  0  0  0  0  0  0  0  0  0
   66.4017   77.8331   89.6882 C   0  0  0  0  0  0  0  0  0  0  0  0
   66.3891   76.5544   89.1023 C   0  0  0  0  0  0  0  0  0  0  0  0
   66.7516   76.4221   87.7496 C   0  0  0  0  0  0  0  0  0  0  0  0
   67.1173   77.5443   87.0011 C   0  0  0  0  0  0  0  0  0  0  0  0
   67.6089   80.2155   86.6376 S   0  0  0  0  0  0  0  0  0  0  0  0
   67.0268   81.4762   87.2169 O   0  0  0  0  0  0  0  0  0  0  0  0
   67.0805   80.0528   85.2404 O   0  0  0  0  0  0  0  0  0  0  0  0
   69.2987   80.3293   86.5733 O   0  0  0  0  0  0  0  0  0  0  0  0
   69.7075   81.4515   87.3229 C   0  0  0  0  0  0  0  0  0  0  0  0
   70.4408   79.5053   88.7665 C   0  0  0  0  0  0  0  0  0  0  0  0
   70.6177   81.0130   88.4944 C   0  0  0  0  0  0  0  0  0  0  0  0
   70.2634   81.8113   89.7656 C   0  0  0  0  0  0  0  0  0  0  0  0
   72.0879   81.2880   88.1211 C   0  0  0  0  0  0  0  0  0  0  0  0
   67.6846   72.6504   92.0029 C   0  0  0  0  0  0  0  0  0  0  0  0
   68.5812   73.4802   92.7432 O   0  0  0  0  0  0  0  0  0  0  0  0
   68.8574   74.8292   92.4645 C   0  0  0  0  0  0  0  0  0  0  0  0
   69.8816   75.1185   91.5607 C   0  0  0  0  0  0  0  0  0  0  0  0
   70.1828   76.4395   91.2299 C   0  0  0  0  0  0  0  0  0  0  0  0
   69.4645   77.4983   91.7947 C   0  0  0  0  0  0  0  0  0  0  0  0
   69.7629   78.7908   91.3575 O   0  0  0  0  0  0  0  0  0  0  0  0
   68.4519   77.2269   92.7489 C   0  0  0  0  0  0  0  0  0  0  0  0
   68.1488   75.8889   93.0607 C   0  0  0  0  0  0  0  0  0  0  0  0
   70.4406   78.9266   90.7248 H   0  0  0  0  0  0  0  0  0  0  0  0
   67.7145   78.2957   93.4582 C   0  0  0  0  0  0  0  0  0  0  0  0
   66.6173   78.7267   93.0132 O   0  0  0  0  0  0  0  0  0  0  0  0
   68.2642   78.8770   94.5979 O   0  0  0  0  0  0  0  0  0  0  0  0
   69.0797   78.5637   94.9368 H   0  0  0  0  0  0  0  0  0  0  0  0
 18 19  1  0  0  0
 19 20  1  0  0  0
 19 21  1  0  0  0
 19 17  1  0  0  0
 17 16  1  0  0  0
 16 13  1  0  0  0
 13 14  2  0  0  0
 13 15  2  0  0  0
 13  7  1  0  0  0
  7  8  2  0  0  0
  8  9  1  0  0  0
  9 10  2  0  0  0
 10  1  1  0  0  0
  1  2  2  0  0  0
  2  3  1  0  0  0
  3  4  2  0  0  0
  4  5  1  0  0  0
  5 22  1  0  0  0
 22 23  1  0  0  0
 23 24  1  0  0  0
 24 25  2  0  0  0
 25 26  1  0  0  0
 26 27  2  0  0  0
 27 28  1  0  0  0
 27 29  1  0  0  0
 29 32  1  0  0  0
 32 33  2  0  0  0
 32 34  1  0  0  0
 29 30  2  0  0  0
  5  6  2  0  0  0
 10 11  1  0  0  0
 11 12  2  0  0  0
 12  7  1  0  0  0
  6  1  1  0  0  0
 30 24  1  0  0  0
 28 31  1  0  0  0
 34 35  1  0  0  0
M  END
> <Activity>
17.1

> <minimizedAffinity>
-7.06937

$$$$
HIPS6710


 34 37  0  0  0  0  0  0  0  0999 V2000
   64.0734   74.3714   91.3538 C   0  0  0  0  0  0  0  0  0  0  0  0
   64.0950   72.9860   91.2241 C   0  0  0  0  0  0  0  0  0  0  0  0
   65.6948   72.4892   91.3549 S   0  0  0  0  0  0  0  0  0  0  0  0
   66.2935   74.0510   91.5717 C   0  0  0  0  0  0  0  0  0  0  0  0
   65.2875   74.9537   91.5487 N   0  0  0  0  0  0  0  0  0  0  0  0
   67.7102   74.4153   91.8019 C   0  0  0  0  0  0  0  0  0  0  0  0
   68.5114   73.6278   92.6465 C   0  0  0  0  0  0  0  0  0  0  0  0
   69.8520   73.9564   92.8573 C   0  0  0  0  0  0  0  0  0  0  0  0
   70.4095   75.0687   92.2250 C   0  0  0  0  0  0  0  0  0  0  0  0
   69.6346   75.8650   91.3756 C   0  0  0  0  0  0  0  0  0  0  0  0
   68.2785   75.5394   91.1750 C   0  0  0  0  0  0  0  0  0  0  0  0
   70.2500   76.9632   90.7523 O   0  0  0  0  0  0  0  0  0  0  0  0
   71.1404   76.8880   89.6376 C   0  0  0  0  0  0  0  0  0  0  0  0
   71.6500   78.2555   89.2640 C   0  0  0  0  0  0  0  0  0  0  0  0
   73.0292   78.4965   89.1466 C   0  0  0  0  0  0  0  0  0  0  0  0
   73.4948   79.7687   88.8021 C   0  0  0  0  0  0  0  0  0  0  0  0
   72.5894   80.8058   88.5627 C   0  0  0  0  0  0  0  0  0  0  0  0
   71.2142   80.5715   88.6638 C   0  0  0  0  0  0  0  0  0  0  0  0
   70.0781   81.8726   88.3590 Cl  0  0  0  0  0  0  0  0  0  0  0  0
   70.7449   79.2990   89.0090 C   0  0  0  0  0  0  0  0  0  0  0  0
   62.8058   75.1698   91.3516 C   0  0  0  0  0  0  0  0  0  0  0  0
   62.9345   76.3082   90.4993 O   0  0  0  0  0  0  0  0  0  0  0  0
   66.1285   77.2340   88.7664 C   0  0  0  0  0  0  0  0  0  0  0  0
   64.9142   76.5824   89.0501 C   0  0  0  0  0  0  0  0  0  0  0  0
   64.1424   76.9460   90.1697 C   0  0  0  0  0  0  0  0  0  0  0  0
   64.5834   77.9862   90.9904 C   0  0  0  0  0  0  0  0  0  0  0  0
   65.7906   78.6337   90.7274 C   0  0  0  0  0  0  0  0  0  0  0  0
   66.5823   78.2529   89.6389 C   0  0  0  0  0  0  0  0  0  0  0  0
   67.8190   78.8819   89.4815 O   0  0  0  0  0  0  0  0  0  0  0  0
   68.0832   79.5523   90.0805 H   0  0  0  0  0  0  0  0  0  0  0  0
   68.0447   76.4031   87.6349 O   0  0  0  0  0  0  0  0  0  0  0  0
   66.8691   76.8501   87.5446 C   0  0  0  0  0  0  0  0  0  0  0  0
   66.2602   76.9215   86.2951 O   0  0  0  0  0  0  0  0  0  0  0  0
   65.3870   77.2522   86.2177 H   0  0  0  0  0  0  0  0  0  0  0  0
 31 32  2  0  0  0
 32 33  1  0  0  0
 32 23  1  0  0  0
 23 24  2  0  0  0
 24 25  1  0  0  0
 25 22  1  0  0  0
 22 21  1  0  0  0
 21  1  1  0  0  0
  1  2  2  0  0  0
  2  3  1  0  0  0
  3  4  1  0  0  0
  4  6  1  0  0  0
  6  7  2  0  0  0
  7  8  1  0  0  0
  8  9  2  0  0  0
  9 10  1  0  0  0
 10 12  1  0  0  0
 12 13  1  0  0  0
 13 14  1  0  0  0
 14 15  2  0  0  0
 15 16  1  0  0  0
 16 17  2  0  0  0
 17 18  1  0  0  0
 18 19  1  0  0  0
 18 20  2  0  0  0
 10 11  2  0  0  0
  4  5  2  0  0  0
 25 26  2  0  0  0
 26 27  1  0  0  0
 27 28  2  0  0  0
 28 29  1  0  0  0
 28 23  1  0  0  0
  5  1  2  0  0  0
 11  6  1  0  0  0
 20 14  1  0  0  0
 33 34  1  0  0  0
 29 30  1  0  0  0
M  END
> <Activity>
17.9

> <minimizedAffinity>
-9.48847

$$$$
HIPS6710


 34 37  0  0  0  0  0  0  0  0999 V2000
   65.1879   74.3683   90.5488 C   0  0  0  0  0  0  0  0  0  0  0  0
   63.9017   74.6018   90.0715 C   0  0  0  0  0  0  0  0  0  0  0  0
   63.9963   75.8468   88.9471 S   0  0  0  0  0  0  0  0  0  0  0  0
   65.6640   76.0373   89.1113 C   0  0  0  0  0  0  0  0  0  0  0  0
   66.1566   75.1599   90.0140 N   0  0  0  0  0  0  0  0  0  0  0  0
   66.5090   76.9909   88.3567 C   0  0  0  0  0  0  0  0  0  0  0  0
   66.4015   77.0726   86.9577 C   0  0  0  0  0  0  0  0  0  0  0  0
   67.1844   77.9793   86.2405 C   0  0  0  0  0  0  0  0  0  0  0  0
   68.0778   78.8175   86.9093 C   0  0  0  0  0  0  0  0  0  0  0  0
   68.1992   78.7592   88.3014 C   0  0  0  0  0  0  0  0  0  0  0  0
   67.4181   77.8341   89.0219 C   0  0  0  0  0  0  0  0  0  0  0  0
   69.1017   79.6364   88.9253 O   0  0  0  0  0  0  0  0  0  0  0  0
   69.8473   80.6612   88.2657 C   0  0  0  0  0  0  0  0  0  0  0  0
   71.3185   80.5298   88.5613 C   0  0  0  0  0  0  0  0  0  0  0  0
   71.8918   79.2672   88.7874 C   0  0  0  0  0  0  0  0  0  0  0  0
   73.2574   79.1533   89.0638 C   0  0  0  0  0  0  0  0  0  0  0  0
   74.0618   80.2951   89.1067 C   0  0  0  0  0  0  0  0  0  0  0  0
   73.5023   81.5548   88.8692 C   0  0  0  0  0  0  0  0  0  0  0  0
   74.5133   82.9872   88.9190 Cl  0  0  0  0  0  0  0  0  0  0  0  0
   72.1353   81.6721   88.5928 C   0  0  0  0  0  0  0  0  0  0  0  0
   65.5081   73.2806   91.5280 C   0  0  0  0  0  0  0  0  0  0  0  0
   66.2343   73.8071   92.6389 O   0  0  0  0  0  0  0  0  0  0  0  0
   68.6540   76.6720   92.6311 C   0  0  0  0  0  0  0  0  0  0  0  0
   67.4494   75.9536   92.7433 C   0  0  0  0  0  0  0  0  0  0  0  0
   67.4185   74.5591   92.5549 C   0  0  0  0  0  0  0  0  0  0  0  0
   68.6091   73.8840   92.2779 C   0  0  0  0  0  0  0  0  0  0  0  0
   69.8088   74.5847   92.1530 C   0  0  0  0  0  0  0  0  0  0  0  0
   69.8418   75.9752   92.3009 C   0  0  0  0  0  0  0  0  0  0  0  0
   71.0576   76.6251   92.0785 O   0  0  0  0  0  0  0  0  0  0  0  0
   71.8218   76.1279   91.8620 H   0  0  0  0  0  0  0  0  0  0  0  0
   68.8533   78.5577   94.0618 O   0  0  0  0  0  0  0  0  0  0  0  0
   68.6376   78.1273   92.8963 C   0  0  0  0  0  0  0  0  0  0  0  0
   68.4441   79.0345   91.8587 O   0  0  0  0  0  0  0  0  0  0  0  0
   68.2831   78.7246   90.9893 H   0  0  0  0  0  0  0  0  0  0  0  0
 31 32  2  0  0  0
 32 33  1  0  0  0
 32 23  1  0  0  0
 23 24  2  0  0  0
 24 25  1  0  0  0
 25 22  1  0  0  0
 22 21  1  0  0  0
 21  1  1  0  0  0
  1  2  2  0  0  0
  2  3  1  0  0  0
  3  4  1  0  0  0
  4  6  1  0  0  0
  6  7  2  0  0  0
  7  8  1  0  0  0
  8  9  2  0  0  0
  9 10  1  0  0  0
 10 12  1  0  0  0
 12 13  1  0  0  0
 13 14  1  0  0  0
 14 15  2  0  0  0
 15 16  1  0  0  0
 16 17  2  0  0  0
 17 18  1  0  0  0
 18 19  1  0  0  0
 18 20  2  0  0  0
 10 11  2  0  0  0
  4  5  2  0  0  0
 25 26  2  0  0  0
 26 27  1  0  0  0
 27 28  2  0  0  0
 28 29  1  0  0  0
 28 23  1  0  0  0
  5  1  2  0  0  0
 11  6  1  0  0  0
 20 14  1  0  0  0
 33 34  1  0  0  0
 29 30  1  0  0  0
M  END
> <Activity>
17.9

> <minimizedAffinity>
-9.09298

$$$$
HIPS6710


 34 37  0  0  0  0  0  0  0  0999 V2000
   70.1237   74.9961   91.0774 C   0  0  0  0  0  0  0  0  0  0  0  0
   70.4373   74.4773   92.3300 C   0  0  0  0  0  0  0  0  0  0  0  0
   69.0245   73.8472   92.9862 S   0  0  0  0  0  0  0  0  0  0  0  0
   68.0743   74.2573   91.6545 C   0  0  0  0  0  0  0  0  0  0  0  0
   68.8204   74.8694   90.7080 N   0  0  0  0  0  0  0  0  0  0  0  0
   66.6320   73.9642   91.4918 C   0  0  0  0  0  0  0  0  0  0  0  0
   66.1964   72.6369   91.3364 C   0  0  0  0  0  0  0  0  0  0  0  0
   64.8369   72.3510   91.1969 C   0  0  0  0  0  0  0  0  0  0  0  0
   63.8973   73.3829   91.2165 C   0  0  0  0  0  0  0  0  0  0  0  0
   64.3050   74.7113   91.3754 C   0  0  0  0  0  0  0  0  0  0  0  0
   65.6784   74.9987   91.5024 C   0  0  0  0  0  0  0  0  0  0  0  0
   63.3166   75.7091   91.4042 O   0  0  0  0  0  0  0  0  0  0  0  0
   63.2350   76.8170   90.5060 C   0  0  0  0  0  0  0  0  0  0  0  0
   64.6093   77.3069   90.1312 C   0  0  0  0  0  0  0  0  0  0  0  0
   65.2747   78.2500   90.9323 C   0  0  0  0  0  0  0  0  0  0  0  0
   66.5488   78.7020   90.5767 C   0  0  0  0  0  0  0  0  0  0  0  0
   67.1719   78.2099   89.4269 C   0  0  0  0  0  0  0  0  0  0  0  0
   66.5227   77.2606   88.6309 C   0  0  0  0  0  0  0  0  0  0  0  0
   67.3071   76.6401   87.1900 Cl  0  0  0  0  0  0  0  0  0  0  0  0
   65.2469   76.8065   88.9839 C   0  0  0  0  0  0  0  0  0  0  0  0
   71.1500   75.5903   90.1619 C   0  0  0  0  0  0  0  0  0  0  0  0
   70.5880   76.6708   89.4166 O   0  0  0  0  0  0  0  0  0  0  0  0
   71.0932   80.3545   88.9291 C   0  0  0  0  0  0  0  0  0  0  0  0
   70.4522   79.1209   89.1462 C   0  0  0  0  0  0  0  0  0  0  0  0
   71.1907   77.9250   89.2204 C   0  0  0  0  0  0  0  0  0  0  0  0
   72.5810   77.9761   89.1010 C   0  0  0  0  0  0  0  0  0  0  0  0
   73.2290   79.1906   88.8747 C   0  0  0  0  0  0  0  0  0  0  0  0
   72.4992   80.3785   88.7615 C   0  0  0  0  0  0  0  0  0  0  0  0
   73.1994   81.5456   88.4492 O   0  0  0  0  0  0  0  0  0  0  0  0
   74.1304   81.5201   88.3465 H   0  0  0  0  0  0  0  0  0  0  0  0
   69.4421   81.7809   87.9902 O   0  0  0  0  0  0  0  0  0  0  0  0
   70.2735   81.5859   88.9180 C   0  0  0  0  0  0  0  0  0  0  0  0
   70.3672   82.5089   89.9555 O   0  0  0  0  0  0  0  0  0  0  0  0
   70.9819   82.3730   90.6495 H   0  0  0  0  0  0  0  0  0  0  0  0
 31 32  2  0  0  0
 32 33  1  0  0  0
 32 23  1  0  0  0
 23 24  2  0  0  0
 24 25  1  0  0  0
 25 22  1  0  0  0
 22 21  1  0  0  0
 21  1  1  0  0  0
  1  2  2  0  0  0
  2  3  1  0  0  0
  3  4  1  0  0  0
  4  6  1  0  0  0
  6  7  2  0  0  0
  7  8  1  0  0  0
  8  9  2  0  0  0
  9 10  1  0  0  0
 10 12  1  0  0  0
 12 13  1  0  0  0
 13 14  1  0  0  0
 14 15  2  0  0  0
 15 16  1  0  0  0
 16 17  2  0  0  0
 17 18  1  0  0  0
 18 19  1  0  0  0
 18 20  2  0  0  0
 10 11  2  0  0  0
  4  5  2  0  0  0
 25 26  2  0  0  0
 26 27  1  0  0  0
 27 28  2  0  0  0
 28 29  1  0  0  0
 28 23  1  0  0  0
  5  1  2  0  0  0
 11  6  1  0  0  0
 20 14  1  0  0  0
 33 34  1  0  0  0
 29 30  1  0  0  0
M  END
> <Activity>
17.9

> <minimizedAffinity>
-9.08764

$$$$
HIPS6710


 34 37  0  0  0  0  0  0  0  0999 V2000
   67.9214   74.2744   91.9902 C   0  0  0  0  0  0  0  0  0  0  0  0
   68.1537   74.7041   93.2933 C   0  0  0  0  0  0  0  0  0  0  0  0
   69.1884   76.0257   93.2147 S   0  0  0  0  0  0  0  0  0  0  0  0
   69.2979   75.9991   91.5319 C   0  0  0  0  0  0  0  0  0  0  0  0
   68.5516   74.9937   91.0224 N   0  0  0  0  0  0  0  0  0  0  0  0
   70.0592   76.9541   90.6946 C   0  0  0  0  0  0  0  0  0  0  0  0
   71.2526   76.5490   90.0724 C   0  0  0  0  0  0  0  0  0  0  0  0
   71.9686   77.4391   89.2697 C   0  0  0  0  0  0  0  0  0  0  0  0
   71.5007   78.7394   89.0738 C   0  0  0  0  0  0  0  0  0  0  0  0
   70.3130   79.1648   89.6774 C   0  0  0  0  0  0  0  0  0  0  0  0
   69.5992   78.2691   90.4979 C   0  0  0  0  0  0  0  0  0  0  0  0
   69.8793   80.4786   89.4338 O   0  0  0  0  0  0  0  0  0  0  0  0
   69.8510   81.1154   88.1552 C   0  0  0  0  0  0  0  0  0  0  0  0
   68.8257   80.4730   87.2578 C   0  0  0  0  0  0  0  0  0  0  0  0
   68.3865   81.1253   86.0935 C   0  0  0  0  0  0  0  0  0  0  0  0
   67.4329   80.5242   85.2669 C   0  0  0  0  0  0  0  0  0  0  0  0
   66.9185   79.2656   85.5895 C   0  0  0  0  0  0  0  0  0  0  0  0
   67.3602   78.6028   86.7393 C   0  0  0  0  0  0  0  0  0  0  0  0
   66.7174   77.0212   87.1415 Cl  0  0  0  0  0  0  0  0  0  0  0  0
   68.3145   79.2023   87.5692 C   0  0  0  0  0  0  0  0  0  0  0  0
   66.9916   73.1477   91.6578 C   0  0  0  0  0  0  0  0  0  0  0  0
   65.6334   73.5573   91.8197 O   0  0  0  0  0  0  0  0  0  0  0  0
   64.7214   77.0190   90.7031 C   0  0  0  0  0  0  0  0  0  0  0  0
   65.3733   75.9728   91.3816 C   0  0  0  0  0  0  0  0  0  0  0  0
   65.0210   74.6299   91.1496 C   0  0  0  0  0  0  0  0  0  0  0  0
   64.0269   74.3400   90.2128 C   0  0  0  0  0  0  0  0  0  0  0  0
   63.3647   75.3676   89.5407 C   0  0  0  0  0  0  0  0  0  0  0  0
   63.6821   76.7062   89.7934 C   0  0  0  0  0  0  0  0  0  0  0  0
   62.9235   77.6875   89.1521 O   0  0  0  0  0  0  0  0  0  0  0  0
   62.2440   77.4396   88.5565 H   0  0  0  0  0  0  0  0  0  0  0  0
   65.6903   79.0725   90.0055 O   0  0  0  0  0  0  0  0  0  0  0  0
   65.1721   78.4075   90.9431 C   0  0  0  0  0  0  0  0  0  0  0  0
   64.9766   79.0118   92.1816 O   0  0  0  0  0  0  0  0  0  0  0  0
   64.5923   78.5259   92.8845 H   0  0  0  0  0  0  0  0  0  0  0  0
 31 32  2  0  0  0
 32 33  1  0  0  0
 32 23  1  0  0  0
 23 24  2  0  0  0
 24 25  1  0  0  0
 25 22  1  0  0  0
 22 21  1  0  0  0
 21  1  1  0  0  0
  1  2  2  0  0  0
  2  3  1  0  0  0
  3  4  1  0  0  0
  4  6  1  0  0  0
  6  7  2  0  0  0
  7  8  1  0  0  0
  8  9  2  0  0  0
  9 10  1  0  0  0
 10 12  1  0  0  0
 12 13  1  0  0  0
 13 14  1  0  0  0
 14 15  2  0  0  0
 15 16  1  0  0  0
 16 17  2  0  0  0
 17 18  1  0  0  0
 18 19  1  0  0  0
 18 20  2  0  0  0
 10 11  2  0  0  0
  4  5  2  0  0  0
 25 26  2  0  0  0
 26 27  1  0  0  0
 27 28  2  0  0  0
 28 29  1  0  0  0
 28 23  1  0  0  0
  5  1  2  0  0  0
 11  6  1  0  0  0
 20 14  1  0  0  0
 33 34  1  0  0  0
 29 30  1  0  0  0
M  END
> <Activity>
17.9

> <minimizedAffinity>
-8.95951

$$$$
HIPS6710


 34 37  0  0  0  0  0  0  0  0999 V2000
   68.6321   74.7188   92.2826 C   0  0  0  0  0  0  0  0  0  0  0  0
   68.4123   75.5065   93.4086 C   0  0  0  0  0  0  0  0  0  0  0  0
   69.0631   77.0247   93.1003 S   0  0  0  0  0  0  0  0  0  0  0  0
   69.5953   76.6207   91.5518 C   0  0  0  0  0  0  0  0  0  0  0  0
   69.2816   75.3385   91.2603 N   0  0  0  0  0  0  0  0  0  0  0  0
   70.2747   77.5299   90.6007 C   0  0  0  0  0  0  0  0  0  0  0  0
   71.5359   77.1910   90.0813 C   0  0  0  0  0  0  0  0  0  0  0  0
   72.1765   78.0360   89.1730 C   0  0  0  0  0  0  0  0  0  0  0  0
   71.5654   79.2239   88.7685 C   0  0  0  0  0  0  0  0  0  0  0  0
   70.3083   79.5808   89.2667 C   0  0  0  0  0  0  0  0  0  0  0  0
   69.6697   78.7332   90.1935 C   0  0  0  0  0  0  0  0  0  0  0  0
   69.7317   80.7791   88.8141 O   0  0  0  0  0  0  0  0  0  0  0  0
   69.3380   81.0493   87.4676 C   0  0  0  0  0  0  0  0  0  0  0  0
   68.4254   79.9694   86.9479 C   0  0  0  0  0  0  0  0  0  0  0  0
   67.5210   80.2383   85.9068 C   0  0  0  0  0  0  0  0  0  0  0  0
   66.6752   79.2319   85.4314 C   0  0  0  0  0  0  0  0  0  0  0  0
   66.7323   77.9493   85.9831 C   0  0  0  0  0  0  0  0  0  0  0  0
   67.6392   77.6690   87.0103 C   0  0  0  0  0  0  0  0  0  0  0  0
   67.7133   76.0577   87.6994 Cl  0  0  0  0  0  0  0  0  0  0  0  0
   68.4869   78.6746   87.4888 C   0  0  0  0  0  0  0  0  0  0  0  0
   68.1332   73.3112   92.1635 C   0  0  0  0  0  0  0  0  0  0  0  0
   67.2162   73.1972   91.0749 O   0  0  0  0  0  0  0  0  0  0  0  0
   64.5431   75.7581   90.4759 C   0  0  0  0  0  0  0  0  0  0  0  0
   65.8115   75.1508   90.5229 C   0  0  0  0  0  0  0  0  0  0  0  0
   65.9658   73.8333   90.9937 C   0  0  0  0  0  0  0  0  0  0  0  0
   64.8355   73.1177   91.3939 C   0  0  0  0  0  0  0  0  0  0  0  0
   63.5732   73.7107   91.3629 C   0  0  0  0  0  0  0  0  0  0  0  0
   63.4161   75.0323   90.9326 C   0  0  0  0  0  0  0  0  0  0  0  0
   62.1399   75.5941   91.0074 O   0  0  0  0  0  0  0  0  0  0  0  0
   61.4192   75.0804   91.3153 H   0  0  0  0  0  0  0  0  0  0  0  0
   65.4723   77.8065   89.7124 O   0  0  0  0  0  0  0  0  0  0  0  0
   64.4323   77.1236   89.9178 C   0  0  0  0  0  0  0  0  0  0  0  0
   63.1922   77.6445   89.5601 O   0  0  0  0  0  0  0  0  0  0  0  0
   62.4136   77.1448   89.7088 H   0  0  0  0  0  0  0  0  0  0  0  0
 31 32  2  0  0  0
 32 33  1  0  0  0
 32 23  1  0  0  0
 23 24  2  0  0  0
 24 25  1  0  0  0
 25 22  1  0  0  0
 22 21  1  0  0  0
 21  1  1  0  0  0
  1  2  2  0  0  0
  2  3  1  0  0  0
  3  4  1  0  0  0
  4  6  1  0  0  0
  6  7  2  0  0  0
  7  8  1  0  0  0
  8  9  2  0  0  0
  9 10  1  0  0  0
 10 12  1  0  0  0
 12 13  1  0  0  0
 13 14  1  0  0  0
 14 15  2  0  0  0
 15 16  1  0  0  0
 16 17  2  0  0  0
 17 18  1  0  0  0
 18 19  1  0  0  0
 18 20  2  0  0  0
 10 11  2  0  0  0
  4  5  2  0  0  0
 25 26  2  0  0  0
 26 27  1  0  0  0
 27 28  2  0  0  0
 28 29  1  0  0  0
 28 23  1  0  0  0
  5  1  2  0  0  0
 11  6  1  0  0  0
 20 14  1  0  0  0
 33 34  1  0  0  0
 29 30  1  0  0  0
M  END
> <Activity>
17.9

> <minimizedAffinity>
-8.87940

$$$$
HIPS6710


 34 37  0  0  0  0  0  0  0  0999 V2000
   69.5433   74.6330   91.5479 C   0  0  0  0  0  0  0  0  0  0  0  0
   70.8881   74.5831   91.1934 C   0  0  0  0  0  0  0  0  0  0  0  0
   71.0874   75.5362   89.8240 S   0  0  0  0  0  0  0  0  0  0  0  0
   69.4607   75.9735   89.7381 C   0  0  0  0  0  0  0  0  0  0  0  0
   68.7610   75.4036   90.7446 N   0  0  0  0  0  0  0  0  0  0  0  0
   68.8570   76.8865   88.7407 C   0  0  0  0  0  0  0  0  0  0  0  0
   67.7887   76.4472   87.9399 C   0  0  0  0  0  0  0  0  0  0  0  0
   67.2045   77.3066   87.0074 C   0  0  0  0  0  0  0  0  0  0  0  0
   67.6743   78.6133   86.8668 C   0  0  0  0  0  0  0  0  0  0  0  0
   68.7325   79.0759   87.6557 C   0  0  0  0  0  0  0  0  0  0  0  0
   69.3293   78.2028   88.5866 C   0  0  0  0  0  0  0  0  0  0  0  0
   69.1552   80.4046   87.4847 O   0  0  0  0  0  0  0  0  0  0  0  0
   69.6889   81.2405   88.5131 C   0  0  0  0  0  0  0  0  0  0  0  0
   71.1695   81.0150   88.6741 C   0  0  0  0  0  0  0  0  0  0  0  0
   71.6890   79.7121   88.7562 C   0  0  0  0  0  0  0  0  0  0  0  0
   73.0639   79.5106   88.9083 C   0  0  0  0  0  0  0  0  0  0  0  0
   73.9305   80.6051   88.9693 C   0  0  0  0  0  0  0  0  0  0  0  0
   73.4237   81.9053   88.8745 C   0  0  0  0  0  0  0  0  0  0  0  0
   74.5125   83.2785   88.9468 Cl  0  0  0  0  0  0  0  0  0  0  0  0
   72.0476   82.1103   88.7227 C   0  0  0  0  0  0  0  0  0  0  0  0
   68.9958   73.9501   92.7637 C   0  0  0  0  0  0  0  0  0  0  0  0
   68.1824   74.8496   93.5175 O   0  0  0  0  0  0  0  0  0  0  0  0
   66.9942   78.1587   92.2135 C   0  0  0  0  0  0  0  0  0  0  0  0
   67.0704   76.7720   92.4392 C   0  0  0  0  0  0  0  0  0  0  0  0
   68.0596   76.2294   93.2809 C   0  0  0  0  0  0  0  0  0  0  0  0
   68.9578   77.0891   93.9164 C   0  0  0  0  0  0  0  0  0  0  0  0
   68.9008   78.4650   93.6933 C   0  0  0  0  0  0  0  0  0  0  0  0
   67.9452   79.0087   92.8286 C   0  0  0  0  0  0  0  0  0  0  0  0
   67.9969   80.3822   92.5819 O   0  0  0  0  0  0  0  0  0  0  0  0
   68.6417   80.9110   93.0090 H   0  0  0  0  0  0  0  0  0  0  0  0
   64.7121   78.6658   91.7921 O   0  0  0  0  0  0  0  0  0  0  0  0
   65.8988   78.6787   91.3660 C   0  0  0  0  0  0  0  0  0  0  0  0
   66.1708   79.2388   90.1212 O   0  0  0  0  0  0  0  0  0  0  0  0
   67.0494   79.2532   89.7958 H   0  0  0  0  0  0  0  0  0  0  0  0
 31 32  2  0  0  0
 32 33  1  0  0  0
 32 23  1  0  0  0
 23 24  2  0  0  0
 24 25  1  0  0  0
 25 22  1  0  0  0
 22 21  1  0  0  0
 21  1  1  0  0  0
  1  2  2  0  0  0
  2  3  1  0  0  0
  3  4  1  0  0  0
  4  6  1  0  0  0
  6  7  2  0  0  0
  7  8  1  0  0  0
  8  9  2  0  0  0
  9 10  1  0  0  0
 10 12  1  0  0  0
 12 13  1  0  0  0
 13 14  1  0  0  0
 14 15  2  0  0  0
 15 16  1  0  0  0
 16 17  2  0  0  0
 17 18  1  0  0  0
 18 19  1  0  0  0
 18 20  2  0  0  0
 10 11  2  0  0  0
  4  5  2  0  0  0
 25 26  2  0  0  0
 26 27  1  0  0  0
 27 28  2  0  0  0
 28 29  1  0  0  0
 28 23  1  0  0  0
  5  1  2  0  0  0
 11  6  1  0  0  0
 20 14  1  0  0  0
 33 34  1  0  0  0
 29 30  1  0  0  0
M  END
> <Activity>
17.9

> <minimizedAffinity>
-8.85775

$$$$
HIPS6710


 34 37  0  0  0  0  0  0  0  0999 V2000
   67.5387   78.6410   87.2713 C   0  0  0  0  0  0  0  0  0  0  0  0
   67.3826   77.9443   86.0768 C   0  0  0  0  0  0  0  0  0  0  0  0
   66.5276   76.5385   86.4176 S   0  0  0  0  0  0  0  0  0  0  0  0
   66.3898   76.8721   88.0651 C   0  0  0  0  0  0  0  0  0  0  0  0
   66.9867   78.0476   88.3641 N   0  0  0  0  0  0  0  0  0  0  0  0
   65.6831   76.0394   89.0651 C   0  0  0  0  0  0  0  0  0  0  0  0
   64.3138   75.7632   88.9101 C   0  0  0  0  0  0  0  0  0  0  0  0
   63.6436   74.9669   89.8409 C   0  0  0  0  0  0  0  0  0  0  0  0
   64.3313   74.4331   90.9318 C   0  0  0  0  0  0  0  0  0  0  0  0
   65.6953   74.6888   91.1052 C   0  0  0  0  0  0  0  0  0  0  0  0
   66.3665   75.5036   90.1722 C   0  0  0  0  0  0  0  0  0  0  0  0
   66.3421   74.1135   92.2117 O   0  0  0  0  0  0  0  0  0  0  0  0
   67.6731   73.5945   92.2124 C   0  0  0  0  0  0  0  0  0  0  0  0
   68.6841   74.7088   92.2867 C   0  0  0  0  0  0  0  0  0  0  0  0
   69.8780   74.6406   91.5492 C   0  0  0  0  0  0  0  0  0  0  0  0
   70.8127   75.6772   91.6251 C   0  0  0  0  0  0  0  0  0  0  0  0
   70.5594   76.7924   92.4281 C   0  0  0  0  0  0  0  0  0  0  0  0
   69.3673   76.8752   93.1550 C   0  0  0  0  0  0  0  0  0  0  0  0
   69.0481   78.2773   94.1594 Cl  0  0  0  0  0  0  0  0  0  0  0  0
   68.4298   75.8388   93.0815 C   0  0  0  0  0  0  0  0  0  0  0  0
   68.2024   79.9817   87.3513 C   0  0  0  0  0  0  0  0  0  0  0  0
   68.9125   80.1144   88.5830 O   0  0  0  0  0  0  0  0  0  0  0  0
   72.6000   80.7158   88.9034 C   0  0  0  0  0  0  0  0  0  0  0  0
   71.2239   80.9654   88.7490 C   0  0  0  0  0  0  0  0  0  0  0  0
   70.2923   79.9102   88.7533 C   0  0  0  0  0  0  0  0  0  0  0  0
   70.7467   78.6030   88.9393 C   0  0  0  0  0  0  0  0  0  0  0  0
   72.1091   78.3397   89.0828 C   0  0  0  0  0  0  0  0  0  0  0  0
   73.0449   79.3785   89.0414 C   0  0  0  0  0  0  0  0  0  0  0  0
   74.3979   79.0389   89.1045 O   0  0  0  0  0  0  0  0  0  0  0  0
   74.6519   78.1416   89.1961 H   0  0  0  0  0  0  0  0  0  0  0  0
   74.5131   81.9141   88.1641 O   0  0  0  0  0  0  0  0  0  0  0  0
   73.5275   81.8674   88.9492 C   0  0  0  0  0  0  0  0  0  0  0  0
   73.2915   82.9334   89.8123 O   0  0  0  0  0  0  0  0  0  0  0  0
   72.5617   82.9081   90.3995 H   0  0  0  0  0  0  0  0  0  0  0  0
 31 32  2  0  0  0
 32 33  1  0  0  0
 32 23  1  0  0  0
 23 24  2  0  0  0
 24 25  1  0  0  0
 25 22  1  0  0  0
 22 21  1  0  0  0
 21  1  1  0  0  0
  1  2  2  0  0  0
  2  3  1  0  0  0
  3  4  1  0  0  0
  4  6  1  0  0  0
  6  7  2  0  0  0
  7  8  1  0  0  0
  8  9  2  0  0  0
  9 10  1  0  0  0
 10 12  1  0  0  0
 12 13  1  0  0  0
 13 14  1  0  0  0
 14 15  2  0  0  0
 15 16  1  0  0  0
 16 17  2  0  0  0
 17 18  1  0  0  0
 18 19  1  0  0  0
 18 20  2  0  0  0
 10 11  2  0  0  0
  4  5  2  0  0  0
 25 26  2  0  0  0
 26 27  1  0  0  0
 27 28  2  0  0  0
 28 29  1  0  0  0
 28 23  1  0  0  0
  5  1  2  0  0  0
 11  6  1  0  0  0
 20 14  1  0  0  0
 33 34  1  0  0  0
 29 30  1  0  0  0
M  END
> <Activity>
17.9

> <minimizedAffinity>
-8.81579

$$$$
HIPS6710


 34 37  0  0  0  0  0  0  0  0999 V2000
   64.1677   73.4087   91.5065 C   0  0  0  0  0  0  0  0  0  0  0  0
   64.4371   72.1094   91.0872 C   0  0  0  0  0  0  0  0  0  0  0  0
   66.1063   71.9169   91.0728 S   0  0  0  0  0  0  0  0  0  0  0  0
   66.4181   73.4884   91.5999 C   0  0  0  0  0  0  0  0  0  0  0  0
   65.2629   74.1640   91.7913 N   0  0  0  0  0  0  0  0  0  0  0  0
   67.7545   74.0667   91.8684 C   0  0  0  0  0  0  0  0  0  0  0  0
   68.6363   73.4213   92.7524 C   0  0  0  0  0  0  0  0  0  0  0  0
   69.9036   73.9525   92.9997 C   0  0  0  0  0  0  0  0  0  0  0  0
   70.3077   75.1282   92.3653 C   0  0  0  0  0  0  0  0  0  0  0  0
   69.4507   75.7862   91.4772 C   0  0  0  0  0  0  0  0  0  0  0  0
   68.1673   75.2557   91.2395 C   0  0  0  0  0  0  0  0  0  0  0  0
   69.9137   76.9568   90.8538 O   0  0  0  0  0  0  0  0  0  0  0  0
   69.8172   77.2424   89.4574 C   0  0  0  0  0  0  0  0  0  0  0  0
   70.5665   78.5034   89.1140 C   0  0  0  0  0  0  0  0  0  0  0  0
   69.8746   79.6591   88.7145 C   0  0  0  0  0  0  0  0  0  0  0  0
   70.5767   80.8248   88.3948 C   0  0  0  0  0  0  0  0  0  0  0  0
   71.9712   80.8494   88.4810 C   0  0  0  0  0  0  0  0  0  0  0  0
   72.6674   79.7077   88.8911 C   0  0  0  0  0  0  0  0  0  0  0  0
   74.4175   79.7406   89.0031 Cl  0  0  0  0  0  0  0  0  0  0  0  0
   71.9673   78.5390   89.2113 C   0  0  0  0  0  0  0  0  0  0  0  0
   62.7767   73.9292   91.7025 C   0  0  0  0  0  0  0  0  0  0  0  0
   62.6050   75.1669   91.0115 O   0  0  0  0  0  0  0  0  0  0  0  0
   65.3065   77.7066   90.4509 C   0  0  0  0  0  0  0  0  0  0  0  0
   64.2938   76.9660   91.0878 C   0  0  0  0  0  0  0  0  0  0  0  0
   63.6342   75.9179   90.4187 C   0  0  0  0  0  0  0  0  0  0  0  0
   64.0143   75.5992   89.1133 C   0  0  0  0  0  0  0  0  0  0  0  0
   65.0091   76.3320   88.4657 C   0  0  0  0  0  0  0  0  0  0  0  0
   65.6429   77.3995   89.1100 C   0  0  0  0  0  0  0  0  0  0  0  0
   66.5678   78.1459   88.3770 O   0  0  0  0  0  0  0  0  0  0  0  0
   66.7634   77.9104   87.4915 H   0  0  0  0  0  0  0  0  0  0  0  0
   65.3477   79.5384   91.9626 O   0  0  0  0  0  0  0  0  0  0  0  0
   66.0053   78.7585   91.2214 C   0  0  0  0  0  0  0  0  0  0  0  0
   67.3928   78.8610   91.1835 O   0  0  0  0  0  0  0  0  0  0  0  0
   67.8903   78.2860   90.6359 H   0  0  0  0  0  0  0  0  0  0  0  0
 31 32  2  0  0  0
 32 33  1  0  0  0
 32 23  1  0  0  0
 23 24  2  0  0  0
 24 25  1  0  0  0
 25 22  1  0  0  0
 22 21  1  0  0  0
 21  1  1  0  0  0
  1  2  2  0  0  0
  2  3  1  0  0  0
  3  4  1  0  0  0
  4  6  1  0  0  0
  6  7  2  0  0  0
  7  8  1  0  0  0
  8  9  2  0  0  0
  9 10  1  0  0  0
 10 12  1  0  0  0
 12 13  1  0  0  0
 13 14  1  0  0  0
 14 15  2  0  0  0
 15 16  1  0  0  0
 16 17  2  0  0  0
 17 18  1  0  0  0
 18 19  1  0  0  0
 18 20  2  0  0  0
 10 11  2  0  0  0
  4  5  2  0  0  0
 25 26  2  0  0  0
 26 27  1  0  0  0
 27 28  2  0  0  0
 28 29  1  0  0  0
 28 23  1  0  0  0
  5  1  2  0  0  0
 11  6  1  0  0  0
 20 14  1  0  0  0
 33 34  1  0  0  0
 29 30  1  0  0  0
M  END
> <Activity>
17.9

> <minimizedAffinity>
-8.80484

$$$$
HIPS6710


 34 37  0  0  0  0  0  0  0  0999 V2000
   65.0643   74.4526   90.5808 C   0  0  0  0  0  0  0  0  0  0  0  0
   63.8043   75.0320   90.4659 C   0  0  0  0  0  0  0  0  0  0  0  0
   63.9597   76.3958   89.4967 S   0  0  0  0  0  0  0  0  0  0  0  0
   65.6177   76.1942   89.2619 C   0  0  0  0  0  0  0  0  0  0  0  0
   66.0602   75.0950   89.9125 N   0  0  0  0  0  0  0  0  0  0  0  0
   66.4894   77.0553   88.4305 C   0  0  0  0  0  0  0  0  0  0  0  0
   66.3416   77.0665   87.0329 C   0  0  0  0  0  0  0  0  0  0  0  0
   67.1499   77.8865   86.2432 C   0  0  0  0  0  0  0  0  0  0  0  0
   68.1095   78.7076   86.8374 C   0  0  0  0  0  0  0  0  0  0  0  0
   68.2723   78.7186   88.2264 C   0  0  0  0  0  0  0  0  0  0  0  0
   67.4648   77.8803   89.0204 C   0  0  0  0  0  0  0  0  0  0  0  0
   69.2417   79.5756   88.7734 O   0  0  0  0  0  0  0  0  0  0  0  0
   69.8100   80.7080   88.1133 C   0  0  0  0  0  0  0  0  0  0  0  0
   71.2593   80.8765   88.4877 C   0  0  0  0  0  0  0  0  0  0  0  0
   71.7712   82.1448   88.8094 C   0  0  0  0  0  0  0  0  0  0  0  0
   73.1179   82.2940   89.1533 C   0  0  0  0  0  0  0  0  0  0  0  0
   73.9602   81.1797   89.1887 C   0  0  0  0  0  0  0  0  0  0  0  0
   73.4561   79.9113   88.8834 C   0  0  0  0  0  0  0  0  0  0  0  0
   74.5129   78.5123   88.9321 Cl  0  0  0  0  0  0  0  0  0  0  0  0
   72.1084   79.7587   88.5381 C   0  0  0  0  0  0  0  0  0  0  0  0
   65.3085   73.1753   91.3247 C   0  0  0  0  0  0  0  0  0  0  0  0
   66.7098   72.9394   91.4648 O   0  0  0  0  0  0  0  0  0  0  0  0
   69.5841   75.3358   91.2243 C   0  0  0  0  0  0  0  0  0  0  0  0
   68.6255   74.3732   90.8577 C   0  0  0  0  0  0  0  0  0  0  0  0
   67.6713   73.9131   91.7845 C   0  0  0  0  0  0  0  0  0  0  0  0
   67.6674   74.4433   93.0763 C   0  0  0  0  0  0  0  0  0  0  0  0
   68.6186   75.3902   93.4568 C   0  0  0  0  0  0  0  0  0  0  0  0
   69.5942   75.8246   92.5534 C   0  0  0  0  0  0  0  0  0  0  0  0
   70.5686   76.7080   93.0223 O   0  0  0  0  0  0  0  0  0  0  0  0
   70.5405   77.0088   93.9092 H   0  0  0  0  0  0  0  0  0  0  0  0
   71.2314   76.8458   90.4188 O   0  0  0  0  0  0  0  0  0  0  0  0
   70.5257   75.8253   90.1937 C   0  0  0  0  0  0  0  0  0  0  0  0
   70.6857   75.1358   88.9953 O   0  0  0  0  0  0  0  0  0  0  0  0
   70.1660   74.3764   88.8187 H   0  0  0  0  0  0  0  0  0  0  0  0
 31 32  2  0  0  0
 32 33  1  0  0  0
 32 23  1  0  0  0
 23 24  2  0  0  0
 24 25  1  0  0  0
 25 22  1  0  0  0
 22 21  1  0  0  0
 21  1  1  0  0  0
  1  2  2  0  0  0
  2  3  1  0  0  0
  3  4  1  0  0  0
  4  6  1  0  0  0
  6  7  2  0  0  0
  7  8  1  0  0  0
  8  9  2  0  0  0
  9 10  1  0  0  0
 10 12  1  0  0  0
 12 13  1  0  0  0
 13 14  1  0  0  0
 14 15  2  0  0  0
 15 16  1  0  0  0
 16 17  2  0  0  0
 17 18  1  0  0  0
 18 19  1  0  0  0
 18 20  2  0  0  0
 10 11  2  0  0  0
  4  5  2  0  0  0
 25 26  2  0  0  0
 26 27  1  0  0  0
 27 28  2  0  0  0
 28 29  1  0  0  0
 28 23  1  0  0  0
  5  1  2  0  0  0
 11  6  1  0  0  0
 20 14  1  0  0  0
 33 34  1  0  0  0
 29 30  1  0  0  0
M  END
> <Activity>
17.9

> <minimizedAffinity>
-8.71703

$$$$
HIPS6710


 34 37  0  0  0  0  0  0  0  0999 V2000
   69.8507   75.1140   90.9712 C   0  0  0  0  0  0  0  0  0  0  0  0
   70.2163   74.6982   92.2479 C   0  0  0  0  0  0  0  0  0  0  0  0
   68.8627   74.0051   92.9627 S   0  0  0  0  0  0  0  0  0  0  0  0
   67.8697   74.2600   91.6234 C   0  0  0  0  0  0  0  0  0  0  0  0
   68.5569   74.8672   90.6302 N   0  0  0  0  0  0  0  0  0  0  0  0
   66.4522   73.8497   91.5009 C   0  0  0  0  0  0  0  0  0  0  0  0
   66.1251   72.4970   91.3044 C   0  0  0  0  0  0  0  0  0  0  0  0
   64.7904   72.1002   91.2025 C   0  0  0  0  0  0  0  0  0  0  0  0
   63.7680   73.0452   91.3008 C   0  0  0  0  0  0  0  0  0  0  0  0
   64.0673   74.3965   91.5018 C   0  0  0  0  0  0  0  0  0  0  0  0
   65.4153   74.7965   91.5908 C   0  0  0  0  0  0  0  0  0  0  0  0
   62.9996   75.3030   91.6096 O   0  0  0  0  0  0  0  0  0  0  0  0
   62.8850   76.5332   90.8924 C   0  0  0  0  0  0  0  0  0  0  0  0
   64.2448   77.0923   90.5643 C   0  0  0  0  0  0  0  0  0  0  0  0
   64.8436   76.8306   89.3206 C   0  0  0  0  0  0  0  0  0  0  0  0
   66.1069   77.3505   89.0241 C   0  0  0  0  0  0  0  0  0  0  0  0
   66.7767   78.1426   89.9604 C   0  0  0  0  0  0  0  0  0  0  0  0
   66.1821   78.4198   91.1957 C   0  0  0  0  0  0  0  0  0  0  0  0
   67.0214   79.4175   92.3690 Cl  0  0  0  0  0  0  0  0  0  0  0  0
   64.9177   77.9002   91.4957 C   0  0  0  0  0  0  0  0  0  0  0  0
   70.8189   75.7264   90.0058 C   0  0  0  0  0  0  0  0  0  0  0  0
   70.1557   76.6718   89.1660 O   0  0  0  0  0  0  0  0  0  0  0  0
   72.1977   79.8079   88.9269 C   0  0  0  0  0  0  0  0  0  0  0  0
   71.8670   78.4490   89.0812 C   0  0  0  0  0  0  0  0  0  0  0  0
   70.5304   78.0158   88.9988 C   0  0  0  0  0  0  0  0  0  0  0  0
   69.5277   78.9511   88.7347 C   0  0  0  0  0  0  0  0  0  0  0  0
   69.8396   80.3031   88.5903 C   0  0  0  0  0  0  0  0  0  0  0  0
   71.1606   80.7473   88.7088 C   0  0  0  0  0  0  0  0  0  0  0  0
   71.3939   82.1223   88.6396 O   0  0  0  0  0  0  0  0  0  0  0  0
   70.6804   82.7118   88.4937 H   0  0  0  0  0  0  0  0  0  0  0  0
   74.5101   79.3267   89.1785 O   0  0  0  0  0  0  0  0  0  0  0  0
   73.6241   80.1982   88.9655 C   0  0  0  0  0  0  0  0  0  0  0  0
   74.0064   81.5119   88.7102 O   0  0  0  0  0  0  0  0  0  0  0  0
   73.3555   82.1668   88.5508 H   0  0  0  0  0  0  0  0  0  0  0  0
 31 32  2  0  0  0
 32 33  1  0  0  0
 32 23  1  0  0  0
 23 24  2  0  0  0
 24 25  1  0  0  0
 25 22  1  0  0  0
 22 21  1  0  0  0
 21  1  1  0  0  0
  1  2  2  0  0  0
  2  3  1  0  0  0
  3  4  1  0  0  0
  4  6  1  0  0  0
  6  7  2  0  0  0
  7  8  1  0  0  0
  8  9  2  0  0  0
  9 10  1  0  0  0
 10 12  1  0  0  0
 12 13  1  0  0  0
 13 14  1  0  0  0
 14 15  2  0  0  0
 15 16  1  0  0  0
 16 17  2  0  0  0
 17 18  1  0  0  0
 18 19  1  0  0  0
 18 20  2  0  0  0
 10 11  2  0  0  0
  4  5  2  0  0  0
 25 26  2  0  0  0
 26 27  1  0  0  0
 27 28  2  0  0  0
 28 29  1  0  0  0
 28 23  1  0  0  0
  5  1  2  0  0  0
 11  6  1  0  0  0
 20 14  1  0  0  0
 33 34  1  0  0  0
 29 30  1  0  0  0
M  END
> <Activity>
17.9

> <minimizedAffinity>
-8.70438

$$$$
HIPS6135


 40 43  0  0  0  0  0  0  0  0999 V2000
   69.1338   79.5441   88.1651 C   0  0  0  0  0  0  0  0  0  0  0  0
   69.2204   78.8502   89.3757 C   0  0  0  0  0  0  0  0  0  0  0  0
   68.5310   77.6409   89.5662 C   0  0  0  0  0  0  0  0  0  0  0  0
   67.7386   77.1346   88.5220 C   0  0  0  0  0  0  0  0  0  0  0  0
   67.6215   77.8293   87.3068 C   0  0  0  0  0  0  0  0  0  0  0  0
   68.3453   79.0190   87.1253 C   0  0  0  0  0  0  0  0  0  0  0  0
   68.6405   76.9077   90.8528 C   0  0  0  0  0  0  0  0  0  0  0  0
   69.3463   77.4646   91.9342 C   0  0  0  0  0  0  0  0  0  0  0  0
   69.4538   76.7702   93.1413 C   0  0  0  0  0  0  0  0  0  0  0  0
   68.8640   75.5130   93.2833 C   0  0  0  0  0  0  0  0  0  0  0  0
   68.1623   74.9368   92.2144 C   0  0  0  0  0  0  0  0  0  0  0  0
   68.0435   75.6429   91.0063 C   0  0  0  0  0  0  0  0  0  0  0  0
   67.5282   73.5804   92.3751 C   0  0  0  0  0  0  0  0  0  0  0  0
   66.6903   73.2787   91.2587 O   0  0  0  0  0  0  0  0  0  0  0  0
   65.3480   73.6691   91.1208 C   0  0  0  0  0  0  0  0  0  0  0  0
   64.2817   72.9159   91.6407 C   0  0  0  0  0  0  0  0  0  0  0  0
   62.9667   73.3504   91.4720 C   0  0  0  0  0  0  0  0  0  0  0  0
   62.6874   74.5329   90.7792 C   0  0  0  0  0  0  0  0  0  0  0  0
   61.3469   74.8689   90.5788 O   0  0  0  0  0  0  0  0  0  0  0  0
   63.7536   75.3192   90.2789 C   0  0  0  0  0  0  0  0  0  0  0  0
   65.0734   74.8596   90.4398 C   0  0  0  0  0  0  0  0  0  0  0  0
   60.6699   74.3221   90.9262 H   0  0  0  0  0  0  0  0  0  0  0  0
   63.5337   76.6274   89.6246 C   0  0  0  0  0  0  0  0  0  0  0  0
   64.2566   77.6142   89.9300 O   0  0  0  0  0  0  0  0  0  0  0  0
   62.4938   76.7989   88.7156 O   0  0  0  0  0  0  0  0  0  0  0  0
   61.9509   76.0718   88.4821 H   0  0  0  0  0  0  0  0  0  0  0  0
   66.8105   77.2518   86.1732 C   0  0  0  0  0  0  0  0  0  0  0  0
   66.4489   78.2681   85.3086 F   0  0  0  0  0  0  0  0  0  0  0  0
   65.6656   76.6393   86.6538 F   0  0  0  0  0  0  0  0  0  0  0  0
   67.5447   76.3071   85.4769 F   0  0  0  0  0  0  0  0  0  0  0  0
   69.8475   80.7477   88.0407 O   0  0  0  0  0  0  0  0  0  0  0  0
   70.6331   81.3531   89.0687 C   0  0  0  0  0  0  0  0  0  0  0  0
   74.7690   80.1364   88.7419 C   0  0  0  0  0  0  0  0  0  0  0  0
   74.4287   81.5028   88.7359 C   0  0  0  0  0  0  0  0  0  0  0  0
   73.0911   81.8965   88.8375 C   0  0  0  0  0  0  0  0  0  0  0  0
   72.0756   80.9352   88.9563 C   0  0  0  0  0  0  0  0  0  0  0  0
   72.4147   79.5739   88.9484 C   0  0  0  0  0  0  0  0  0  0  0  0
   73.7519   79.1805   88.8458 C   0  0  0  0  0  0  0  0  0  0  0  0
   76.4929   78.3261   88.7347 C   0  0  0  0  0  0  0  0  0  0  0  0
   76.0955   79.6907   88.6464 O   0  0  0  0  0  0  0  0  0  0  0  0
 39 40  1  0  0  0
 40 33  1  0  0  0
 33 34  2  0  0  0
 34 35  1  0  0  0
 35 36  2  0  0  0
 36 32  1  0  0  0
 32 31  1  0  0  0
 31  1  1  0  0  0
  1  2  2  0  0  0
  2  3  1  0  0  0
  3  7  1  0  0  0
  7  8  2  0  0  0
  8  9  1  0  0  0
  9 10  2  0  0  0
 10 11  1  0  0  0
 11 13  1  0  0  0
 13 14  1  0  0  0
 14 15  1  0  0  0
 15 16  2  0  0  0
 16 17  1  0  0  0
 17 18  2  0  0  0
 18 19  1  0  0  0
 18 20  1  0  0  0
 20 23  1  0  0  0
 23 24  2  0  0  0
 23 25  1  0  0  0
 20 21  2  0  0  0
 11 12  2  0  0  0
  3  4  2  0  0  0
  4  5  1  0  0  0
  5 27  1  0  0  0
 27 28  1  0  0  0
 27 29  1  0  0  0
 27 30  1  0  0  0
  5  6  2  0  0  0
 36 37  1  0  0  0
 37 38  2  0  0  0
 38 33  1  0  0  0
  6  1  1  0  0  0
 12  7  1  0  0  0
 21 15  1  0  0  0
 19 22  1  0  0  0
 25 26  1  0  0  0
M  END
> <Activity>
19.4

> <minimizedAffinity>
-10.62110

$$$$
HIPS6135


 40 43  0  0  0  0  0  0  0  0999 V2000
   69.3374   78.1511   89.0513 C   0  0  0  0  0  0  0  0  0  0  0  0
   68.3255   77.2686   89.4411 C   0  0  0  0  0  0  0  0  0  0  0  0
   67.0566   77.3133   88.8396 C   0  0  0  0  0  0  0  0  0  0  0  0
   66.8082   78.2683   87.8392 C   0  0  0  0  0  0  0  0  0  0  0  0
   67.8054   79.1779   87.4504 C   0  0  0  0  0  0  0  0  0  0  0  0
   69.0769   79.0944   88.0407 C   0  0  0  0  0  0  0  0  0  0  0  0
   65.9941   76.3627   89.2547 C   0  0  0  0  0  0  0  0  0  0  0  0
   64.6803   76.5059   88.7741 C   0  0  0  0  0  0  0  0  0  0  0  0
   63.6809   75.6147   89.1712 C   0  0  0  0  0  0  0  0  0  0  0  0
   63.9774   74.5746   90.0538 C   0  0  0  0  0  0  0  0  0  0  0  0
   65.2798   74.4191   90.5505 C   0  0  0  0  0  0  0  0  0  0  0  0
   66.2861   75.3079   90.1389 C   0  0  0  0  0  0  0  0  0  0  0  0
   65.5924   73.2945   91.5019 C   0  0  0  0  0  0  0  0  0  0  0  0
   66.3168   73.7770   92.6342 O   0  0  0  0  0  0  0  0  0  0  0  0
   67.5314   74.4808   92.5826 C   0  0  0  0  0  0  0  0  0  0  0  0
   68.7354   73.8867   92.1681 C   0  0  0  0  0  0  0  0  0  0  0  0
   69.9136   74.6333   92.1385 C   0  0  0  0  0  0  0  0  0  0  0  0
   69.9187   75.9772   92.5265 C   0  0  0  0  0  0  0  0  0  0  0  0
   71.1455   76.6439   92.5480 O   0  0  0  0  0  0  0  0  0  0  0  0
   68.7066   76.5980   92.9146 C   0  0  0  0  0  0  0  0  0  0  0  0
   67.5298   75.8284   92.9576 C   0  0  0  0  0  0  0  0  0  0  0  0
   71.9259   76.1978   92.2833 H   0  0  0  0  0  0  0  0  0  0  0  0
   68.6236   78.0382   93.2413 C   0  0  0  0  0  0  0  0  0  0  0  0
   69.2763   78.5020   94.2152 O   0  0  0  0  0  0  0  0  0  0  0  0
   67.7823   78.8808   92.5208 O   0  0  0  0  0  0  0  0  0  0  0  0
   67.2930   78.5457   91.7953 H   0  0  0  0  0  0  0  0  0  0  0  0
   67.5459   80.1651   86.3392 C   0  0  0  0  0  0  0  0  0  0  0  0
   66.8856   81.2655   86.8532 F   0  0  0  0  0  0  0  0  0  0  0  0
   66.7660   79.5925   85.3489 F   0  0  0  0  0  0  0  0  0  0  0  0
   68.7352   80.5803   85.7651 F   0  0  0  0  0  0  0  0  0  0  0  0
   70.5830   78.0537   89.6936 O   0  0  0  0  0  0  0  0  0  0  0  0
   71.8450   77.9322   89.0358 C   0  0  0  0  0  0  0  0  0  0  0  0
   73.8617   81.7508   88.8269 C   0  0  0  0  0  0  0  0  0  0  0  0
   72.4580   81.6840   88.7388 C   0  0  0  0  0  0  0  0  0  0  0  0
   71.8057   80.4491   88.8023 C   0  0  0  0  0  0  0  0  0  0  0  0
   72.5420   79.2653   88.9642 C   0  0  0  0  0  0  0  0  0  0  0  0
   73.9414   79.3320   89.0381 C   0  0  0  0  0  0  0  0  0  0  0  0
   74.5933   80.5666   88.9736 C   0  0  0  0  0  0  0  0  0  0  0  0
   75.6269   83.2380   87.8669 C   0  0  0  0  0  0  0  0  0  0  0  0
   74.5624   82.9647   88.7724 O   0  0  0  0  0  0  0  0  0  0  0  0
 39 40  1  0  0  0
 40 33  1  0  0  0
 33 34  2  0  0  0
 34 35  1  0  0  0
 35 36  2  0  0  0
 36 32  1  0  0  0
 32 31  1  0  0  0
 31  1  1  0  0  0
  1  2  2  0  0  0
  2  3  1  0  0  0
  3  7  1  0  0  0
  7  8  2  0  0  0
  8  9  1  0  0  0
  9 10  2  0  0  0
 10 11  1  0  0  0
 11 13  1  0  0  0
 13 14  1  0  0  0
 14 15  1  0  0  0
 15 16  2  0  0  0
 16 17  1  0  0  0
 17 18  2  0  0  0
 18 19  1  0  0  0
 18 20  1  0  0  0
 20 23  1  0  0  0
 23 24  2  0  0  0
 23 25  1  0  0  0
 20 21  2  0  0  0
 11 12  2  0  0  0
  3  4  2  0  0  0
  4  5  1  0  0  0
  5 27  1  0  0  0
 27 28  1  0  0  0
 27 29  1  0  0  0
 27 30  1  0  0  0
  5  6  2  0  0  0
 36 37  1  0  0  0
 37 38  2  0  0  0
 38 33  1  0  0  0
  6  1  1  0  0  0
 12  7  1  0  0  0
 21 15  1  0  0  0
 19 22  1  0  0  0
 25 26  1  0  0  0
M  END
> <Activity>
19.4

> <minimizedAffinity>
-10.14421

$$$$
HIPS6135


 40 43  0  0  0  0  0  0  0  0999 V2000
   67.3795   75.3913   91.5759 C   0  0  0  0  0  0  0  0  0  0  0  0
   67.5836   76.1582   90.4249 C   0  0  0  0  0  0  0  0  0  0  0  0
   66.6207   76.1973   89.4027 C   0  0  0  0  0  0  0  0  0  0  0  0
   65.4429   75.4442   89.5446 C   0  0  0  0  0  0  0  0  0  0  0  0
   65.2304   74.6501   90.6836 C   0  0  0  0  0  0  0  0  0  0  0  0
   66.1905   74.6514   91.7084 C   0  0  0  0  0  0  0  0  0  0  0  0
   66.8445   77.0249   88.1903 C   0  0  0  0  0  0  0  0  0  0  0  0
   66.3807   76.5929   86.9350 C   0  0  0  0  0  0  0  0  0  0  0  0
   66.5984   77.3697   85.7949 C   0  0  0  0  0  0  0  0  0  0  0  0
   67.2835   78.5821   85.8913 C   0  0  0  0  0  0  0  0  0  0  0  0
   67.7608   79.0272   87.1328 C   0  0  0  0  0  0  0  0  0  0  0  0
   67.5286   78.2513   88.2799 C   0  0  0  0  0  0  0  0  0  0  0  0
   68.4986   80.3364   87.2292 C   0  0  0  0  0  0  0  0  0  0  0  0
   69.1976   80.4323   88.4709 O   0  0  0  0  0  0  0  0  0  0  0  0
   70.5590   80.1437   88.6618 C   0  0  0  0  0  0  0  0  0  0  0  0
   71.0331   78.8417   88.8952 C   0  0  0  0  0  0  0  0  0  0  0  0
   72.3969   78.6132   89.0804 C   0  0  0  0  0  0  0  0  0  0  0  0
   73.3107   79.6716   89.0452 C   0  0  0  0  0  0  0  0  0  0  0  0
   74.6502   79.3843   89.3161 O   0  0  0  0  0  0  0  0  0  0  0  0
   72.8512   80.9841   88.7778 C   0  0  0  0  0  0  0  0  0  0  0  0
   71.4715   81.2027   88.6117 C   0  0  0  0  0  0  0  0  0  0  0  0
   74.9146   78.5021   89.4882 H   0  0  0  0  0  0  0  0  0  0  0  0
   73.7733   82.1311   88.6292 C   0  0  0  0  0  0  0  0  0  0  0  0
   73.3364   83.3088   88.7365 O   0  0  0  0  0  0  0  0  0  0  0  0
   75.1126   81.9266   88.3104 O   0  0  0  0  0  0  0  0  0  0  0  0
   75.4469   81.0552   88.2284 H   0  0  0  0  0  0  0  0  0  0  0  0
   63.9401   73.8862   90.8509 C   0  0  0  0  0  0  0  0  0  0  0  0
   63.3009   74.3185   91.9979 F   0  0  0  0  0  0  0  0  0  0  0  0
   64.1864   72.5278   90.9560 F   0  0  0  0  0  0  0  0  0  0  0  0
   63.1056   74.0901   89.7654 F   0  0  0  0  0  0  0  0  0  0  0  0
   68.3826   75.3956   92.5595 O   0  0  0  0  0  0  0  0  0  0  0  0
   69.5031   76.2807   92.5937 C   0  0  0  0  0  0  0  0  0  0  0  0
   68.3557   80.1696   94.0944 C   0  0  0  0  0  0  0  0  0  0  0  0
   68.0328   79.7942   92.7762 C   0  0  0  0  0  0  0  0  0  0  0  0
   68.4072   78.5383   92.2892 C   0  0  0  0  0  0  0  0  0  0  0  0
   69.0993   77.6360   93.1116 C   0  0  0  0  0  0  0  0  0  0  0  0
   69.4325   78.0165   94.4202 C   0  0  0  0  0  0  0  0  0  0  0  0
   69.0590   79.2724   94.9065 C   0  0  0  0  0  0  0  0  0  0  0  0
   67.9400   81.7034   96.0241 C   0  0  0  0  0  0  0  0  0  0  0  0
   67.9995   81.4158   94.6307 O   0  0  0  0  0  0  0  0  0  0  0  0
 39 40  1  0  0  0
 40 33  1  0  0  0
 33 34  2  0  0  0
 34 35  1  0  0  0
 35 36  2  0  0  0
 36 32  1  0  0  0
 32 31  1  0  0  0
 31  1  1  0  0  0
  1  2  2  0  0  0
  2  3  1  0  0  0
  3  7  1  0  0  0
  7  8  2  0  0  0
  8  9  1  0  0  0
  9 10  2  0  0  0
 10 11  1  0  0  0
 11 13  1  0  0  0
 13 14  1  0  0  0
 14 15  1  0  0  0
 15 16  2  0  0  0
 16 17  1  0  0  0
 17 18  2  0  0  0
 18 19  1  0  0  0
 18 20  1  0  0  0
 20 23  1  0  0  0
 23 24  2  0  0  0
 23 25  1  0  0  0
 20 21  2  0  0  0
 11 12  2  0  0  0
  3  4  2  0  0  0
  4  5  1  0  0  0
  5 27  1  0  0  0
 27 28  1  0  0  0
 27 29  1  0  0  0
 27 30  1  0  0  0
  5  6  2  0  0  0
 36 37  1  0  0  0
 37 38  2  0  0  0
 38 33  1  0  0  0
  6  1  1  0  0  0
 12  7  1  0  0  0
 21 15  1  0  0  0
 19 22  1  0  0  0
 25 26  1  0  0  0
M  END
> <Activity>
19.4

> <minimizedAffinity>
-10.03308

$$$$
HIPS6135


 40 43  0  0  0  0  0  0  0  0999 V2000
   69.3872   78.4122   89.1322 C   0  0  0  0  0  0  0  0  0  0  0  0
   68.3462   77.6933   89.7274 C   0  0  0  0  0  0  0  0  0  0  0  0
   67.0343   77.7776   89.2317 C   0  0  0  0  0  0  0  0  0  0  0  0
   66.7734   78.6062   88.1272 C   0  0  0  0  0  0  0  0  0  0  0  0
   67.8022   79.3533   87.5303 C   0  0  0  0  0  0  0  0  0  0  0  0
   69.1123   79.2289   88.0204 C   0  0  0  0  0  0  0  0  0  0  0  0
   65.9398   76.9999   89.8658 C   0  0  0  0  0  0  0  0  0  0  0  0
   64.7558   77.6379   90.2769 C   0  0  0  0  0  0  0  0  0  0  0  0
   63.7303   76.9056   90.8793 C   0  0  0  0  0  0  0  0  0  0  0  0
   63.8741   75.5321   91.0828 C   0  0  0  0  0  0  0  0  0  0  0  0
   65.0500   74.8783   90.6870 C   0  0  0  0  0  0  0  0  0  0  0  0
   66.0740   75.6141   90.0688 C   0  0  0  0  0  0  0  0  0  0  0  0
   65.1978   73.3963   90.9093 C   0  0  0  0  0  0  0  0  0  0  0  0
   66.5231   73.0790   91.3362 O   0  0  0  0  0  0  0  0  0  0  0  0
   67.4596   74.0004   91.8334 C   0  0  0  0  0  0  0  0  0  0  0  0
   67.2745   74.6929   93.0420 C   0  0  0  0  0  0  0  0  0  0  0  0
   68.2372   75.5993   93.4870 C   0  0  0  0  0  0  0  0  0  0  0  0
   69.3939   75.8394   92.7380 C   0  0  0  0  0  0  0  0  0  0  0  0
   70.2783   76.8158   93.2011 O   0  0  0  0  0  0  0  0  0  0  0  0
   69.6095   75.1241   91.5350 C   0  0  0  0  0  0  0  0  0  0  0  0
   68.6217   74.2273   91.0888 C   0  0  0  0  0  0  0  0  0  0  0  0
   70.1000   77.2672   94.0026 H   0  0  0  0  0  0  0  0  0  0  0  0
   70.8541   75.2569   90.7469 C   0  0  0  0  0  0  0  0  0  0  0  0
   70.9038   74.8128   89.5679 O   0  0  0  0  0  0  0  0  0  0  0  0
   71.9960   75.8144   91.3146 O   0  0  0  0  0  0  0  0  0  0  0  0
   71.9693   76.1472   92.1901 H   0  0  0  0  0  0  0  0  0  0  0  0
   67.5226   80.1995   86.3128 C   0  0  0  0  0  0  0  0  0  0  0  0
   66.7705   79.4675   85.4130 F   0  0  0  0  0  0  0  0  0  0  0  0
   68.7046   80.5858   85.7041 F   0  0  0  0  0  0  0  0  0  0  0  0
   66.8233   81.3424   86.6605 F   0  0  0  0  0  0  0  0  0  0  0  0
   70.6754   78.2837   89.6777 O   0  0  0  0  0  0  0  0  0  0  0  0
   71.8832   78.1603   88.9253 C   0  0  0  0  0  0  0  0  0  0  0  0
   74.0014   81.9280   88.8198 C   0  0  0  0  0  0  0  0  0  0  0  0
   74.7087   80.7204   88.9753 C   0  0  0  0  0  0  0  0  0  0  0  0
   74.0239   79.5022   89.0135 C   0  0  0  0  0  0  0  0  0  0  0  0
   72.6265   79.4696   88.8875 C   0  0  0  0  0  0  0  0  0  0  0  0
   71.9217   80.6745   88.7464 C   0  0  0  0  0  0  0  0  0  0  0  0
   72.6066   81.8923   88.7092 C   0  0  0  0  0  0  0  0  0  0  0  0
   75.7813   83.4623   87.9672 C   0  0  0  0  0  0  0  0  0  0  0  0
   74.6421   83.1748   88.7718 O   0  0  0  0  0  0  0  0  0  0  0  0
 39 40  1  0  0  0
 40 33  1  0  0  0
 33 34  2  0  0  0
 34 35  1  0  0  0
 35 36  2  0  0  0
 36 32  1  0  0  0
 32 31  1  0  0  0
 31  1  1  0  0  0
  1  2  2  0  0  0
  2  3  1  0  0  0
  3  7  1  0  0  0
  7  8  2  0  0  0
  8  9  1  0  0  0
  9 10  2  0  0  0
 10 11  1  0  0  0
 11 13  1  0  0  0
 13 14  1  0  0  0
 14 15  1  0  0  0
 15 16  2  0  0  0
 16 17  1  0  0  0
 17 18  2  0  0  0
 18 19  1  0  0  0
 18 20  1  0  0  0
 20 23  1  0  0  0
 23 24  2  0  0  0
 23 25  1  0  0  0
 20 21  2  0  0  0
 11 12  2  0  0  0
  3  4  2  0  0  0
  4  5  1  0  0  0
  5 27  1  0  0  0
 27 28  1  0  0  0
 27 29  1  0  0  0
 27 30  1  0  0  0
  5  6  2  0  0  0
 36 37  1  0  0  0
 37 38  2  0  0  0
 38 33  1  0  0  0
  6  1  1  0  0  0
 12  7  1  0  0  0
 21 15  1  0  0  0
 19 22  1  0  0  0
 25 26  1  0  0  0
M  END
> <Activity>
19.4

> <minimizedAffinity>
-9.98832

$$$$
HIPS6135


 40 43  0  0  0  0  0  0  0  0999 V2000
   67.1460   75.1047   90.4116 C   0  0  0  0  0  0  0  0  0  0  0  0
   67.0094   76.1171   89.4572 C   0  0  0  0  0  0  0  0  0  0  0  0
   68.1344   76.7904   88.9521 C   0  0  0  0  0  0  0  0  0  0  0  0
   69.4099   76.4399   89.4261 C   0  0  0  0  0  0  0  0  0  0  0  0
   69.5649   75.4409   90.4013 C   0  0  0  0  0  0  0  0  0  0  0  0
   68.4304   74.7576   90.8683 C   0  0  0  0  0  0  0  0  0  0  0  0
   67.9766   77.8560   87.9302 C   0  0  0  0  0  0  0  0  0  0  0  0
   67.1561   77.6519   86.8064 C   0  0  0  0  0  0  0  0  0  0  0  0
   67.0145   78.6531   85.8429 C   0  0  0  0  0  0  0  0  0  0  0  0
   67.6912   79.8657   85.9853 C   0  0  0  0  0  0  0  0  0  0  0  0
   68.5203   80.0862   87.0948 C   0  0  0  0  0  0  0  0  0  0  0  0
   68.6501   79.0835   88.0694 C   0  0  0  0  0  0  0  0  0  0  0  0
   69.2467   81.3970   87.2421 C   0  0  0  0  0  0  0  0  0  0  0  0
   69.9937   81.4270   88.4589 O   0  0  0  0  0  0  0  0  0  0  0  0
   71.2937   80.9219   88.6273 C   0  0  0  0  0  0  0  0  0  0  0  0
   71.5534   79.5639   88.8780 C   0  0  0  0  0  0  0  0  0  0  0  0
   72.8653   79.1177   89.0395 C   0  0  0  0  0  0  0  0  0  0  0  0
   73.9392   80.0107   88.9630 C   0  0  0  0  0  0  0  0  0  0  0  0
   75.2196   79.5121   89.2119 O   0  0  0  0  0  0  0  0  0  0  0  0
   73.6947   81.3761   88.6778 C   0  0  0  0  0  0  0  0  0  0  0  0
   72.3659   81.8156   88.5359 C   0  0  0  0  0  0  0  0  0  0  0  0
   75.3399   78.6014   89.3969 H   0  0  0  0  0  0  0  0  0  0  0  0
   74.7885   82.3532   88.4859 C   0  0  0  0  0  0  0  0  0  0  0  0
   74.5880   83.5766   88.7154 O   0  0  0  0  0  0  0  0  0  0  0  0
   76.0249   81.9450   87.9943 O   0  0  0  0  0  0  0  0  0  0  0  0
   76.1838   81.0381   87.8205 H   0  0  0  0  0  0  0  0  0  0  0  0
   70.9420   75.0355   90.8657 C   0  0  0  0  0  0  0  0  0  0  0  0
   71.5527   74.2855   89.8780 F   0  0  0  0  0  0  0  0  0  0  0  0
   70.8646   74.2799   92.0234 F   0  0  0  0  0  0  0  0  0  0  0  0
   71.7180   76.1508   91.1301 F   0  0  0  0  0  0  0  0  0  0  0  0
   65.9805   74.4722   90.8756 O   0  0  0  0  0  0  0  0  0  0  0  0
   64.8301   75.1387   91.3974 C   0  0  0  0  0  0  0  0  0  0  0  0
   61.4803   74.8051   88.6844 C   0  0  0  0  0  0  0  0  0  0  0  0
   62.7392   75.2205   88.2097 C   0  0  0  0  0  0  0  0  0  0  0  0
   63.8216   75.3323   89.0874 C   0  0  0  0  0  0  0  0  0  0  0  0
   63.6672   75.0226   90.4474 C   0  0  0  0  0  0  0  0  0  0  0  0
   62.4091   74.6221   90.9217 C   0  0  0  0  0  0  0  0  0  0  0  0
   61.3269   74.5113   90.0442 C   0  0  0  0  0  0  0  0  0  0  0  0
   60.0964   73.5308   87.0381 C   0  0  0  0  0  0  0  0  0  0  0  0
   60.3649   74.6737   87.8441 O   0  0  0  0  0  0  0  0  0  0  0  0
 39 40  1  0  0  0
 40 33  1  0  0  0
 33 34  2  0  0  0
 34 35  1  0  0  0
 35 36  2  0  0  0
 36 32  1  0  0  0
 32 31  1  0  0  0
 31  1  1  0  0  0
  1  2  2  0  0  0
  2  3  1  0  0  0
  3  7  1  0  0  0
  7  8  2  0  0  0
  8  9  1  0  0  0
  9 10  2  0  0  0
 10 11  1  0  0  0
 11 13  1  0  0  0
 13 14  1  0  0  0
 14 15  1  0  0  0
 15 16  2  0  0  0
 16 17  1  0  0  0
 17 18  2  0  0  0
 18 19  1  0  0  0
 18 20  1  0  0  0
 20 23  1  0  0  0
 23 24  2  0  0  0
 23 25  1  0  0  0
 20 21  2  0  0  0
 11 12  2  0  0  0
  3  4  2  0  0  0
  4  5  1  0  0  0
  5 27  1  0  0  0
 27 28  1  0  0  0
 27 29  1  0  0  0
 27 30  1  0  0  0
  5  6  2  0  0  0
 36 37  1  0  0  0
 37 38  2  0  0  0
 38 33  1  0  0  0
  6  1  1  0  0  0
 12  7  1  0  0  0
 21 15  1  0  0  0
 19 22  1  0  0  0
 25 26  1  0  0  0
M  END
> <Activity>
19.4

> <minimizedAffinity>
-9.90574

$$$$
HIPS6135


 40 43  0  0  0  0  0  0  0  0999 V2000
   70.9457   78.6299   89.4818 C   0  0  0  0  0  0  0  0  0  0  0  0
   70.6164   77.5521   90.3092 C   0  0  0  0  0  0  0  0  0  0  0  0
   69.3793   76.8979   90.1855 C   0  0  0  0  0  0  0  0  0  0  0  0
   68.4629   77.3467   89.2194 C   0  0  0  0  0  0  0  0  0  0  0  0
   68.7669   78.4422   88.3945 C   0  0  0  0  0  0  0  0  0  0  0  0
   70.0222   79.0607   88.5120 C   0  0  0  0  0  0  0  0  0  0  0  0
   69.0465   75.7470   91.0627 C   0  0  0  0  0  0  0  0  0  0  0  0
   69.9133   75.3682   92.1033 C   0  0  0  0  0  0  0  0  0  0  0  0
   69.6016   74.2810   92.9229 C   0  0  0  0  0  0  0  0  0  0  0  0
   68.4267   73.5571   92.7128 C   0  0  0  0  0  0  0  0  0  0  0  0
   67.5527   73.9139   91.6756 C   0  0  0  0  0  0  0  0  0  0  0  0
   67.8612   75.0160   90.8617 C   0  0  0  0  0  0  0  0  0  0  0  0
   66.2869   73.1286   91.4553 C   0  0  0  0  0  0  0  0  0  0  0  0
   65.1420   73.9061   91.8077 O   0  0  0  0  0  0  0  0  0  0  0  0
   64.4201   74.7335   90.9315 C   0  0  0  0  0  0  0  0  0  0  0  0
   64.6581   76.1141   90.8227 C   0  0  0  0  0  0  0  0  0  0  0  0
   63.9087   76.8885   89.9367 C   0  0  0  0  0  0  0  0  0  0  0  0
   62.9071   76.3090   89.1510 C   0  0  0  0  0  0  0  0  0  0  0  0
   62.1425   77.1538   88.3438 O   0  0  0  0  0  0  0  0  0  0  0  0
   62.6789   74.9134   89.2258 C   0  0  0  0  0  0  0  0  0  0  0  0
   63.4290   74.1478   90.1370 C   0  0  0  0  0  0  0  0  0  0  0  0
   62.3251   78.0726   88.3219 H   0  0  0  0  0  0  0  0  0  0  0  0
   61.7049   74.2224   88.3530 C   0  0  0  0  0  0  0  0  0  0  0  0
   60.4908   74.5619   88.3711 O   0  0  0  0  0  0  0  0  0  0  0  0
   62.1032   73.1557   87.5526 O   0  0  0  0  0  0  0  0  0  0  0  0
   63.0031   72.8957   87.5322 H   0  0  0  0  0  0  0  0  0  0  0  0
   67.7984   78.8838   87.3252 C   0  0  0  0  0  0  0  0  0  0  0  0
   66.7694   79.5979   87.9101 F   0  0  0  0  0  0  0  0  0  0  0  0
   67.2689   77.7891   86.6631 F   0  0  0  0  0  0  0  0  0  0  0  0
   68.4314   79.6869   86.3922 F   0  0  0  0  0  0  0  0  0  0  0  0
   72.1988   79.2400   89.6583 O   0  0  0  0  0  0  0  0  0  0  0  0
   73.2722   79.2114   88.7165 C   0  0  0  0  0  0  0  0  0  0  0  0
   75.1687   83.0879   88.4545 C   0  0  0  0  0  0  0  0  0  0  0  0
   75.9194   81.9151   88.2451 C   0  0  0  0  0  0  0  0  0  0  0  0
   75.3074   80.6613   88.3337 C   0  0  0  0  0  0  0  0  0  0  0  0
   73.9378   80.5591   88.6222 C   0  0  0  0  0  0  0  0  0  0  0  0
   73.1939   81.7277   88.8441 C   0  0  0  0  0  0  0  0  0  0  0  0
   73.8062   82.9810   88.7565 C   0  0  0  0  0  0  0  0  0  0  0  0
   75.8744   85.1102   87.1655 C   0  0  0  0  0  0  0  0  0  0  0  0
   75.7350   84.3686   88.3732 O   0  0  0  0  0  0  0  0  0  0  0  0
 39 40  1  0  0  0
 40 33  1  0  0  0
 33 34  2  0  0  0
 34 35  1  0  0  0
 35 36  2  0  0  0
 36 32  1  0  0  0
 32 31  1  0  0  0
 31  1  1  0  0  0
  1  2  2  0  0  0
  2  3  1  0  0  0
  3  7  1  0  0  0
  7  8  2  0  0  0
  8  9  1  0  0  0
  9 10  2  0  0  0
 10 11  1  0  0  0
 11 13  1  0  0  0
 13 14  1  0  0  0
 14 15  1  0  0  0
 15 16  2  0  0  0
 16 17  1  0  0  0
 17 18  2  0  0  0
 18 19  1  0  0  0
 18 20  1  0  0  0
 20 23  1  0  0  0
 23 24  2  0  0  0
 23 25  1  0  0  0
 20 21  2  0  0  0
 11 12  2  0  0  0
  3  4  2  0  0  0
  4  5  1  0  0  0
  5 27  1  0  0  0
 27 28  1  0  0  0
 27 29  1  0  0  0
 27 30  1  0  0  0
  5  6  2  0  0  0
 36 37  1  0  0  0
 37 38  2  0  0  0
 38 33  1  0  0  0
  6  1  1  0  0  0
 12  7  1  0  0  0
 21 15  1  0  0  0
 19 22  1  0  0  0
 25 26  1  0  0  0
M  END
> <Activity>
19.4

> <minimizedAffinity>
-9.70976

$$$$
HIPS6135


 40 43  0  0  0  0  0  0  0  0999 V2000
   70.3749   80.3152   88.8608 C   0  0  0  0  0  0  0  0  0  0  0  0
   70.0446   79.3634   89.8301 C   0  0  0  0  0  0  0  0  0  0  0  0
   68.8948   78.5669   89.6982 C   0  0  0  0  0  0  0  0  0  0  0  0
   68.0666   78.7434   88.5769 C   0  0  0  0  0  0  0  0  0  0  0  0
   68.3701   79.7102   87.6042 C   0  0  0  0  0  0  0  0  0  0  0  0
   69.5418   80.4727   87.7384 C   0  0  0  0  0  0  0  0  0  0  0  0
   68.5615   77.5515   90.7290 C   0  0  0  0  0  0  0  0  0  0  0  0
   68.5708   77.8898   92.0940 C   0  0  0  0  0  0  0  0  0  0  0  0
   68.2636   76.9313   93.0624 C   0  0  0  0  0  0  0  0  0  0  0  0
   67.9482   75.6255   92.6829 C   0  0  0  0  0  0  0  0  0  0  0  0
   67.9407   75.2658   91.3273 C   0  0  0  0  0  0  0  0  0  0  0  0
   68.2362   76.2347   90.3546 C   0  0  0  0  0  0  0  0  0  0  0  0
   67.5991   73.8554   90.9254 C   0  0  0  0  0  0  0  0  0  0  0  0
   66.4206   73.4097   91.5978 O   0  0  0  0  0  0  0  0  0  0  0  0
   65.1067   73.7815   91.2681 C   0  0  0  0  0  0  0  0  0  0  0  0
   63.9905   72.9932   91.5951 C   0  0  0  0  0  0  0  0  0  0  0  0
   62.7073   73.4106   91.2405 C   0  0  0  0  0  0  0  0  0  0  0  0
   62.5110   74.6110   90.5499 C   0  0  0  0  0  0  0  0  0  0  0  0
   61.2097   74.9307   90.1570 O   0  0  0  0  0  0  0  0  0  0  0  0
   63.6235   75.4318   90.2432 C   0  0  0  0  0  0  0  0  0  0  0  0
   64.9131   74.9896   90.5901 C   0  0  0  0  0  0  0  0  0  0  0  0
   60.4998   74.3610   90.3796 H   0  0  0  0  0  0  0  0  0  0  0  0
   63.4772   76.7574   89.6035 C   0  0  0  0  0  0  0  0  0  0  0  0
   64.2645   77.6941   89.9074 O   0  0  0  0  0  0  0  0  0  0  0  0
   62.4380   77.0024   88.7108 O   0  0  0  0  0  0  0  0  0  0  0  0
   61.8475   76.3129   88.4785 H   0  0  0  0  0  0  0  0  0  0  0  0
   67.5035   79.8566   86.3778 C   0  0  0  0  0  0  0  0  0  0  0  0
   66.5203   80.7964   86.6250 F   0  0  0  0  0  0  0  0  0  0  0  0
   66.9045   78.6505   86.0558 F   0  0  0  0  0  0  0  0  0  0  0  0
   68.2570   80.2670   85.2915 F   0  0  0  0  0  0  0  0  0  0  0  0
   71.5379   81.0792   89.0540 O   0  0  0  0  0  0  0  0  0  0  0  0
   72.8691   80.5629   89.0934 C   0  0  0  0  0  0  0  0  0  0  0  0
   75.6976   83.5392   87.7391 C   0  0  0  0  0  0  0  0  0  0  0  0
   76.0535   82.1768   87.7538 C   0  0  0  0  0  0  0  0  0  0  0  0
   75.1406   81.2145   88.1954 C   0  0  0  0  0  0  0  0  0  0  0  0
   73.8579   81.5950   88.6189 C   0  0  0  0  0  0  0  0  0  0  0  0
   73.5093   82.9540   88.6167 C   0  0  0  0  0  0  0  0  0  0  0  0
   74.4225   83.9159   88.1761 C   0  0  0  0  0  0  0  0  0  0  0  0
   76.5701   85.8814   87.7850 C   0  0  0  0  0  0  0  0  0  0  0  0
   76.5757   84.5418   87.3019 O   0  0  0  0  0  0  0  0  0  0  0  0
 39 40  1  0  0  0
 40 33  1  0  0  0
 33 34  2  0  0  0
 34 35  1  0  0  0
 35 36  2  0  0  0
 36 32  1  0  0  0
 32 31  1  0  0  0
 31  1  1  0  0  0
  1  2  2  0  0  0
  2  3  1  0  0  0
  3  7  1  0  0  0
  7  8  2  0  0  0
  8  9  1  0  0  0
  9 10  2  0  0  0
 10 11  1  0  0  0
 11 13  1  0  0  0
 13 14  1  0  0  0
 14 15  1  0  0  0
 15 16  2  0  0  0
 16 17  1  0  0  0
 17 18  2  0  0  0
 18 19  1  0  0  0
 18 20  1  0  0  0
 20 23  1  0  0  0
 23 24  2  0  0  0
 23 25  1  0  0  0
 20 21  2  0  0  0
 11 12  2  0  0  0
  3  4  2  0  0  0
  4  5  1  0  0  0
  5 27  1  0  0  0
 27 28  1  0  0  0
 27 29  1  0  0  0
 27 30  1  0  0  0
  5  6  2  0  0  0
 36 37  1  0  0  0
 37 38  2  0  0  0
 38 33  1  0  0  0
  6  1  1  0  0  0
 12  7  1  0  0  0
 21 15  1  0  0  0
 19 22  1  0  0  0
 25 26  1  0  0  0
M  END
> <Activity>
19.4

> <minimizedAffinity>
-9.60814

$$$$
HIPS6135


 40 43  0  0  0  0  0  0  0  0999 V2000
   65.5317   76.2970   88.6294 C   0  0  0  0  0  0  0  0  0  0  0  0
   66.4755   76.6919   89.5823 C   0  0  0  0  0  0  0  0  0  0  0  0
   66.2879   76.4088   90.9455 C   0  0  0  0  0  0  0  0  0  0  0  0
   65.1273   75.7265   91.3480 C   0  0  0  0  0  0  0  0  0  0  0  0
   64.1572   75.3418   90.4078 C   0  0  0  0  0  0  0  0  0  0  0  0
   64.3802   75.6051   89.0465 C   0  0  0  0  0  0  0  0  0  0  0  0
   67.3036   76.8236   91.9461 C   0  0  0  0  0  0  0  0  0  0  0  0
   68.0723   75.8611   92.6246 C   0  0  0  0  0  0  0  0  0  0  0  0
   69.0223   76.2532   93.5704 C   0  0  0  0  0  0  0  0  0  0  0  0
   69.2141   77.6065   93.8539 C   0  0  0  0  0  0  0  0  0  0  0  0
   68.4523   78.5817   93.1938 C   0  0  0  0  0  0  0  0  0  0  0  0
   67.5076   78.1859   92.2332 C   0  0  0  0  0  0  0  0  0  0  0  0
   68.6650   80.0397   93.5045 C   0  0  0  0  0  0  0  0  0  0  0  0
   68.7420   80.2499   94.9150 O   0  0  0  0  0  0  0  0  0  0  0  0
   67.9272   81.1250   95.6522 C   0  0  0  0  0  0  0  0  0  0  0  0
   67.6899   80.9632   97.0277 C   0  0  0  0  0  0  0  0  0  0  0  0
   66.8692   81.8621   97.7096 C   0  0  0  0  0  0  0  0  0  0  0  0
   66.2650   82.9300   97.0381 C   0  0  0  0  0  0  0  0  0  0  0  0
   65.3937   83.7455   97.7632 O   0  0  0  0  0  0  0  0  0  0  0  0
   66.5219   83.1247   95.6592 C   0  0  0  0  0  0  0  0  0  0  0  0
   67.3362   82.2001   94.9802 C   0  0  0  0  0  0  0  0  0  0  0  0
   65.2503   83.5839   98.6749 H   0  0  0  0  0  0  0  0  0  0  0  0
   65.9953   84.2877   94.9120 C   0  0  0  0  0  0  0  0  0  0  0  0
   66.7857   85.0452   94.2867 O   0  0  0  0  0  0  0  0  0  0  0  0
   64.6377   84.5926   94.9409 O   0  0  0  0  0  0  0  0  0  0  0  0
   64.0422   84.0358   95.4029 H   0  0  0  0  0  0  0  0  0  0  0  0
   62.9398   74.5639   90.8428 C   0  0  0  0  0  0  0  0  0  0  0  0
   61.8441   74.9895   90.1152 F   0  0  0  0  0  0  0  0  0  0  0  0
   62.6904   74.7597   92.1906 F   0  0  0  0  0  0  0  0  0  0  0  0
   63.1231   73.2083   90.6309 F   0  0  0  0  0  0  0  0  0  0  0  0
   65.7800   76.6122   87.2831 O   0  0  0  0  0  0  0  0  0  0  0  0
   67.0704   76.6822   86.6748 C   0  0  0  0  0  0  0  0  0  0  0  0
   69.0244   80.4216   87.6190 C   0  0  0  0  0  0  0  0  0  0  0  0
   67.9397   80.3946   86.7215 C   0  0  0  0  0  0  0  0  0  0  0  0
   67.3101   79.1852   86.4128 C   0  0  0  0  0  0  0  0  0  0  0  0
   67.7460   77.9880   87.0013 C   0  0  0  0  0  0  0  0  0  0  0  0
   68.8356   78.0143   87.8847 C   0  0  0  0  0  0  0  0  0  0  0  0
   69.4654   79.2234   88.1924 C   0  0  0  0  0  0  0  0  0  0  0  0
   70.7836   81.6835   88.8688 C   0  0  0  0  0  0  0  0  0  0  0  0
   69.6867   81.6090   87.9638 O   0  0  0  0  0  0  0  0  0  0  0  0
 39 40  1  0  0  0
 40 33  1  0  0  0
 33 34  2  0  0  0
 34 35  1  0  0  0
 35 36  2  0  0  0
 36 32  1  0  0  0
 32 31  1  0  0  0
 31  1  1  0  0  0
  1  2  2  0  0  0
  2  3  1  0  0  0
  3  7  1  0  0  0
  7  8  2  0  0  0
  8  9  1  0  0  0
  9 10  2  0  0  0
 10 11  1  0  0  0
 11 13  1  0  0  0
 13 14  1  0  0  0
 14 15  1  0  0  0
 15 16  2  0  0  0
 16 17  1  0  0  0
 17 18  2  0  0  0
 18 19  1  0  0  0
 18 20  1  0  0  0
 20 23  1  0  0  0
 23 24  2  0  0  0
 23 25  1  0  0  0
 20 21  2  0  0  0
 11 12  2  0  0  0
  3  4  2  0  0  0
  4  5  1  0  0  0
  5 27  1  0  0  0
 27 28  1  0  0  0
 27 29  1  0  0  0
 27 30  1  0  0  0
  5  6  2  0  0  0
 36 37  1  0  0  0
 37 38  2  0  0  0
 38 33  1  0  0  0
  6  1  1  0  0  0
 12  7  1  0  0  0
 21 15  1  0  0  0
 19 22  1  0  0  0
 25 26  1  0  0  0
M  END
> <Activity>
19.4

> <minimizedAffinity>
-9.53183

$$$$
HIPS6135


 40 43  0  0  0  0  0  0  0  0999 V2000
   69.0073   79.2564   91.0394 C   0  0  0  0  0  0  0  0  0  0  0  0
   68.8698   77.8673   91.1172 C   0  0  0  0  0  0  0  0  0  0  0  0
   68.6411   77.2318   92.3492 C   0  0  0  0  0  0  0  0  0  0  0  0
   68.5600   78.0117   93.5153 C   0  0  0  0  0  0  0  0  0  0  0  0
   68.7182   79.4062   93.4598 C   0  0  0  0  0  0  0  0  0  0  0  0
   68.9128   80.0246   92.2140 C   0  0  0  0  0  0  0  0  0  0  0  0
   68.4853   75.7567   92.4166 C   0  0  0  0  0  0  0  0  0  0  0  0
   69.5162   74.9527   92.9347 C   0  0  0  0  0  0  0  0  0  0  0  0
   69.3703   73.5647   92.9909 C   0  0  0  0  0  0  0  0  0  0  0  0
   68.1991   72.9623   92.5282 C   0  0  0  0  0  0  0  0  0  0  0  0
   67.1622   73.7458   92.0009 C   0  0  0  0  0  0  0  0  0  0  0  0
   67.3055   75.1421   91.9584 C   0  0  0  0  0  0  0  0  0  0  0  0
   65.9015   73.0890   91.5042 C   0  0  0  0  0  0  0  0  0  0  0  0
   64.7614   73.8983   91.7955 O   0  0  0  0  0  0  0  0  0  0  0  0
   64.0655   74.6874   90.8649 C   0  0  0  0  0  0  0  0  0  0  0  0
   64.2418   76.0781   90.7671 C   0  0  0  0  0  0  0  0  0  0  0  0
   63.5218   76.8131   89.8250 C   0  0  0  0  0  0  0  0  0  0  0  0
   62.6105   76.1833   88.9709 C   0  0  0  0  0  0  0  0  0  0  0  0
   61.8661   76.9879   88.1058 O   0  0  0  0  0  0  0  0  0  0  0  0
   62.4472   74.7781   89.0355 C   0  0  0  0  0  0  0  0  0  0  0  0
   63.1656   74.0521   90.0028 C   0  0  0  0  0  0  0  0  0  0  0  0
   62.0039   77.9146   88.0928 H   0  0  0  0  0  0  0  0  0  0  0  0
   61.5754   74.0382   88.0972 C   0  0  0  0  0  0  0  0  0  0  0  0
   60.3330   74.2525   88.0891 O   0  0  0  0  0  0  0  0  0  0  0  0
   62.1043   73.0595   87.2609 O   0  0  0  0  0  0  0  0  0  0  0  0
   63.0264   72.8927   87.2595 H   0  0  0  0  0  0  0  0  0  0  0  0
   68.5776   80.2402   94.7093 C   0  0  0  0  0  0  0  0  0  0  0  0
   68.1044   79.4448   95.7362 F   0  0  0  0  0  0  0  0  0  0  0  0
   67.6926   81.2848   94.5028 F   0  0  0  0  0  0  0  0  0  0  0  0
   69.7986   80.7767   95.0802 F   0  0  0  0  0  0  0  0  0  0  0  0
   69.2353   79.8283   89.7766 O   0  0  0  0  0  0  0  0  0  0  0  0
   70.1366   79.3228   88.7907 C   0  0  0  0  0  0  0  0  0  0  0  0
   73.8561   81.5261   88.8546 C   0  0  0  0  0  0  0  0  0  0  0  0
   73.8621   80.1209   88.9447 C   0  0  0  0  0  0  0  0  0  0  0  0
   72.6594   79.4083   88.9281 C   0  0  0  0  0  0  0  0  0  0  0  0
   71.4354   80.0849   88.8117 C   0  0  0  0  0  0  0  0  0  0  0  0
   71.4299   81.4858   88.7358 C   0  0  0  0  0  0  0  0  0  0  0  0
   72.6324   82.1980   88.7535 C   0  0  0  0  0  0  0  0  0  0  0  0
   75.2515   83.4422   88.0606 C   0  0  0  0  0  0  0  0  0  0  0  0
   75.0350   82.2860   88.8631 O   0  0  0  0  0  0  0  0  0  0  0  0
 39 40  1  0  0  0
 40 33  1  0  0  0
 33 34  2  0  0  0
 34 35  1  0  0  0
 35 36  2  0  0  0
 36 32  1  0  0  0
 32 31  1  0  0  0
 31  1  1  0  0  0
  1  2  2  0  0  0
  2  3  1  0  0  0
  3  7  1  0  0  0
  7  8  2  0  0  0
  8  9  1  0  0  0
  9 10  2  0  0  0
 10 11  1  0  0  0
 11 13  1  0  0  0
 13 14  1  0  0  0
 14 15  1  0  0  0
 15 16  2  0  0  0
 16 17  1  0  0  0
 17 18  2  0  0  0
 18 19  1  0  0  0
 18 20  1  0  0  0
 20 23  1  0  0  0
 23 24  2  0  0  0
 23 25  1  0  0  0
 20 21  2  0  0  0
 11 12  2  0  0  0
  3  4  2  0  0  0
  4  5  1  0  0  0
  5 27  1  0  0  0
 27 28  1  0  0  0
 27 29  1  0  0  0
 27 30  1  0  0  0
  5  6  2  0  0  0
 36 37  1  0  0  0
 37 38  2  0  0  0
 38 33  1  0  0  0
  6  1  1  0  0  0
 12  7  1  0  0  0
 21 15  1  0  0  0
 19 22  1  0  0  0
 25 26  1  0  0  0
M  END
> <Activity>
19.4

> <minimizedAffinity>
-9.35655

$$$$
HIPS6135


 40 43  0  0  0  0  0  0  0  0999 V2000
   70.8182   78.9337   89.3784 C   0  0  0  0  0  0  0  0  0  0  0  0
   70.5868   77.8520   90.2334 C   0  0  0  0  0  0  0  0  0  0  0  0
   69.4192   77.0789   90.1205 C   0  0  0  0  0  0  0  0  0  0  0  0
   68.4723   77.4113   89.1369 C   0  0  0  0  0  0  0  0  0  0  0  0
   68.6769   78.5082   88.2838 C   0  0  0  0  0  0  0  0  0  0  0  0
   69.8661   79.2474   88.3915 C   0  0  0  0  0  0  0  0  0  0  0  0
   69.1908   75.9255   91.0273 C   0  0  0  0  0  0  0  0  0  0  0  0
   70.0303   75.7107   92.1349 C   0  0  0  0  0  0  0  0  0  0  0  0
   69.8178   74.6212   92.9827 C   0  0  0  0  0  0  0  0  0  0  0  0
   68.7707   73.7319   92.7346 C   0  0  0  0  0  0  0  0  0  0  0  0
   67.9268   73.9242   91.6310 C   0  0  0  0  0  0  0  0  0  0  0  0
   68.1338   75.0281   90.7881 C   0  0  0  0  0  0  0  0  0  0  0  0
   66.7990   72.9611   91.3700 C   0  0  0  0  0  0  0  0  0  0  0  0
   65.5542   73.5112   91.8028 O   0  0  0  0  0  0  0  0  0  0  0  0
   64.8745   74.5721   91.1817 C   0  0  0  0  0  0  0  0  0  0  0  0
   63.7237   74.3807   90.3983 C   0  0  0  0  0  0  0  0  0  0  0  0
   63.0900   75.4714   89.8025 C   0  0  0  0  0  0  0  0  0  0  0  0
   63.5908   76.7671   89.9669 C   0  0  0  0  0  0  0  0  0  0  0  0
   62.9546   77.8029   89.2796 O   0  0  0  0  0  0  0  0  0  0  0  0
   64.7301   76.9788   90.7808 C   0  0  0  0  0  0  0  0  0  0  0  0
   65.3700   75.8679   91.3601 C   0  0  0  0  0  0  0  0  0  0  0  0
   62.2026   77.6218   88.7508 H   0  0  0  0  0  0  0  0  0  0  0  0
   65.2522   78.3309   91.0761 C   0  0  0  0  0  0  0  0  0  0  0  0
   65.3241   78.7318   92.2693 O   0  0  0  0  0  0  0  0  0  0  0  0
   65.6100   79.1932   90.0439 O   0  0  0  0  0  0  0  0  0  0  0  0
   65.5600   78.9047   89.1539 H   0  0  0  0  0  0  0  0  0  0  0  0
   67.6798   78.8256   87.1969 C   0  0  0  0  0  0  0  0  0  0  0  0
   66.8651   77.7277   86.9922 F   0  0  0  0  0  0  0  0  0  0  0  0
   68.3285   79.1334   86.0130 F   0  0  0  0  0  0  0  0  0  0  0  0
   66.8954   79.9093   87.5528 F   0  0  0  0  0  0  0  0  0  0  0  0
   72.0055   79.6659   89.5453 O   0  0  0  0  0  0  0  0  0  0  0  0
   73.1625   79.5657   88.7138 C   0  0  0  0  0  0  0  0  0  0  0  0
   75.2020   83.3669   88.4240 C   0  0  0  0  0  0  0  0  0  0  0  0
   73.8332   83.3191   88.7507 C   0  0  0  0  0  0  0  0  0  0  0  0
   73.1723   82.0905   88.8406 C   0  0  0  0  0  0  0  0  0  0  0  0
   73.8681   80.8926   88.6160 C   0  0  0  0  0  0  0  0  0  0  0  0
   75.2286   80.9421   88.2770 C   0  0  0  0  0  0  0  0  0  0  0  0
   75.8888   82.1707   88.1863 C   0  0  0  0  0  0  0  0  0  0  0  0
   76.3818   85.1306   87.1025 C   0  0  0  0  0  0  0  0  0  0  0  0
   75.9107   84.5733   88.3252 O   0  0  0  0  0  0  0  0  0  0  0  0
 39 40  1  0  0  0
 40 33  1  0  0  0
 33 34  2  0  0  0
 34 35  1  0  0  0
 35 36  2  0  0  0
 36 32  1  0  0  0
 32 31  1  0  0  0
 31  1  1  0  0  0
  1  2  2  0  0  0
  2  3  1  0  0  0
  3  7  1  0  0  0
  7  8  2  0  0  0
  8  9  1  0  0  0
  9 10  2  0  0  0
 10 11  1  0  0  0
 11 13  1  0  0  0
 13 14  1  0  0  0
 14 15  1  0  0  0
 15 16  2  0  0  0
 16 17  1  0  0  0
 17 18  2  0  0  0
 18 19  1  0  0  0
 18 20  1  0  0  0
 20 23  1  0  0  0
 23 24  2  0  0  0
 23 25  1  0  0  0
 20 21  2  0  0  0
 11 12  2  0  0  0
  3  4  2  0  0  0
  4  5  1  0  0  0
  5 27  1  0  0  0
 27 28  1  0  0  0
 27 29  1  0  0  0
 27 30  1  0  0  0
  5  6  2  0  0  0
 36 37  1  0  0  0
 37 38  2  0  0  0
 38 33  1  0  0  0
  6  1  1  0  0  0
 12  7  1  0  0  0
 21 15  1  0  0  0
 19 22  1  0  0  0
 25 26  1  0  0  0
M  END
> <Activity>
19.4

> <minimizedAffinity>
-9.13996

$$$$
HIPS6920


 35 38  0  0  0  0  0  0  0  0999 V2000
   67.8917   75.3430   90.7428 C   0  0  0  0  0  0  0  0  0  0  0  0
   67.6276   76.6433   91.1858 C   0  0  0  0  0  0  0  0  0  0  0  0
   67.7458   77.6903   90.3297 N   0  0  0  0  0  0  0  0  0  0  0  0
   68.1121   77.5062   89.0313 C   0  0  0  0  0  0  0  0  0  0  0  0
   68.3595   76.2449   88.5821 N   0  0  0  0  0  0  0  0  0  0  0  0
   68.2536   75.1685   89.4028 C   0  0  0  0  0  0  0  0  0  0  0  0
   68.2373   78.6671   88.1150 C   0  0  0  0  0  0  0  0  0  0  0  0
   67.3668   78.8115   87.0194 C   0  0  0  0  0  0  0  0  0  0  0  0
   67.4880   79.9038   86.1582 C   0  0  0  0  0  0  0  0  0  0  0  0
   68.4746   80.8665   86.3766 C   0  0  0  0  0  0  0  0  0  0  0  0
   69.3526   80.7446   87.4690 C   0  0  0  0  0  0  0  0  0  0  0  0
   69.2292   79.6441   88.3264 C   0  0  0  0  0  0  0  0  0  0  0  0
   70.3597   81.6855   87.7398 O   0  0  0  0  0  0  0  0  0  0  0  0
   71.0077   81.8618   89.0001 C   0  0  0  0  0  0  0  0  0  0  0  0
   72.4972   81.6858   88.8651 C   0  0  0  0  0  0  0  0  0  0  0  0
   73.3245   82.8064   88.6847 C   0  0  0  0  0  0  0  0  0  0  0  0
   74.7085   82.6488   88.5664 C   0  0  0  0  0  0  0  0  0  0  0  0
   75.2771   81.3741   88.6351 C   0  0  0  0  0  0  0  0  0  0  0  0
   74.4622   80.2536   88.8266 C   0  0  0  0  0  0  0  0  0  0  0  0
   75.1774   78.6545   88.9176 Cl  0  0  0  0  0  0  0  0  0  0  0  0
   73.0764   80.4083   88.9464 C   0  0  0  0  0  0  0  0  0  0  0  0
   67.7543   74.1685   91.6739 C   0  0  0  0  0  0  0  0  0  0  0  0
   66.7085   73.2972   91.2416 O   0  0  0  0  0  0  0  0  0  0  0  0
   63.7192   75.3006   90.3484 C   0  0  0  0  0  0  0  0  0  0  0  0
   65.0514   74.8814   90.5147 C   0  0  0  0  0  0  0  0  0  0  0  0
   65.3561   73.6537   91.1117 C   0  0  0  0  0  0  0  0  0  0  0  0
   64.3087   72.8255   91.5481 C   0  0  0  0  0  0  0  0  0  0  0  0
   62.9832   73.2373   91.4088 C   0  0  0  0  0  0  0  0  0  0  0  0
   62.6747   74.4750   90.8347 C   0  0  0  0  0  0  0  0  0  0  0  0
   61.3318   74.8571   90.7987 O   0  0  0  0  0  0  0  0  0  0  0  0
   60.6717   74.2810   91.1310 H   0  0  0  0  0  0  0  0  0  0  0  0
   64.0896   77.6245   89.9637 O   0  0  0  0  0  0  0  0  0  0  0  0
   63.4688   76.5764   89.6418 C   0  0  0  0  0  0  0  0  0  0  0  0
   62.4930   76.6390   88.6505 O   0  0  0  0  0  0  0  0  0  0  0  0
   62.0256   75.8653   88.4037 H   0  0  0  0  0  0  0  0  0  0  0  0
 32 33  2  0  0  0
 33 34  1  0  0  0
 33 24  1  0  0  0
 24 25  2  0  0  0
 25 26  1  0  0  0
 26 23  1  0  0  0
 23 22  1  0  0  0
 22  1  1  0  0  0
  1  2  2  0  0  0
  2  3  2  0  0  0
  3  4  2  0  0  0
  4  7  1  0  0  0
  7  8  2  0  0  0
  8  9  1  0  0  0
  9 10  2  0  0  0
 10 11  1  0  0  0
 11 13  1  0  0  0
 13 14  1  0  0  0
 14 15  1  0  0  0
 15 16  2  0  0  0
 16 17  1  0  0  0
 17 18  2  0  0  0
 18 19  1  0  0  0
 19 20  1  0  0  0
 19 21  2  0  0  0
 11 12  2  0  0  0
  4  5  2  0  0  0
  5  6  2  0  0  0
 26 27  2  0  0  0
 27 28  1  0  0  0
 28 29  2  0  0  0
 29 30  1  0  0  0
 29 24  1  0  0  0
  6  1  1  0  0  0
 12  7  1  0  0  0
 21 15  1  0  0  0
 34 35  1  0  0  0
 30 31  1  0  0  0
M  END
> <Activity>
21.3

> <minimizedAffinity>
-10.32899

$$$$
HIPS6920


 35 38  0  0  0  0  0  0  0  0999 V2000
   67.9880   75.2861   90.6925 C   0  0  0  0  0  0  0  0  0  0  0  0
   67.8685   76.5890   91.1873 C   0  0  0  0  0  0  0  0  0  0  0  0
   67.9620   77.6481   90.3431 N   0  0  0  0  0  0  0  0  0  0  0  0
   68.1640   77.4742   89.0079 C   0  0  0  0  0  0  0  0  0  0  0  0
   68.2690   76.2116   88.5095 N   0  0  0  0  0  0  0  0  0  0  0  0
   68.1816   75.1233   89.3166 C   0  0  0  0  0  0  0  0  0  0  0  0
   68.2656   78.6480   88.1051 C   0  0  0  0  0  0  0  0  0  0  0  0
   67.3810   78.7964   87.0214 C   0  0  0  0  0  0  0  0  0  0  0  0
   67.4800   79.9008   86.1729 C   0  0  0  0  0  0  0  0  0  0  0  0
   68.4581   80.8719   86.3925 C   0  0  0  0  0  0  0  0  0  0  0  0
   69.3500   80.7461   87.4731 C   0  0  0  0  0  0  0  0  0  0  0  0
   69.2488   79.6335   88.3177 C   0  0  0  0  0  0  0  0  0  0  0  0
   70.3495   81.6949   87.7444 O   0  0  0  0  0  0  0  0  0  0  0  0
   71.0065   81.8659   89.0009 C   0  0  0  0  0  0  0  0  0  0  0  0
   72.4726   81.5420   88.8864 C   0  0  0  0  0  0  0  0  0  0  0  0
   72.9118   80.2141   89.0147 C   0  0  0  0  0  0  0  0  0  0  0  0
   74.2710   79.9074   88.9017 C   0  0  0  0  0  0  0  0  0  0  0  0
   75.1999   80.9213   88.6523 C   0  0  0  0  0  0  0  0  0  0  0  0
   74.7704   82.2448   88.5112 C   0  0  0  0  0  0  0  0  0  0  0  0
   75.9365   83.5160   88.1934 Cl  0  0  0  0  0  0  0  0  0  0  0  0
   73.4101   82.5549   88.6228 C   0  0  0  0  0  0  0  0  0  0  0  0
   67.8751   74.0992   91.6110 C   0  0  0  0  0  0  0  0  0  0  0  0
   66.8313   73.2233   91.1832 O   0  0  0  0  0  0  0  0  0  0  0  0
   63.6995   75.1997   91.0035 C   0  0  0  0  0  0  0  0  0  0  0  0
   65.0578   74.8355   90.9846 C   0  0  0  0  0  0  0  0  0  0  0  0
   65.4582   73.5164   91.2218 C   0  0  0  0  0  0  0  0  0  0  0  0
   64.4817   72.5399   91.4793 C   0  0  0  0  0  0  0  0  0  0  0  0
   63.1321   72.8905   91.5220 C   0  0  0  0  0  0  0  0  0  0  0  0
   62.7291   74.2130   91.3097 C   0  0  0  0  0  0  0  0  0  0  0  0
   61.3704   74.5071   91.4451 O   0  0  0  0  0  0  0  0  0  0  0  0
   60.7613   73.8247   91.6483 H   0  0  0  0  0  0  0  0  0  0  0  0
   63.3009   77.4824   91.5659 O   0  0  0  0  0  0  0  0  0  0  0  0
   63.3437   76.5969   90.6705 C   0  0  0  0  0  0  0  0  0  0  0  0
   62.9915   76.9295   89.3651 O   0  0  0  0  0  0  0  0  0  0  0  0
   63.0200   76.2784   88.6918 H   0  0  0  0  0  0  0  0  0  0  0  0
 32 33  2  0  0  0
 33 34  1  0  0  0
 33 24  1  0  0  0
 24 25  2  0  0  0
 25 26  1  0  0  0
 26 23  1  0  0  0
 23 22  1  0  0  0
 22  1  1  0  0  0
  1  2  2  0  0  0
  2  3  2  0  0  0
  3  4  2  0  0  0
  4  7  1  0  0  0
  7  8  2  0  0  0
  8  9  1  0  0  0
  9 10  2  0  0  0
 10 11  1  0  0  0
 11 13  1  0  0  0
 13 14  1  0  0  0
 14 15  1  0  0  0
 15 16  2  0  0  0
 16 17  1  0  0  0
 17 18  2  0  0  0
 18 19  1  0  0  0
 19 20  1  0  0  0
 19 21  2  0  0  0
 11 12  2  0  0  0
  4  5  2  0  0  0
  5  6  2  0  0  0
 26 27  2  0  0  0
 27 28  1  0  0  0
 28 29  2  0  0  0
 29 30  1  0  0  0
 29 24  1  0  0  0
  6  1  1  0  0  0
 12  7  1  0  0  0
 21 15  1  0  0  0
 34 35  1  0  0  0
 30 31  1  0  0  0
M  END
> <Activity>
21.3

> <minimizedAffinity>
-10.22397

$$$$
HIPS6920


 35 38  0  0  0  0  0  0  0  0999 V2000
   67.5627   78.0431   88.8983 C   0  0  0  0  0  0  0  0  0  0  0  0
   67.3052   76.8648   88.1898 C   0  0  0  0  0  0  0  0  0  0  0  0
   66.1421   76.1930   88.3873 N   0  0  0  0  0  0  0  0  0  0  0  0
   65.2026   76.6452   89.2628 C   0  0  0  0  0  0  0  0  0  0  0  0
   65.4331   77.7978   89.9500 N   0  0  0  0  0  0  0  0  0  0  0  0
   66.5819   78.5022   89.7840 C   0  0  0  0  0  0  0  0  0  0  0  0
   63.9396   75.8917   89.4638 C   0  0  0  0  0  0  0  0  0  0  0  0
   63.3532   75.8046   90.7395 C   0  0  0  0  0  0  0  0  0  0  0  0
   62.1660   75.0938   90.9258 C   0  0  0  0  0  0  0  0  0  0  0  0
   61.5466   74.4625   89.8461 C   0  0  0  0  0  0  0  0  0  0  0  0
   62.1130   74.5407   88.5608 C   0  0  0  0  0  0  0  0  0  0  0  0
   63.3066   75.2511   88.3812 C   0  0  0  0  0  0  0  0  0  0  0  0
   61.5305   73.9299   87.4381 O   0  0  0  0  0  0  0  0  0  0  0  0
   60.1340   73.6899   87.2601 C   0  0  0  0  0  0  0  0  0  0  0  0
   59.8996   72.6820   86.1660 C   0  0  0  0  0  0  0  0  0  0  0  0
   59.6448   73.1142   84.8542 C   0  0  0  0  0  0  0  0  0  0  0  0
   59.4341   72.1823   83.8337 C   0  0  0  0  0  0  0  0  0  0  0  0
   59.4839   70.8139   84.1129 C   0  0  0  0  0  0  0  0  0  0  0  0
   59.7489   70.3742   85.4139 C   0  0  0  0  0  0  0  0  0  0  0  0
   59.8161   68.6564   85.7623 Cl  0  0  0  0  0  0  0  0  0  0  0  0
   59.9613   71.3048   86.4375 C   0  0  0  0  0  0  0  0  0  0  0  0
   68.8410   78.8080   88.6839 C   0  0  0  0  0  0  0  0  0  0  0  0
   69.7433   78.6043   89.7721 O   0  0  0  0  0  0  0  0  0  0  0  0
   69.3540   75.7261   92.0767 C   0  0  0  0  0  0  0  0  0  0  0  0
   69.1537   76.9520   91.4172 C   0  0  0  0  0  0  0  0  0  0  0  0
   70.0056   77.3703   90.3897 C   0  0  0  0  0  0  0  0  0  0  0  0
   71.0774   76.5455   90.0100 C   0  0  0  0  0  0  0  0  0  0  0  0
   71.3010   75.3365   90.6693 C   0  0  0  0  0  0  0  0  0  0  0  0
   70.4662   74.9259   91.7138 C   0  0  0  0  0  0  0  0  0  0  0  0
   70.7951   73.7436   92.3809 O   0  0  0  0  0  0  0  0  0  0  0  0
   71.5394   73.2436   92.1088 H   0  0  0  0  0  0  0  0  0  0  0  0
   68.6429   74.3986   93.9254 O   0  0  0  0  0  0  0  0  0  0  0  0
   68.3708   75.3132   93.1026 C   0  0  0  0  0  0  0  0  0  0  0  0
   67.1064   75.8960   93.1242 O   0  0  0  0  0  0  0  0  0  0  0  0
   66.8939   76.5769   92.5166 H   0  0  0  0  0  0  0  0  0  0  0  0
 32 33  2  0  0  0
 33 34  1  0  0  0
 33 24  1  0  0  0
 24 25  2  0  0  0
 25 26  1  0  0  0
 26 23  1  0  0  0
 23 22  1  0  0  0
 22  1  1  0  0  0
  1  2  2  0  0  0
  2  3  2  0  0  0
  3  4  2  0  0  0
  4  7  1  0  0  0
  7  8  2  0  0  0
  8  9  1  0  0  0
  9 10  2  0  0  0
 10 11  1  0  0  0
 11 13  1  0  0  0
 13 14  1  0  0  0
 14 15  1  0  0  0
 15 16  2  0  0  0
 16 17  1  0  0  0
 17 18  2  0  0  0
 18 19  1  0  0  0
 19 20  1  0  0  0
 19 21  2  0  0  0
 11 12  2  0  0  0
  4  5  2  0  0  0
  5  6  2  0  0  0
 26 27  2  0  0  0
 27 28  1  0  0  0
 28 29  2  0  0  0
 29 30  1  0  0  0
 29 24  1  0  0  0
  6  1  1  0  0  0
 12  7  1  0  0  0
 21 15  1  0  0  0
 34 35  1  0  0  0
 30 31  1  0  0  0
M  END
> <Activity>
21.3

> <minimizedAffinity>
-9.96180

$$$$
HIPS6920


 35 38  0  0  0  0  0  0  0  0999 V2000
   70.4709   79.3865   89.3632 C   0  0  0  0  0  0  0  0  0  0  0  0
   69.4534   79.3671   90.3228 C   0  0  0  0  0  0  0  0  0  0  0  0
   69.1778   78.2224   90.9986 N   0  0  0  0  0  0  0  0  0  0  0  0
   69.8798   77.0783   90.7703 C   0  0  0  0  0  0  0  0  0  0  0  0
   70.8820   77.0850   89.8487 N   0  0  0  0  0  0  0  0  0  0  0  0
   71.1922   78.2069   89.1496 C   0  0  0  0  0  0  0  0  0  0  0  0
   69.5581   75.8382   91.5198 C   0  0  0  0  0  0  0  0  0  0  0  0
   70.5826   75.0572   92.0849 C   0  0  0  0  0  0  0  0  0  0  0  0
   70.2771   73.8903   92.7881 C   0  0  0  0  0  0  0  0  0  0  0  0
   68.9497   73.4867   92.9396 C   0  0  0  0  0  0  0  0  0  0  0  0
   67.9090   74.2552   92.3869 C   0  0  0  0  0  0  0  0  0  0  0  0
   68.2222   75.4221   91.6785 C   0  0  0  0  0  0  0  0  0  0  0  0
   66.5560   73.8999   92.5129 O   0  0  0  0  0  0  0  0  0  0  0  0
   65.8320   73.0702   91.6035 C   0  0  0  0  0  0  0  0  0  0  0  0
   64.4658   73.6416   91.3298 C   0  0  0  0  0  0  0  0  0  0  0  0
   63.3800   73.2919   92.1492 C   0  0  0  0  0  0  0  0  0  0  0  0
   62.1115   73.8256   91.9037 C   0  0  0  0  0  0  0  0  0  0  0  0
   61.9190   74.7171   90.8449 C   0  0  0  0  0  0  0  0  0  0  0  0
   62.9970   75.0804   90.0311 C   0  0  0  0  0  0  0  0  0  0  0  0
   62.7554   76.2032   88.7054 Cl  0  0  0  0  0  0  0  0  0  0  0  0
   64.2684   74.5485   90.2750 C   0  0  0  0  0  0  0  0  0  0  0  0
   70.7989   80.6490   88.6125 C   0  0  0  0  0  0  0  0  0  0  0  0
   69.6781   81.0890   87.8445 O   0  0  0  0  0  0  0  0  0  0  0  0
   67.6485   78.0650   87.1494 C   0  0  0  0  0  0  0  0  0  0  0  0
   68.5694   78.9581   87.7259 C   0  0  0  0  0  0  0  0  0  0  0  0
   68.7439   80.2490   87.2162 C   0  0  0  0  0  0  0  0  0  0  0  0
   67.9802   80.6580   86.1105 C   0  0  0  0  0  0  0  0  0  0  0  0
   67.0780   79.7760   85.5152 C   0  0  0  0  0  0  0  0  0  0  0  0
   66.9181   78.4761   86.0063 C   0  0  0  0  0  0  0  0  0  0  0  0
   66.0564   77.6222   85.3139 O   0  0  0  0  0  0  0  0  0  0  0  0
   65.5920   77.9340   84.5623 H   0  0  0  0  0  0  0  0  0  0  0  0
   66.3360   76.3931   88.2299 O   0  0  0  0  0  0  0  0  0  0  0  0
   67.4622   76.7423   87.7860 C   0  0  0  0  0  0  0  0  0  0  0  0
   68.5542   75.8948   87.9542 O   0  0  0  0  0  0  0  0  0  0  0  0
   69.3961   76.1451   87.6278 H   0  0  0  0  0  0  0  0  0  0  0  0
 32 33  2  0  0  0
 33 34  1  0  0  0
 33 24  1  0  0  0
 24 25  2  0  0  0
 25 26  1  0  0  0
 26 23  1  0  0  0
 23 22  1  0  0  0
 22  1  1  0  0  0
  1  2  2  0  0  0
  2  3  2  0  0  0
  3  4  2  0  0  0
  4  7  1  0  0  0
  7  8  2  0  0  0
  8  9  1  0  0  0
  9 10  2  0  0  0
 10 11  1  0  0  0
 11 13  1  0  0  0
 13 14  1  0  0  0
 14 15  1  0  0  0
 15 16  2  0  0  0
 16 17  1  0  0  0
 17 18  2  0  0  0
 18 19  1  0  0  0
 19 20  1  0  0  0
 19 21  2  0  0  0
 11 12  2  0  0  0
  4  5  2  0  0  0
  5  6  2  0  0  0
 26 27  2  0  0  0
 27 28  1  0  0  0
 28 29  2  0  0  0
 29 30  1  0  0  0
 29 24  1  0  0  0
  6  1  1  0  0  0
 12  7  1  0  0  0
 21 15  1  0  0  0
 34 35  1  0  0  0
 30 31  1  0  0  0
M  END
> <Activity>
21.3

> <minimizedAffinity>
-9.90611

$$$$
HIPS6920


 35 38  0  0  0  0  0  0  0  0999 V2000
   68.3162   75.4730   91.1814 C   0  0  0  0  0  0  0  0  0  0  0  0
   68.1925   76.7457   91.7485 C   0  0  0  0  0  0  0  0  0  0  0  0
   68.6133   77.8393   91.0629 N   0  0  0  0  0  0  0  0  0  0  0  0
   69.1531   77.7306   89.8176 C   0  0  0  0  0  0  0  0  0  0  0  0
   69.2678   76.4996   89.2471 N   0  0  0  0  0  0  0  0  0  0  0  0
   68.8600   75.3788   89.8960 C   0  0  0  0  0  0  0  0  0  0  0  0
   69.6087   78.9407   89.0889 C   0  0  0  0  0  0  0  0  0  0  0  0
   68.7874   79.5437   88.1189 C   0  0  0  0  0  0  0  0  0  0  0  0
   69.2193   80.6811   87.4338 C   0  0  0  0  0  0  0  0  0  0  0  0
   70.4717   81.2337   87.7058 C   0  0  0  0  0  0  0  0  0  0  0  0
   71.3072   80.6498   88.6753 C   0  0  0  0  0  0  0  0  0  0  0  0
   70.8705   79.5062   89.3557 C   0  0  0  0  0  0  0  0  0  0  0  0
   72.5741   81.1662   88.9933 O   0  0  0  0  0  0  0  0  0  0  0  0
   72.9196   82.5518   89.0145 C   0  0  0  0  0  0  0  0  0  0  0  0
   74.3249   82.7603   88.5152 C   0  0  0  0  0  0  0  0  0  0  0  0
   75.1552   81.6547   88.2686 C   0  0  0  0  0  0  0  0  0  0  0  0
   76.4580   81.8429   87.7979 C   0  0  0  0  0  0  0  0  0  0  0  0
   76.9386   83.1339   87.5627 C   0  0  0  0  0  0  0  0  0  0  0  0
   76.1148   84.2403   87.7940 C   0  0  0  0  0  0  0  0  0  0  0  0
   76.7173   85.8600   87.4937 Cl  0  0  0  0  0  0  0  0  0  0  0  0
   74.8097   84.0550   88.2643 C   0  0  0  0  0  0  0  0  0  0  0  0
   67.8442   74.2502   91.9212 C   0  0  0  0  0  0  0  0  0  0  0  0
   66.9040   73.5140   91.1377 O   0  0  0  0  0  0  0  0  0  0  0  0
   63.8051   75.3761   90.3154 C   0  0  0  0  0  0  0  0  0  0  0  0
   65.1590   75.0230   90.4584 C   0  0  0  0  0  0  0  0  0  0  0  0
   65.5336   73.8028   91.0304 C   0  0  0  0  0  0  0  0  0  0  0  0
   64.5356   72.9148   91.4650 C   0  0  0  0  0  0  0  0  0  0  0  0
   63.1891   73.2604   91.3489 C   0  0  0  0  0  0  0  0  0  0  0  0
   62.8105   74.4901   90.8001 C   0  0  0  0  0  0  0  0  0  0  0  0
   61.4494   74.8034   90.7869 O   0  0  0  0  0  0  0  0  0  0  0  0
   60.8239   74.1888   91.1171 H   0  0  0  0  0  0  0  0  0  0  0  0
   63.9966   77.7337   90.0144 O   0  0  0  0  0  0  0  0  0  0  0  0
   63.4808   76.6489   89.6340 C   0  0  0  0  0  0  0  0  0  0  0  0
   62.5486   76.6627   88.5998 O   0  0  0  0  0  0  0  0  0  0  0  0
   62.1591   75.8615   88.3094 H   0  0  0  0  0  0  0  0  0  0  0  0
 32 33  2  0  0  0
 33 34  1  0  0  0
 33 24  1  0  0  0
 24 25  2  0  0  0
 25 26  1  0  0  0
 26 23  1  0  0  0
 23 22  1  0  0  0
 22  1  1  0  0  0
  1  2  2  0  0  0
  2  3  2  0  0  0
  3  4  2  0  0  0
  4  7  1  0  0  0
  7  8  2  0  0  0
  8  9  1  0  0  0
  9 10  2  0  0  0
 10 11  1  0  0  0
 11 13  1  0  0  0
 13 14  1  0  0  0
 14 15  1  0  0  0
 15 16  2  0  0  0
 16 17  1  0  0  0
 17 18  2  0  0  0
 18 19  1  0  0  0
 19 20  1  0  0  0
 19 21  2  0  0  0
 11 12  2  0  0  0
  4  5  2  0  0  0
  5  6  2  0  0  0
 26 27  2  0  0  0
 27 28  1  0  0  0
 28 29  2  0  0  0
 29 30  1  0  0  0
 29 24  1  0  0  0
  6  1  1  0  0  0
 12  7  1  0  0  0
 21 15  1  0  0  0
 34 35  1  0  0  0
 30 31  1  0  0  0
M  END
> <Activity>
21.3

> <minimizedAffinity>
-9.68103

$$$$
HIPS6920


 35 38  0  0  0  0  0  0  0  0999 V2000
   67.7987   75.3979   90.7138 C   0  0  0  0  0  0  0  0  0  0  0  0
   68.3420   75.2503   89.4333 C   0  0  0  0  0  0  0  0  0  0  0  0
   68.4671   76.3295   88.6193 N   0  0  0  0  0  0  0  0  0  0  0  0
   68.0800   77.5707   89.0236 C   0  0  0  0  0  0  0  0  0  0  0  0
   67.5616   77.7324   90.2721 N   0  0  0  0  0  0  0  0  0  0  0  0
   67.4183   76.6815   91.1198 C   0  0  0  0  0  0  0  0  0  0  0  0
   68.2242   78.7350   88.1144 C   0  0  0  0  0  0  0  0  0  0  0  0
   67.3595   78.8976   87.0167 C   0  0  0  0  0  0  0  0  0  0  0  0
   67.4986   79.9930   86.1622 C   0  0  0  0  0  0  0  0  0  0  0  0
   68.4975   80.9409   86.3895 C   0  0  0  0  0  0  0  0  0  0  0  0
   69.3701   80.8007   87.4840 C   0  0  0  0  0  0  0  0  0  0  0  0
   69.2287   79.6971   88.3347 C   0  0  0  0  0  0  0  0  0  0  0  0
   70.3890   81.7260   87.7635 O   0  0  0  0  0  0  0  0  0  0  0  0
   71.0581   81.8638   89.0177 C   0  0  0  0  0  0  0  0  0  0  0  0
   72.5184   81.5208   88.8855 C   0  0  0  0  0  0  0  0  0  0  0  0
   72.9440   80.1898   89.0266 C   0  0  0  0  0  0  0  0  0  0  0  0
   74.2975   79.8652   88.8973 C   0  0  0  0  0  0  0  0  0  0  0  0
   75.2342   80.8642   88.6187 C   0  0  0  0  0  0  0  0  0  0  0  0
   74.8181   82.1905   88.4645 C   0  0  0  0  0  0  0  0  0  0  0  0
   75.9939   83.4429   88.1100 Cl  0  0  0  0  0  0  0  0  0  0  0  0
   73.4634   82.5184   88.5925 C   0  0  0  0  0  0  0  0  0  0  0  0
   67.6632   74.2154   91.6349 C   0  0  0  0  0  0  0  0  0  0  0  0
   66.5720   73.3842   91.2372 O   0  0  0  0  0  0  0  0  0  0  0  0
   62.9219   73.8073   91.7315 C   0  0  0  0  0  0  0  0  0  0  0  0
   64.2589   73.4030   91.8954 C   0  0  0  0  0  0  0  0  0  0  0  0
   65.2572   73.8233   91.0104 C   0  0  0  0  0  0  0  0  0  0  0  0
   64.9140   74.6681   89.9417 C   0  0  0  0  0  0  0  0  0  0  0  0
   63.5884   75.0603   89.7544 C   0  0  0  0  0  0  0  0  0  0  0  0
   62.5829   74.6225   90.6226 C   0  0  0  0  0  0  0  0  0  0  0  0
   61.2674   74.9895   90.3298 O   0  0  0  0  0  0  0  0  0  0  0  0
   61.0864   75.5303   89.5863 H   0  0  0  0  0  0  0  0  0  0  0  0
   60.7079   73.6439   92.6018 O   0  0  0  0  0  0  0  0  0  0  0  0
   61.9324   73.3854   92.7477 C   0  0  0  0  0  0  0  0  0  0  0  0
   62.3614   72.7494   93.9097 O   0  0  0  0  0  0  0  0  0  0  0  0
   63.2698   72.5527   94.0281 H   0  0  0  0  0  0  0  0  0  0  0  0
 32 33  2  0  0  0
 33 34  1  0  0  0
 33 24  1  0  0  0
 24 25  2  0  0  0
 25 26  1  0  0  0
 26 23  1  0  0  0
 23 22  1  0  0  0
 22  1  1  0  0  0
  1  2  2  0  0  0
  2  3  2  0  0  0
  3  4  2  0  0  0
  4  7  1  0  0  0
  7  8  2  0  0  0
  8  9  1  0  0  0
  9 10  2  0  0  0
 10 11  1  0  0  0
 11 13  1  0  0  0
 13 14  1  0  0  0
 14 15  1  0  0  0
 15 16  2  0  0  0
 16 17  1  0  0  0
 17 18  2  0  0  0
 18 19  1  0  0  0
 19 20  1  0  0  0
 19 21  2  0  0  0
 11 12  2  0  0  0
  4  5  2  0  0  0
  5  6  2  0  0  0
 26 27  2  0  0  0
 27 28  1  0  0  0
 28 29  2  0  0  0
 29 30  1  0  0  0
 29 24  1  0  0  0
  6  1  1  0  0  0
 12  7  1  0  0  0
 21 15  1  0  0  0
 34 35  1  0  0  0
 30 31  1  0  0  0
M  END
> <Activity>
21.3

> <minimizedAffinity>
-9.66997

$$$$
HIPS6920


 35 38  0  0  0  0  0  0  0  0999 V2000
   70.4662   79.4504   89.2065 C   0  0  0  0  0  0  0  0  0  0  0  0
   69.2575   79.3155   89.8976 C   0  0  0  0  0  0  0  0  0  0  0  0
   68.9868   78.1717   90.5770 N   0  0  0  0  0  0  0  0  0  0  0  0
   69.8754   77.1406   90.6112 C   0  0  0  0  0  0  0  0  0  0  0  0
   71.0618   77.2624   89.9544 N   0  0  0  0  0  0  0  0  0  0  0  0
   71.3745   78.3880   89.2624 C   0  0  0  0  0  0  0  0  0  0  0  0
   69.5556   75.8988   91.3587 C   0  0  0  0  0  0  0  0  0  0  0  0
   70.5816   75.1162   91.9189 C   0  0  0  0  0  0  0  0  0  0  0  0
   70.2779   73.9477   92.6201 C   0  0  0  0  0  0  0  0  0  0  0  0
   68.9508   73.5440   92.7745 C   0  0  0  0  0  0  0  0  0  0  0  0
   67.9087   74.3140   92.2267 C   0  0  0  0  0  0  0  0  0  0  0  0
   68.2201   75.4825   91.5201 C   0  0  0  0  0  0  0  0  0  0  0  0
   66.5560   73.9587   92.3557 O   0  0  0  0  0  0  0  0  0  0  0  0
   65.8252   73.1437   91.4385 C   0  0  0  0  0  0  0  0  0  0  0  0
   64.4502   73.7089   91.1988 C   0  0  0  0  0  0  0  0  0  0  0  0
   63.4042   73.4161   92.0891 C   0  0  0  0  0  0  0  0  0  0  0  0
   62.1278   73.9446   91.8751 C   0  0  0  0  0  0  0  0  0  0  0  0
   61.8881   74.7746   90.7766 C   0  0  0  0  0  0  0  0  0  0  0  0
   62.9266   75.0814   89.8914 C   0  0  0  0  0  0  0  0  0  0  0  0
   62.6259   76.1272   88.5157 Cl  0  0  0  0  0  0  0  0  0  0  0  0
   64.2058   74.5546   90.1037 C   0  0  0  0  0  0  0  0  0  0  0  0
   70.7891   80.7154   88.4577 C   0  0  0  0  0  0  0  0  0  0  0  0
   71.6994   81.5271   89.2008 O   0  0  0  0  0  0  0  0  0  0  0  0
   74.7857   83.2738   88.1188 C   0  0  0  0  0  0  0  0  0  0  0  0
   73.4466   82.9992   88.4495 C   0  0  0  0  0  0  0  0  0  0  0  0
   73.0527   81.7291   88.8833 C   0  0  0  0  0  0  0  0  0  0  0  0
   74.0166   80.7131   88.9932 C   0  0  0  0  0  0  0  0  0  0  0  0
   75.3447   80.9651   88.6486 C   0  0  0  0  0  0  0  0  0  0  0  0
   75.7385   82.2269   88.1909 C   0  0  0  0  0  0  0  0  0  0  0  0
   77.0667   82.3861   87.7891 O   0  0  0  0  0  0  0  0  0  0  0  0
   77.6649   81.6678   87.8533 H   0  0  0  0  0  0  0  0  0  0  0  0
   76.1371   85.2333   88.2595 O   0  0  0  0  0  0  0  0  0  0  0  0
   75.1441   84.6583   87.7390 C   0  0  0  0  0  0  0  0  0  0  0  0
   74.3424   85.3601   86.8426 O   0  0  0  0  0  0  0  0  0  0  0  0
   73.6016   84.9417   86.4499 H   0  0  0  0  0  0  0  0  0  0  0  0
 32 33  2  0  0  0
 33 34  1  0  0  0
 33 24  1  0  0  0
 24 25  2  0  0  0
 25 26  1  0  0  0
 26 23  1  0  0  0
 23 22  1  0  0  0
 22  1  1  0  0  0
  1  2  2  0  0  0
  2  3  2  0  0  0
  3  4  2  0  0  0
  4  7  1  0  0  0
  7  8  2  0  0  0
  8  9  1  0  0  0
  9 10  2  0  0  0
 10 11  1  0  0  0
 11 13  1  0  0  0
 13 14  1  0  0  0
 14 15  1  0  0  0
 15 16  2  0  0  0
 16 17  1  0  0  0
 17 18  2  0  0  0
 18 19  1  0  0  0
 19 20  1  0  0  0
 19 21  2  0  0  0
 11 12  2  0  0  0
  4  5  2  0  0  0
  5  6  2  0  0  0
 26 27  2  0  0  0
 27 28  1  0  0  0
 28 29  2  0  0  0
 29 30  1  0  0  0
 29 24  1  0  0  0
  6  1  1  0  0  0
 12  7  1  0  0  0
 21 15  1  0  0  0
 34 35  1  0  0  0
 30 31  1  0  0  0
M  END
> <Activity>
21.3

> <minimizedAffinity>
-9.37680

$$$$
HIPS6920


 35 38  0  0  0  0  0  0  0  0999 V2000
   68.2735   75.4854   91.1429 C   0  0  0  0  0  0  0  0  0  0  0  0
   68.1880   76.7555   91.7227 C   0  0  0  0  0  0  0  0  0  0  0  0
   68.6216   77.8455   91.0393 N   0  0  0  0  0  0  0  0  0  0  0  0
   69.1377   77.7357   89.7842 C   0  0  0  0  0  0  0  0  0  0  0  0
   69.2151   76.5077   89.2014 N   0  0  0  0  0  0  0  0  0  0  0  0
   68.7934   75.3905   89.8476 C   0  0  0  0  0  0  0  0  0  0  0  0
   69.6078   78.9418   89.0580 C   0  0  0  0  0  0  0  0  0  0  0  0
   68.7904   79.5621   88.0957 C   0  0  0  0  0  0  0  0  0  0  0  0
   69.2360   80.6956   87.4130 C   0  0  0  0  0  0  0  0  0  0  0  0
   70.4986   81.2272   87.6799 C   0  0  0  0  0  0  0  0  0  0  0  0
   71.3306   80.6259   88.6417 C   0  0  0  0  0  0  0  0  0  0  0  0
   70.8800   79.4862   89.3196 C   0  0  0  0  0  0  0  0  0  0  0  0
   72.6074   81.1208   88.9542 O   0  0  0  0  0  0  0  0  0  0  0  0
   72.9638   82.5021   89.0221 C   0  0  0  0  0  0  0  0  0  0  0  0
   74.3654   82.7184   88.5156 C   0  0  0  0  0  0  0  0  0  0  0  0
   75.2291   81.6239   88.3467 C   0  0  0  0  0  0  0  0  0  0  0  0
   76.5286   81.8188   87.8696 C   0  0  0  0  0  0  0  0  0  0  0  0
   76.9725   83.1049   87.5507 C   0  0  0  0  0  0  0  0  0  0  0  0
   76.1155   84.1994   87.7043 C   0  0  0  0  0  0  0  0  0  0  0  0
   76.6721   85.8126   87.2991 Cl  0  0  0  0  0  0  0  0  0  0  0  0
   74.8135   84.0073   88.1808 C   0  0  0  0  0  0  0  0  0  0  0  0
   67.7869   74.2669   91.8802 C   0  0  0  0  0  0  0  0  0  0  0  0
   66.7819   73.5858   91.1280 O   0  0  0  0  0  0  0  0  0  0  0  0
   63.1331   74.0179   91.6246 C   0  0  0  0  0  0  0  0  0  0  0  0
   64.4655   73.5934   91.7748 C   0  0  0  0  0  0  0  0  0  0  0  0
   65.4724   74.0480   90.9169 C   0  0  0  0  0  0  0  0  0  0  0  0
   65.1428   74.9485   89.8903 C   0  0  0  0  0  0  0  0  0  0  0  0
   63.8219   75.3620   89.7162 C   0  0  0  0  0  0  0  0  0  0  0  0
   62.8077   74.8908   90.5563 C   0  0  0  0  0  0  0  0  0  0  0  0
   61.4973   75.2844   90.2757 O   0  0  0  0  0  0  0  0  0  0  0  0
   61.3253   75.8634   89.5594 H   0  0  0  0  0  0  0  0  0  0  0  0
   60.9004   73.6549   92.3788 O   0  0  0  0  0  0  0  0  0  0  0  0
   62.1343   73.5550   92.6134 C   0  0  0  0  0  0  0  0  0  0  0  0
   62.5565   73.0593   93.8442 O   0  0  0  0  0  0  0  0  0  0  0  0
   63.4718   72.9810   94.0287 H   0  0  0  0  0  0  0  0  0  0  0  0
 32 33  2  0  0  0
 33 34  1  0  0  0
 33 24  1  0  0  0
 24 25  2  0  0  0
 25 26  1  0  0  0
 26 23  1  0  0  0
 23 22  1  0  0  0
 22  1  1  0  0  0
  1  2  2  0  0  0
  2  3  2  0  0  0
  3  4  2  0  0  0
  4  7  1  0  0  0
  7  8  2  0  0  0
  8  9  1  0  0  0
  9 10  2  0  0  0
 10 11  1  0  0  0
 11 13  1  0  0  0
 13 14  1  0  0  0
 14 15  1  0  0  0
 15 16  2  0  0  0
 16 17  1  0  0  0
 17 18  2  0  0  0
 18 19  1  0  0  0
 19 20  1  0  0  0
 19 21  2  0  0  0
 11 12  2  0  0  0
  4  5  2  0  0  0
  5  6  2  0  0  0
 26 27  2  0  0  0
 27 28  1  0  0  0
 28 29  2  0  0  0
 29 30  1  0  0  0
 29 24  1  0  0  0
  6  1  1  0  0  0
 12  7  1  0  0  0
 21 15  1  0  0  0
 34 35  1  0  0  0
 30 31  1  0  0  0
M  END
> <Activity>
21.3

> <minimizedAffinity>
-9.34406

$$$$
HIPS6920


 35 38  0  0  0  0  0  0  0  0999 V2000
   68.6019   75.2290   91.0755 C   0  0  0  0  0  0  0  0  0  0  0  0
   68.5504   75.3321   89.6815 C   0  0  0  0  0  0  0  0  0  0  0  0
   68.9390   76.4801   89.0698 N   0  0  0  0  0  0  0  0  0  0  0  0
   69.3912   77.5464   89.7856 C   0  0  0  0  0  0  0  0  0  0  0  0
   69.4596   77.4564   91.1424 N   0  0  0  0  0  0  0  0  0  0  0  0
   69.0816   76.3279   91.7961 C   0  0  0  0  0  0  0  0  0  0  0  0
   69.8078   78.7920   89.0943 C   0  0  0  0  0  0  0  0  0  0  0  0
   68.9533   79.4167   88.1677 C   0  0  0  0  0  0  0  0  0  0  0  0
   69.3486   80.5874   87.5178 C   0  0  0  0  0  0  0  0  0  0  0  0
   70.5972   81.1523   87.7822 C   0  0  0  0  0  0  0  0  0  0  0  0
   71.4657   80.5470   88.7087 C   0  0  0  0  0  0  0  0  0  0  0  0
   71.0654   79.3701   89.3538 C   0  0  0  0  0  0  0  0  0  0  0  0
   72.7304   81.0742   89.0173 O   0  0  0  0  0  0  0  0  0  0  0  0
   73.0578   82.4636   89.0606 C   0  0  0  0  0  0  0  0  0  0  0  0
   74.4531   82.7007   88.5461 C   0  0  0  0  0  0  0  0  0  0  0  0
   75.3130   81.6138   88.3183 C   0  0  0  0  0  0  0  0  0  0  0  0
   76.6066   81.8283   87.8336 C   0  0  0  0  0  0  0  0  0  0  0  0
   77.0483   83.1267   87.5654 C   0  0  0  0  0  0  0  0  0  0  0  0
   76.1948   84.2142   87.7778 C   0  0  0  0  0  0  0  0  0  0  0  0
   76.7484   85.8431   87.4364 Cl  0  0  0  0  0  0  0  0  0  0  0  0
   74.8988   84.0026   88.2621 C   0  0  0  0  0  0  0  0  0  0  0  0
   68.1867   73.9603   91.7707 C   0  0  0  0  0  0  0  0  0  0  0  0
   66.7722   73.9272   91.9651 O   0  0  0  0  0  0  0  0  0  0  0  0
   65.1029   77.0618   90.8998 C   0  0  0  0  0  0  0  0  0  0  0  0
   65.9914   76.1549   91.5050 C   0  0  0  0  0  0  0  0  0  0  0  0
   65.8457   74.7742   91.3348 C   0  0  0  0  0  0  0  0  0  0  0  0
   64.7935   74.2891   90.5405 C   0  0  0  0  0  0  0  0  0  0  0  0
   63.8921   75.1758   89.9511 C   0  0  0  0  0  0  0  0  0  0  0  0
   64.0194   76.5560   90.1387 C   0  0  0  0  0  0  0  0  0  0  0  0
   63.0367   77.3796   89.5848 O   0  0  0  0  0  0  0  0  0  0  0  0
   62.3365   77.0045   89.0879 H   0  0  0  0  0  0  0  0  0  0  0  0
   65.6288   79.2326   90.0649 O   0  0  0  0  0  0  0  0  0  0  0  0
   65.3612   78.5098   91.0617 C   0  0  0  0  0  0  0  0  0  0  0  0
   65.3703   79.0735   92.3348 O   0  0  0  0  0  0  0  0  0  0  0  0
   65.1727   78.5448   93.0827 H   0  0  0  0  0  0  0  0  0  0  0  0
 32 33  2  0  0  0
 33 34  1  0  0  0
 33 24  1  0  0  0
 24 25  2  0  0  0
 25 26  1  0  0  0
 26 23  1  0  0  0
 23 22  1  0  0  0
 22  1  1  0  0  0
  1  2  2  0  0  0
  2  3  2  0  0  0
  3  4  2  0  0  0
  4  7  1  0  0  0
  7  8  2  0  0  0
  8  9  1  0  0  0
  9 10  2  0  0  0
 10 11  1  0  0  0
 11 13  1  0  0  0
 13 14  1  0  0  0
 14 15  1  0  0  0
 15 16  2  0  0  0
 16 17  1  0  0  0
 17 18  2  0  0  0
 18 19  1  0  0  0
 19 20  1  0  0  0
 19 21  2  0  0  0
 11 12  2  0  0  0
  4  5  2  0  0  0
  5  6  2  0  0  0
 26 27  2  0  0  0
 27 28  1  0  0  0
 28 29  2  0  0  0
 29 30  1  0  0  0
 29 24  1  0  0  0
  6  1  1  0  0  0
 12  7  1  0  0  0
 21 15  1  0  0  0
 34 35  1  0  0  0
 30 31  1  0  0  0
M  END
> <Activity>
21.3

> <minimizedAffinity>
-9.23601

$$$$
HIPS6920


 35 38  0  0  0  0  0  0  0  0999 V2000
   65.6040   76.3008   90.0663 C   0  0  0  0  0  0  0  0  0  0  0  0
   66.1512   75.9187   88.8370 C   0  0  0  0  0  0  0  0  0  0  0  0
   66.7372   76.8452   88.0361 N   0  0  0  0  0  0  0  0  0  0  0  0
   66.8148   78.1534   88.4054 C   0  0  0  0  0  0  0  0  0  0  0  0
   66.2984   78.5382   89.6050 N   0  0  0  0  0  0  0  0  0  0  0  0
   65.7037   77.6458   90.4377 C   0  0  0  0  0  0  0  0  0  0  0  0
   67.4579   79.1486   87.5114 C   0  0  0  0  0  0  0  0  0  0  0  0
   67.0196   79.3072   86.1841 C   0  0  0  0  0  0  0  0  0  0  0  0
   67.6275   80.2430   85.3450 C   0  0  0  0  0  0  0  0  0  0  0  0
   68.6771   81.0335   85.8155 C   0  0  0  0  0  0  0  0  0  0  0  0
   69.1282   80.8950   87.1407 C   0  0  0  0  0  0  0  0  0  0  0  0
   68.5177   79.9511   87.9761 C   0  0  0  0  0  0  0  0  0  0  0  0
   70.1761   81.6670   87.6686 O   0  0  0  0  0  0  0  0  0  0  0  0
   70.7378   81.5152   88.9728 C   0  0  0  0  0  0  0  0  0  0  0  0
   72.2106   81.2125   88.8891 C   0  0  0  0  0  0  0  0  0  0  0  0
   72.6652   79.8898   89.0164 C   0  0  0  0  0  0  0  0  0  0  0  0
   74.0308   79.6028   88.9318 C   0  0  0  0  0  0  0  0  0  0  0  0
   74.9508   80.6314   88.7121 C   0  0  0  0  0  0  0  0  0  0  0  0
   74.5061   81.9501   88.5722 C   0  0  0  0  0  0  0  0  0  0  0  0
   75.6613   83.2399   88.2915 Cl  0  0  0  0  0  0  0  0  0  0  0  0
   73.1395   82.2404   88.6553 C   0  0  0  0  0  0  0  0  0  0  0  0
   64.9611   75.2859   90.9729 C   0  0  0  0  0  0  0  0  0  0  0  0
   65.8753   74.8552   91.9821 O   0  0  0  0  0  0  0  0  0  0  0  0
   69.4804   75.3680   91.2841 C   0  0  0  0  0  0  0  0  0  0  0  0
   68.1453   74.9352   91.1920 C   0  0  0  0  0  0  0  0  0  0  0  0
   67.1909   75.3216   92.1387 C   0  0  0  0  0  0  0  0  0  0  0  0
   67.5765   76.1608   93.1972 C   0  0  0  0  0  0  0  0  0  0  0  0
   68.9017   76.5810   93.3132 C   0  0  0  0  0  0  0  0  0  0  0  0
   69.8648   76.1771   92.3826 C   0  0  0  0  0  0  0  0  0  0  0  0
   71.1865   76.5707   92.6041 O   0  0  0  0  0  0  0  0  0  0  0  0
   71.3982   77.1063   93.3432 H   0  0  0  0  0  0  0  0  0  0  0  0
   71.5234   74.4399   90.4777 O   0  0  0  0  0  0  0  0  0  0  0  0
   70.4184   74.9815   90.2070 C   0  0  0  0  0  0  0  0  0  0  0  0
   70.1086   75.2731   88.8812 O   0  0  0  0  0  0  0  0  0  0  0  0
   69.2896   75.6758   88.6691 H   0  0  0  0  0  0  0  0  0  0  0  0
 32 33  2  0  0  0
 33 34  1  0  0  0
 33 24  1  0  0  0
 24 25  2  0  0  0
 25 26  1  0  0  0
 26 23  1  0  0  0
 23 22  1  0  0  0
 22  1  1  0  0  0
  1  2  2  0  0  0
  2  3  2  0  0  0
  3  4  2  0  0  0
  4  7  1  0  0  0
  7  8  2  0  0  0
  8  9  1  0  0  0
  9 10  2  0  0  0
 10 11  1  0  0  0
 11 13  1  0  0  0
 13 14  1  0  0  0
 14 15  1  0  0  0
 15 16  2  0  0  0
 16 17  1  0  0  0
 17 18  2  0  0  0
 18 19  1  0  0  0
 19 20  1  0  0  0
 19 21  2  0  0  0
 11 12  2  0  0  0
  4  5  2  0  0  0
  5  6  2  0  0  0
 26 27  2  0  0  0
 27 28  1  0  0  0
 28 29  2  0  0  0
 29 30  1  0  0  0
 29 24  1  0  0  0
  6  1  1  0  0  0
 12  7  1  0  0  0
 21 15  1  0  0  0
 34 35  1  0  0  0
 30 31  1  0  0  0
M  END
> <Activity>
21.3

> <minimizedAffinity>
-9.14616

$$$$
HIPS6276


 31 32  0  0  0  0  0  0  0  0999 V2000
   67.1379   78.3137   87.8256 O   0  0  0  0  0  0  0  0  0  0  0  0
   70.8869   80.2414   88.0731 C   0  0  0  0  0  0  0  0  0  0  0  0
   69.7688   80.8830   87.5253 C   0  0  0  0  0  0  0  0  0  0  0  0
   68.5405   80.2273   87.4460 C   0  0  0  0  0  0  0  0  0  0  0  0
   68.4012   78.9213   87.9190 C   0  0  0  0  0  0  0  0  0  0  0  0
   69.5176   78.2707   88.4764 C   0  0  0  0  0  0  0  0  0  0  0  0
   70.7574   78.9274   88.5884 C   0  0  0  0  0  0  0  0  0  0  0  0
   73.7532   82.6913   88.9374 C   0  0  0  0  0  0  0  0  0  0  0  0
   72.4137   82.0308   88.9576 C   0  0  0  0  0  0  0  0  0  0  0  0
   71.5449   82.4112   89.7887 O   0  0  0  0  0  0  0  0  0  0  0  0
   72.1419   80.9370   88.0696 N   0  0  0  0  0  0  0  0  0  0  0  0
   72.8405   80.6541   87.4362 H   0  0  0  0  0  0  0  0  0  0  0  0
   71.8687   78.2451   89.2957 C   0  0  0  0  0  0  0  0  0  0  0  0
   73.0651   78.4905   88.9823 O   0  0  0  0  0  0  0  0  0  0  0  0
   71.6066   77.3005   90.2843 O   0  0  0  0  0  0  0  0  0  0  0  0
   70.7220   77.1090   90.5265 H   0  0  0  0  0  0  0  0  0  0  0  0
   66.9050   76.9165   87.6377 C   0  0  0  0  0  0  0  0  0  0  0  0
   66.6071   76.2460   88.9554 C   0  0  0  0  0  0  0  0  0  0  0  0
   65.3488   75.6819   89.1958 C   0  0  0  0  0  0  0  0  0  0  0  0
   65.0751   74.9992   90.3990 C   0  0  0  0  0  0  0  0  0  0  0  0
   66.1024   74.9267   91.3644 C   0  0  0  0  0  0  0  0  0  0  0  0
   67.3712   75.5109   91.1601 C   0  0  0  0  0  0  0  0  0  0  0  0
   67.6029   76.1708   89.9353 C   0  0  0  0  0  0  0  0  0  0  0  0
   63.7176   74.3189   90.6797 C   0  0  0  0  0  0  0  0  0  0  0  0
   62.8544   74.1317   89.4081 C   0  0  0  0  0  0  0  0  0  0  0  0
   62.9042   75.1773   91.6735 C   0  0  0  0  0  0  0  0  0  0  0  0
   63.9615   72.9201   91.2877 C   0  0  0  0  0  0  0  0  0  0  0  0
   68.4506   75.3892   92.2575 C   0  0  0  0  0  0  0  0  0  0  0  0
   68.7478   76.7873   92.8420 C   0  0  0  0  0  0  0  0  0  0  0  0
   68.0272   74.4707   93.4297 C   0  0  0  0  0  0  0  0  0  0  0  0
   69.7435   74.8011   91.6491 C   0  0  0  0  0  0  0  0  0  0  0  0
  8  9  1  0  0  0
  9 10  2  0  0  0
  9 11  1  0  0  0
 11  2  1  0  0  0
  2  3  2  0  0  0
  3  4  1  0  0  0
  4  5  2  0  0  0
  5  1  1  0  0  0
  1 17  1  0  0  0
 17 18  1  0  0  0
 18 19  2  0  0  0
 19 20  1  0  0  0
 20 24  1  0  0  0
 24 25  1  0  0  0
 24 26  1  0  0  0
 24 27  1  0  0  0
 20 21  2  0  0  0
 21 22  1  0  0  0
 22 28  1  0  0  0
 28 29  1  0  0  0
 28 30  1  0  0  0
 28 31  1  0  0  0
 22 23  2  0  0  0
  5  6  1  0  0  0
  6  7  2  0  0  0
  7 13  1  0  0  0
 13 14  2  0  0  0
 13 15  1  0  0  0
  7  2  1  0  0  0
 23 18  1  0  0  0
 11 12  1  0  0  0
 15 16  1  0  0  0
M  END
> <Activity>
29.4

> <minimizedAffinity>
-8.70245

$$$$
HIPS6276


 31 32  0  0  0  0  0  0  0  0999 V2000
   67.1692   78.3836   87.8439 O   0  0  0  0  0  0  0  0  0  0  0  0
   70.9443   80.2607   88.0840 C   0  0  0  0  0  0  0  0  0  0  0  0
   69.8314   80.9211   87.5480 C   0  0  0  0  0  0  0  0  0  0  0  0
   68.5943   80.2820   87.4709 C   0  0  0  0  0  0  0  0  0  0  0  0
   68.4409   78.9741   87.9344 C   0  0  0  0  0  0  0  0  0  0  0  0
   69.5519   78.3048   88.4800 C   0  0  0  0  0  0  0  0  0  0  0  0
   70.8009   78.9445   88.5897 C   0  0  0  0  0  0  0  0  0  0  0  0
   73.8421   82.6759   88.9411 C   0  0  0  0  0  0  0  0  0  0  0  0
   72.4942   82.0328   88.9632 C   0  0  0  0  0  0  0  0  0  0  0  0
   71.6304   82.4268   89.7933 O   0  0  0  0  0  0  0  0  0  0  0  0
   72.2082   80.9401   88.0784 N   0  0  0  0  0  0  0  0  0  0  0  0
   72.9029   80.6464   87.4457 H   0  0  0  0  0  0  0  0  0  0  0  0
   71.9074   78.2423   89.2849 C   0  0  0  0  0  0  0  0  0  0  0  0
   73.1054   78.4843   88.9751 O   0  0  0  0  0  0  0  0  0  0  0  0
   71.6387   77.2831   90.2576 O   0  0  0  0  0  0  0  0  0  0  0  0
   70.7528   77.0939   90.4969 H   0  0  0  0  0  0  0  0  0  0  0  0
   66.9168   77.0009   87.5869 C   0  0  0  0  0  0  0  0  0  0  0  0
   66.6514   76.2615   88.8743 C   0  0  0  0  0  0  0  0  0  0  0  0
   67.6552   76.1396   89.8422 C   0  0  0  0  0  0  0  0  0  0  0  0
   67.4035   75.5037   91.0756 C   0  0  0  0  0  0  0  0  0  0  0  0
   66.1147   74.9701   91.2915 C   0  0  0  0  0  0  0  0  0  0  0  0
   65.0923   75.0536   90.3217 C   0  0  0  0  0  0  0  0  0  0  0  0
   65.3866   75.7114   89.1093 C   0  0  0  0  0  0  0  0  0  0  0  0
   68.4683   75.3956   92.1887 C   0  0  0  0  0  0  0  0  0  0  0  0
   69.7911   74.7510   91.7073 C   0  0  0  0  0  0  0  0  0  0  0  0
   67.9216   74.5302   93.3455 C   0  0  0  0  0  0  0  0  0  0  0  0
   68.8030   76.8080   92.7165 C   0  0  0  0  0  0  0  0  0  0  0  0
   63.7034   74.4517   90.6264 C   0  0  0  0  0  0  0  0  0  0  0  0
   62.9259   75.4031   91.5618 C   0  0  0  0  0  0  0  0  0  0  0  0
   62.8423   74.2329   89.3584 C   0  0  0  0  0  0  0  0  0  0  0  0
   63.8737   73.0792   91.3155 C   0  0  0  0  0  0  0  0  0  0  0  0
  8  9  1  0  0  0
  9 10  2  0  0  0
  9 11  1  0  0  0
 11  2  1  0  0  0
  2  3  2  0  0  0
  3  4  1  0  0  0
  4  5  2  0  0  0
  5  1  1  0  0  0
  1 17  1  0  0  0
 17 18  1  0  0  0
 18 19  2  0  0  0
 19 20  1  0  0  0
 20 24  1  0  0  0
 24 25  1  0  0  0
 24 26  1  0  0  0
 24 27  1  0  0  0
 20 21  2  0  0  0
 21 22  1  0  0  0
 22 28  1  0  0  0
 28 29  1  0  0  0
 28 30  1  0  0  0
 28 31  1  0  0  0
 22 23  2  0  0  0
  5  6  1  0  0  0
  6  7  2  0  0  0
  7 13  1  0  0  0
 13 14  2  0  0  0
 13 15  1  0  0  0
  7  2  1  0  0  0
 23 18  1  0  0  0
 11 12  1  0  0  0
 15 16  1  0  0  0
M  END
> <Activity>
29.4

> <minimizedAffinity>
-8.69424

$$$$
HIPS6276


 31 32  0  0  0  0  0  0  0  0999 V2000
   69.1701   74.9726   92.5942 O   0  0  0  0  0  0  0  0  0  0  0  0
   68.6753   78.9171   94.0186 C   0  0  0  0  0  0  0  0  0  0  0  0
   69.7708   78.1327   94.4015 C   0  0  0  0  0  0  0  0  0  0  0  0
   69.9133   76.8295   93.9258 C   0  0  0  0  0  0  0  0  0  0  0  0
   68.9700   76.2857   93.0522 C   0  0  0  0  0  0  0  0  0  0  0  0
   67.8692   77.0683   92.6572 C   0  0  0  0  0  0  0  0  0  0  0  0
   67.7245   78.3942   93.1068 C   0  0  0  0  0  0  0  0  0  0  0  0
   67.9821   81.8185   96.4815 C   0  0  0  0  0  0  0  0  0  0  0  0
   68.0616   80.4346   95.9254 C   0  0  0  0  0  0  0  0  0  0  0  0
   67.7479   79.4530   96.6524 O   0  0  0  0  0  0  0  0  0  0  0  0
   68.5418   80.2268   94.5894 N   0  0  0  0  0  0  0  0  0  0  0  0
   68.7882   81.0097   94.0457 H   0  0  0  0  0  0  0  0  0  0  0  0
   66.6166   79.2183   92.5645 C   0  0  0  0  0  0  0  0  0  0  0  0
   66.6150   80.4679   92.7325 O   0  0  0  0  0  0  0  0  0  0  0  0
   65.5489   78.6219   91.8990 O   0  0  0  0  0  0  0  0  0  0  0  0
   65.5380   77.6942   91.7676 H   0  0  0  0  0  0  0  0  0  0  0  0
   68.1393   74.0822   92.1624 C   0  0  0  0  0  0  0  0  0  0  0  0
   67.2929   74.7281   91.0944 C   0  0  0  0  0  0  0  0  0  0  0  0
   65.9081   74.5255   91.0677 C   0  0  0  0  0  0  0  0  0  0  0  0
   65.0964   75.1709   90.1119 C   0  0  0  0  0  0  0  0  0  0  0  0
   65.7287   76.0064   89.1661 C   0  0  0  0  0  0  0  0  0  0  0  0
   67.1261   76.2063   89.1522 C   0  0  0  0  0  0  0  0  0  0  0  0
   67.8950   75.5511   90.1365 C   0  0  0  0  0  0  0  0  0  0  0  0
   63.5604   75.0143   90.0826 C   0  0  0  0  0  0  0  0  0  0  0  0
   62.9554   75.1960   88.6691 C   0  0  0  0  0  0  0  0  0  0  0  0
   62.9148   76.0711   91.0059 C   0  0  0  0  0  0  0  0  0  0  0  0
   63.1802   73.6003   90.5742 C   0  0  0  0  0  0  0  0  0  0  0  0
   67.7510   77.1380   88.0912 C   0  0  0  0  0  0  0  0  0  0  0  0
   67.4829   76.5642   86.6828 C   0  0  0  0  0  0  0  0  0  0  0  0
   67.1779   78.5758   88.1292 C   0  0  0  0  0  0  0  0  0  0  0  0
   69.2753   77.2384   88.3237 C   0  0  0  0  0  0  0  0  0  0  0  0
  8  9  1  0  0  0
  9 10  2  0  0  0
  9 11  1  0  0  0
 11  2  1  0  0  0
  2  3  2  0  0  0
  3  4  1  0  0  0
  4  5  2  0  0  0
  5  1  1  0  0  0
  1 17  1  0  0  0
 17 18  1  0  0  0
 18 19  2  0  0  0
 19 20  1  0  0  0
 20 24  1  0  0  0
 24 25  1  0  0  0
 24 26  1  0  0  0
 24 27  1  0  0  0
 20 21  2  0  0  0
 21 22  1  0  0  0
 22 28  1  0  0  0
 28 29  1  0  0  0
 28 30  1  0  0  0
 28 31  1  0  0  0
 22 23  2  0  0  0
  5  6  1  0  0  0
  6  7  2  0  0  0
  7 13  1  0  0  0
 13 14  2  0  0  0
 13 15  1  0  0  0
  7  2  1  0  0  0
 23 18  1  0  0  0
 11 12  1  0  0  0
 15 16  1  0  0  0
M  END
> <Activity>
29.4

> <minimizedAffinity>
-8.23356

$$$$
HIPS6276


 31 32  0  0  0  0  0  0  0  0999 V2000
   69.1731   74.9744   92.6114 O   0  0  0  0  0  0  0  0  0  0  0  0
   68.6751   78.9238   94.0211 C   0  0  0  0  0  0  0  0  0  0  0  0
   69.7729   78.1428   94.4044 C   0  0  0  0  0  0  0  0  0  0  0  0
   69.9164   76.8380   93.9336 C   0  0  0  0  0  0  0  0  0  0  0  0
   68.9718   76.2890   93.0646 C   0  0  0  0  0  0  0  0  0  0  0  0
   67.8687   77.0681   92.6693 C   0  0  0  0  0  0  0  0  0  0  0  0
   67.7229   78.3956   93.1139 C   0  0  0  0  0  0  0  0  0  0  0  0
   67.9786   81.8341   96.4726 C   0  0  0  0  0  0  0  0  0  0  0  0
   68.0590   80.4482   95.9217 C   0  0  0  0  0  0  0  0  0  0  0  0
   67.7446   79.4692   96.6519 O   0  0  0  0  0  0  0  0  0  0  0  0
   68.5408   80.2355   94.5870 N   0  0  0  0  0  0  0  0  0  0  0  0
   68.7877   81.0165   94.0407 H   0  0  0  0  0  0  0  0  0  0  0  0
   66.6121   79.2155   92.5711 C   0  0  0  0  0  0  0  0  0  0  0  0
   66.6075   80.4655   92.7362 O   0  0  0  0  0  0  0  0  0  0  0  0
   65.5452   78.6149   91.9082 O   0  0  0  0  0  0  0  0  0  0  0  0
   65.5366   77.6869   91.7790 H   0  0  0  0  0  0  0  0  0  0  0  0
   68.1523   74.1062   92.1155 C   0  0  0  0  0  0  0  0  0  0  0  0
   67.3040   74.8157   91.0901 C   0  0  0  0  0  0  0  0  0  0  0  0
   67.8959   75.6485   90.1333 C   0  0  0  0  0  0  0  0  0  0  0  0
   67.1225   76.2704   89.1313 C   0  0  0  0  0  0  0  0  0  0  0  0
   65.7286   76.0478   89.1410 C   0  0  0  0  0  0  0  0  0  0  0  0
   65.1018   75.2359   90.1109 C   0  0  0  0  0  0  0  0  0  0  0  0
   65.9182   74.6234   91.0843 C   0  0  0  0  0  0  0  0  0  0  0  0
   67.7446   77.1533   88.0277 C   0  0  0  0  0  0  0  0  0  0  0  0
   67.4711   76.6261   86.5980 C   0  0  0  0  0  0  0  0  0  0  0  0
   69.2764   77.2156   88.2170 C   0  0  0  0  0  0  0  0  0  0  0  0
   67.1564   78.5786   88.1195 C   0  0  0  0  0  0  0  0  0  0  0  0
   63.5721   75.0319   90.0592 C   0  0  0  0  0  0  0  0  0  0  0  0
   63.0779   75.2226   88.6086 C   0  0  0  0  0  0  0  0  0  0  0  0
   63.1289   73.6234   90.5247 C   0  0  0  0  0  0  0  0  0  0  0  0
   62.8807   76.0644   90.9776 C   0  0  0  0  0  0  0  0  0  0  0  0
  8  9  1  0  0  0
  9 10  2  0  0  0
  9 11  1  0  0  0
 11  2  1  0  0  0
  2  3  2  0  0  0
  3  4  1  0  0  0
  4  5  2  0  0  0
  5  1  1  0  0  0
  1 17  1  0  0  0
 17 18  1  0  0  0
 18 19  2  0  0  0
 19 20  1  0  0  0
 20 24  1  0  0  0
 24 25  1  0  0  0
 24 26  1  0  0  0
 24 27  1  0  0  0
 20 21  2  0  0  0
 21 22  1  0  0  0
 22 28  1  0  0  0
 28 29  1  0  0  0
 28 30  1  0  0  0
 28 31  1  0  0  0
 22 23  2  0  0  0
  5  6  1  0  0  0
  6  7  2  0  0  0
  7 13  1  0  0  0
 13 14  2  0  0  0
 13 15  1  0  0  0
  7  2  1  0  0  0
 23 18  1  0  0  0
 11 12  1  0  0  0
 15 16  1  0  0  0
M  END
> <Activity>
29.4

> <minimizedAffinity>
-8.11784

$$$$
HIPS6276


 31 32  0  0  0  0  0  0  0  0999 V2000
   67.7203   76.7211   87.5051 O   0  0  0  0  0  0  0  0  0  0  0  0
   69.8921   80.2691   88.2318 C   0  0  0  0  0  0  0  0  0  0  0  0
   70.3228   79.0325   88.7292 C   0  0  0  0  0  0  0  0  0  0  0  0
   69.5882   77.8727   88.4844 C   0  0  0  0  0  0  0  0  0  0  0  0
   68.4135   77.9221   87.7316 C   0  0  0  0  0  0  0  0  0  0  0  0
   67.9762   79.1590   87.2227 C   0  0  0  0  0  0  0  0  0  0  0  0
   68.7198   80.3345   87.4380 C   0  0  0  0  0  0  0  0  0  0  0  0
   72.8195   82.7009   88.9257 C   0  0  0  0  0  0  0  0  0  0  0  0
   72.0832   81.4408   88.6079 C   0  0  0  0  0  0  0  0  0  0  0  0
   72.7309   80.3948   88.3309 O   0  0  0  0  0  0  0  0  0  0  0  0
   70.6489   81.4406   88.5691 N   0  0  0  0  0  0  0  0  0  0  0  0
   70.1675   82.2728   88.7812 H   0  0  0  0  0  0  0  0  0  0  0  0
   68.2846   81.5892   86.7769 C   0  0  0  0  0  0  0  0  0  0  0  0
   68.9210   82.0368   85.7848 O   0  0  0  0  0  0  0  0  0  0  0  0
   67.1956   82.3069   87.2642 O   0  0  0  0  0  0  0  0  0  0  0  0
   66.7143   81.9853   88.0009 H   0  0  0  0  0  0  0  0  0  0  0  0
   66.3433   76.4920   87.8102 C   0  0  0  0  0  0  0  0  0  0  0  0
   66.1993   75.8606   89.1722 C   0  0  0  0  0  0  0  0  0  0  0  0
   65.0542   75.1229   89.4945 C   0  0  0  0  0  0  0  0  0  0  0  0
   64.9322   74.4765   90.7420 C   0  0  0  0  0  0  0  0  0  0  0  0
   65.9901   74.6201   91.6654 C   0  0  0  0  0  0  0  0  0  0  0  0
   67.1435   75.3814   91.3776 C   0  0  0  0  0  0  0  0  0  0  0  0
   67.2270   75.9975   90.1116 C   0  0  0  0  0  0  0  0  0  0  0  0
   63.7088   73.6110   91.1148 C   0  0  0  0  0  0  0  0  0  0  0  0
   62.5610   73.6989   90.0796 C   0  0  0  0  0  0  0  0  0  0  0  0
   63.1448   74.0717   92.4770 C   0  0  0  0  0  0  0  0  0  0  0  0
   64.1385   72.1305   91.2099 C   0  0  0  0  0  0  0  0  0  0  0  0
   68.2651   75.4923   92.4330 C   0  0  0  0  0  0  0  0  0  0  0  0
   68.1939   76.8765   93.1138 C   0  0  0  0  0  0  0  0  0  0  0  0
   68.1658   74.4177   93.5432 C   0  0  0  0  0  0  0  0  0  0  0  0
   69.6398   75.3270   91.7471 C   0  0  0  0  0  0  0  0  0  0  0  0
  8  9  1  0  0  0
  9 10  2  0  0  0
  9 11  1  0  0  0
 11  2  1  0  0  0
  2  3  2  0  0  0
  3  4  1  0  0  0
  4  5  2  0  0  0
  5  1  1  0  0  0
  1 17  1  0  0  0
 17 18  1  0  0  0
 18 19  2  0  0  0
 19 20  1  0  0  0
 20 24  1  0  0  0
 24 25  1  0  0  0
 24 26  1  0  0  0
 24 27  1  0  0  0
 20 21  2  0  0  0
 21 22  1  0  0  0
 22 28  1  0  0  0
 28 29  1  0  0  0
 28 30  1  0  0  0
 28 31  1  0  0  0
 22 23  2  0  0  0
  5  6  1  0  0  0
  6  7  2  0  0  0
  7 13  1  0  0  0
 13 14  2  0  0  0
 13 15  1  0  0  0
  7  2  1  0  0  0
 23 18  1  0  0  0
 11 12  1  0  0  0
 15 16  1  0  0  0
M  END
> <Activity>
29.4

> <minimizedAffinity>
-7.80677

$$$$
HIPS6276


 31 32  0  0  0  0  0  0  0  0999 V2000
   67.6388   76.6229   87.2718 O   0  0  0  0  0  0  0  0  0  0  0  0
   69.7841   80.1489   88.1652 C   0  0  0  0  0  0  0  0  0  0  0  0
   70.1888   78.9014   88.6573 C   0  0  0  0  0  0  0  0  0  0  0  0
   69.4632   77.7490   88.3569 C   0  0  0  0  0  0  0  0  0  0  0  0
   68.3240   77.8169   87.5528 C   0  0  0  0  0  0  0  0  0  0  0  0
   67.9132   79.0649   87.0490 C   0  0  0  0  0  0  0  0  0  0  0  0
   68.6492   80.2336   87.3205 C   0  0  0  0  0  0  0  0  0  0  0  0
   72.6839   82.5812   88.9650 C   0  0  0  0  0  0  0  0  0  0  0  0
   71.9622   81.3298   88.5854 C   0  0  0  0  0  0  0  0  0  0  0  0
   72.6217   80.3098   88.2462 O   0  0  0  0  0  0  0  0  0  0  0  0
   70.5278   81.3110   88.5592 N   0  0  0  0  0  0  0  0  0  0  0  0
   70.0369   82.1234   88.8205 H   0  0  0  0  0  0  0  0  0  0  0  0
   68.2474   81.5023   86.6651 C   0  0  0  0  0  0  0  0  0  0  0  0
   67.7548   82.4405   87.3484 O   0  0  0  0  0  0  0  0  0  0  0  0
   68.3726   81.6598   85.2875 O   0  0  0  0  0  0  0  0  0  0  0  0
   68.7370   80.9702   84.7683 H   0  0  0  0  0  0  0  0  0  0  0  0
   66.2589   76.3772   87.5500 C   0  0  0  0  0  0  0  0  0  0  0  0
   66.0903   75.8053   88.9352 C   0  0  0  0  0  0  0  0  0  0  0  0
   67.1387   75.8672   89.8606 C   0  0  0  0  0  0  0  0  0  0  0  0
   66.9756   75.3911   91.1781 C   0  0  0  0  0  0  0  0  0  0  0  0
   65.7298   74.8254   91.5253 C   0  0  0  0  0  0  0  0  0  0  0  0
   64.6650   74.7244   90.6041 C   0  0  0  0  0  0  0  0  0  0  0  0
   64.8703   75.2271   89.3024 C   0  0  0  0  0  0  0  0  0  0  0  0
   68.0901   75.4893   92.2424 C   0  0  0  0  0  0  0  0  0  0  0  0
   67.9706   76.7473   93.1369 C   0  0  0  0  0  0  0  0  0  0  0  0
   69.4678   75.5412   91.5458 C   0  0  0  0  0  0  0  0  0  0  0  0
   68.0268   74.2529   93.1660 C   0  0  0  0  0  0  0  0  0  0  0  0
   63.3270   74.0979   91.0531 C   0  0  0  0  0  0  0  0  0  0  0  0
   63.6020   72.7525   91.7594 C   0  0  0  0  0  0  0  0  0  0  0  0
   62.5356   74.9921   92.0386 C   0  0  0  0  0  0  0  0  0  0  0  0
   62.4284   73.8566   89.8195 C   0  0  0  0  0  0  0  0  0  0  0  0
  8  9  1  0  0  0
  9 10  2  0  0  0
  9 11  1  0  0  0
 11  2  1  0  0  0
  2  3  2  0  0  0
  3  4  1  0  0  0
  4  5  2  0  0  0
  5  1  1  0  0  0
  1 17  1  0  0  0
 17 18  1  0  0  0
 18 19  2  0  0  0
 19 20  1  0  0  0
 20 24  1  0  0  0
 24 25  1  0  0  0
 24 26  1  0  0  0
 24 27  1  0  0  0
 20 21  2  0  0  0
 21 22  1  0  0  0
 22 28  1  0  0  0
 28 29  1  0  0  0
 28 30  1  0  0  0
 28 31  1  0  0  0
 22 23  2  0  0  0
  5  6  1  0  0  0
  6  7  2  0  0  0
  7 13  1  0  0  0
 13 14  2  0  0  0
 13 15  1  0  0  0
  7  2  1  0  0  0
 23 18  1  0  0  0
 11 12  1  0  0  0
 15 16  1  0  0  0
M  END
> <Activity>
29.4

> <minimizedAffinity>
-7.71998

$$$$
HIPS6276


 31 32  0  0  0  0  0  0  0  0999 V2000
   69.3003   74.9435   89.2207 O   0  0  0  0  0  0  0  0  0  0  0  0
   65.4780   74.9084   91.0156 C   0  0  0  0  0  0  0  0  0  0  0  0
   66.5736   74.2733   91.6143 C   0  0  0  0  0  0  0  0  0  0  0  0
   67.8268   74.2900   91.0027 C   0  0  0  0  0  0  0  0  0  0  0  0
   68.0138   74.9476   89.7855 C   0  0  0  0  0  0  0  0  0  0  0  0
   66.9204   75.5935   89.1794 C   0  0  0  0  0  0  0  0  0  0  0  0
   65.6554   75.6090   89.7964 C   0  0  0  0  0  0  0  0  0  0  0  0
   62.1765   73.5032   92.4612 C   0  0  0  0  0  0  0  0  0  0  0  0
   63.4884   73.5600   91.7495 C   0  0  0  0  0  0  0  0  0  0  0  0
   63.9858   72.5022   91.2762 O   0  0  0  0  0  0  0  0  0  0  0  0
   64.1971   74.8039   91.6537 N   0  0  0  0  0  0  0  0  0  0  0  0
   63.7905   75.6135   92.0390 H   0  0  0  0  0  0  0  0  0  0  0  0
   64.5673   76.4078   89.1809 C   0  0  0  0  0  0  0  0  0  0  0  0
   64.0898   77.4035   89.7894 O   0  0  0  0  0  0  0  0  0  0  0  0
   64.0346   76.0481   87.9459 O   0  0  0  0  0  0  0  0  0  0  0  0
   64.3804   75.3101   87.4835 H   0  0  0  0  0  0  0  0  0  0  0  0
   70.4296   75.6535   89.7328 C   0  0  0  0  0  0  0  0  0  0  0  0
   70.0575   77.0780   90.0596 C   0  0  0  0  0  0  0  0  0  0  0  0
   70.5233   78.1327   89.2659 C   0  0  0  0  0  0  0  0  0  0  0  0
   70.1348   79.4638   89.5233 C   0  0  0  0  0  0  0  0  0  0  0  0
   69.2829   79.7012   90.6234 C   0  0  0  0  0  0  0  0  0  0  0  0
   68.8211   78.6600   91.4573 C   0  0  0  0  0  0  0  0  0  0  0  0
   69.2247   77.3435   91.1520 C   0  0  0  0  0  0  0  0  0  0  0  0
   70.5850   80.6478   88.6399 C   0  0  0  0  0  0  0  0  0  0  0  0
   69.6966   80.8471   87.3877 C   0  0  0  0  0  0  0  0  0  0  0  0
   72.0313   80.4093   88.1527 C   0  0  0  0  0  0  0  0  0  0  0  0
   70.5283   81.9527   89.4643 C   0  0  0  0  0  0  0  0  0  0  0  0
   67.8870   78.9909   92.6415 C   0  0  0  0  0  0  0  0  0  0  0  0
   68.0000   77.8815   93.7096 C   0  0  0  0  0  0  0  0  0  0  0  0
   68.2248   80.3378   93.3263 C   0  0  0  0  0  0  0  0  0  0  0  0
   66.4275   79.0763   92.1415 C   0  0  0  0  0  0  0  0  0  0  0  0
  8  9  1  0  0  0
  9 10  2  0  0  0
  9 11  1  0  0  0
 11  2  1  0  0  0
  2  3  2  0  0  0
  3  4  1  0  0  0
  4  5  2  0  0  0
  5  1  1  0  0  0
  1 17  1  0  0  0
 17 18  1  0  0  0
 18 19  2  0  0  0
 19 20  1  0  0  0
 20 24  1  0  0  0
 24 25  1  0  0  0
 24 26  1  0  0  0
 24 27  1  0  0  0
 20 21  2  0  0  0
 21 22  1  0  0  0
 22 28  1  0  0  0
 28 29  1  0  0  0
 28 30  1  0  0  0
 28 31  1  0  0  0
 22 23  2  0  0  0
  5  6  1  0  0  0
  6  7  2  0  0  0
  7 13  1  0  0  0
 13 14  2  0  0  0
 13 15  1  0  0  0
  7  2  1  0  0  0
 23 18  1  0  0  0
 11 12  1  0  0  0
 15 16  1  0  0  0
M  END
> <Activity>
29.4

> <minimizedAffinity>
-7.49610

$$$$
HIPS6276


 31 32  0  0  0  0  0  0  0  0999 V2000
   66.9957   79.2870   92.3354 O   0  0  0  0  0  0  0  0  0  0  0  0
   69.6776   76.0260   92.4123 C   0  0  0  0  0  0  0  0  0  0  0  0
   68.6565   76.1563   93.3623 C   0  0  0  0  0  0  0  0  0  0  0  0
   67.7847   77.2442   93.3244 C   0  0  0  0  0  0  0  0  0  0  0  0
   67.9091   78.2195   92.3333 C   0  0  0  0  0  0  0  0  0  0  0  0
   68.9283   78.0938   91.3712 C   0  0  0  0  0  0  0  0  0  0  0  0
   69.7996   76.9884   91.3790 C   0  0  0  0  0  0  0  0  0  0  0  0
   71.1283   72.4606   92.7970 C   0  0  0  0  0  0  0  0  0  0  0  0
   70.1357   73.5735   92.7143 C   0  0  0  0  0  0  0  0  0  0  0  0
   68.9027   73.3120   92.7559 O   0  0  0  0  0  0  0  0  0  0  0  0
   70.5878   74.9237   92.5367 N   0  0  0  0  0  0  0  0  0  0  0  0
   71.5556   75.0998   92.4988 H   0  0  0  0  0  0  0  0  0  0  0  0
   70.7755   76.8370   90.2721 C   0  0  0  0  0  0  0  0  0  0  0  0
   70.8754   75.7387   89.6608 O   0  0  0  0  0  0  0  0  0  0  0  0
   71.6175   77.8884   89.9198 O   0  0  0  0  0  0  0  0  0  0  0  0
   71.5534   78.7096   90.3663 H   0  0  0  0  0  0  0  0  0  0  0  0
   65.6549   79.2279   91.8449 C   0  0  0  0  0  0  0  0  0  0  0  0
   65.5281   78.1757   90.7719 C   0  0  0  0  0  0  0  0  0  0  0  0
   66.3857   78.1837   89.6657 C   0  0  0  0  0  0  0  0  0  0  0  0
   66.3187   77.1720   88.6854 C   0  0  0  0  0  0  0  0  0  0  0  0
   65.3407   76.1662   88.8417 C   0  0  0  0  0  0  0  0  0  0  0  0
   64.4445   76.1495   89.9322 C   0  0  0  0  0  0  0  0  0  0  0  0
   64.5591   77.1740   90.8947 C   0  0  0  0  0  0  0  0  0  0  0  0
   67.2811   77.1169   87.4791 C   0  0  0  0  0  0  0  0  0  0  0  0
   66.5494   77.1030   86.1148 C   0  0  0  0  0  0  0  0  0  0  0  0
   68.1403   75.8358   87.5607 C   0  0  0  0  0  0  0  0  0  0  0  0
   68.2023   78.3565   87.5015 C   0  0  0  0  0  0  0  0  0  0  0  0
   63.4019   75.0159   90.0431 C   0  0  0  0  0  0  0  0  0  0  0  0
   64.0918   73.7329   90.5556 C   0  0  0  0  0  0  0  0  0  0  0  0
   62.2433   75.3462   91.0155 C   0  0  0  0  0  0  0  0  0  0  0  0
   62.7810   74.7458   88.6542 C   0  0  0  0  0  0  0  0  0  0  0  0
  8  9  1  0  0  0
  9 10  2  0  0  0
  9 11  1  0  0  0
 11  2  1  0  0  0
  2  3  2  0  0  0
  3  4  1  0  0  0
  4  5  2  0  0  0
  5  1  1  0  0  0
  1 17  1  0  0  0
 17 18  1  0  0  0
 18 19  2  0  0  0
 19 20  1  0  0  0
 20 24  1  0  0  0
 24 25  1  0  0  0
 24 26  1  0  0  0
 24 27  1  0  0  0
 20 21  2  0  0  0
 21 22  1  0  0  0
 22 28  1  0  0  0
 28 29  1  0  0  0
 28 30  1  0  0  0
 28 31  1  0  0  0
 22 23  2  0  0  0
  5  6  1  0  0  0
  6  7  2  0  0  0
  7 13  1  0  0  0
 13 14  2  0  0  0
 13 15  1  0  0  0
  7  2  1  0  0  0
 23 18  1  0  0  0
 11 12  1  0  0  0
 15 16  1  0  0  0
M  END
> <Activity>
29.4

> <minimizedAffinity>
-7.49015

$$$$
HIPS6276


 31 32  0  0  0  0  0  0  0  0999 V2000
   69.2347   74.9267   89.2260 O   0  0  0  0  0  0  0  0  0  0  0  0
   65.4625   74.7648   91.1173 C   0  0  0  0  0  0  0  0  0  0  0  0
   66.5823   74.1232   91.6618 C   0  0  0  0  0  0  0  0  0  0  0  0
   67.8184   74.1824   91.0187 C   0  0  0  0  0  0  0  0  0  0  0  0
   67.9638   74.8896   89.8239 C   0  0  0  0  0  0  0  0  0  0  0  0
   66.8457   75.5424   89.2725 C   0  0  0  0  0  0  0  0  0  0  0  0
   65.5975   75.5150   89.9224 C   0  0  0  0  0  0  0  0  0  0  0  0
   62.2269   73.2530   92.6038 C   0  0  0  0  0  0  0  0  0  0  0  0
   63.5187   73.3564   91.8613 C   0  0  0  0  0  0  0  0  0  0  0  0
   64.0241   72.3228   91.3450 O   0  0  0  0  0  0  0  0  0  0  0  0
   64.2006   74.6165   91.7841 N   0  0  0  0  0  0  0  0  0  0  0  0
   63.7886   75.4064   92.2030 H   0  0  0  0  0  0  0  0  0  0  0  0
   64.4825   76.3208   89.3675 C   0  0  0  0  0  0  0  0  0  0  0  0
   63.6027   75.7750   88.6479 O   0  0  0  0  0  0  0  0  0  0  0  0
   64.4133   77.6917   89.6008 O   0  0  0  0  0  0  0  0  0  0  0  0
   65.0610   78.1095   90.1337 H   0  0  0  0  0  0  0  0  0  0  0  0
   70.3525   75.6755   89.7071 C   0  0  0  0  0  0  0  0  0  0  0  0
   69.9469   77.0946   90.0172 C   0  0  0  0  0  0  0  0  0  0  0  0
   69.1196   77.3729   91.1115 C   0  0  0  0  0  0  0  0  0  0  0  0
   68.7814   78.6997   91.4493 C   0  0  0  0  0  0  0  0  0  0  0  0
   69.2817   79.7362   90.6321 C   0  0  0  0  0  0  0  0  0  0  0  0
   70.0945   79.4825   89.5061 C   0  0  0  0  0  0  0  0  0  0  0  0
   70.4179   78.1406   89.2162 C   0  0  0  0  0  0  0  0  0  0  0  0
   67.9151   79.0505   92.6785 C   0  0  0  0  0  0  0  0  0  0  0  0
   68.2937   80.4052   93.3253 C   0  0  0  0  0  0  0  0  0  0  0  0
   68.0795   77.9566   93.7567 C   0  0  0  0  0  0  0  0  0  0  0  0
   66.4326   79.1350   92.2532 C   0  0  0  0  0  0  0  0  0  0  0  0
   70.6111   80.6652   88.6585 C   0  0  0  0  0  0  0  0  0  0  0  0
   70.5190   81.9669   89.4841 C   0  0  0  0  0  0  0  0  0  0  0  0
   72.0836   80.4967   88.2105 C   0  0  0  0  0  0  0  0  0  0  0  0
   69.7498   80.8035   87.3832 C   0  0  0  0  0  0  0  0  0  0  0  0
  8  9  1  0  0  0
  9 10  2  0  0  0
  9 11  1  0  0  0
 11  2  1  0  0  0
  2  3  2  0  0  0
  3  4  1  0  0  0
  4  5  2  0  0  0
  5  1  1  0  0  0
  1 17  1  0  0  0
 17 18  1  0  0  0
 18 19  2  0  0  0
 19 20  1  0  0  0
 20 24  1  0  0  0
 24 25  1  0  0  0
 24 26  1  0  0  0
 24 27  1  0  0  0
 20 21  2  0  0  0
 21 22  1  0  0  0
 22 28  1  0  0  0
 28 29  1  0  0  0
 28 30  1  0  0  0
 28 31  1  0  0  0
 22 23  2  0  0  0
  5  6  1  0  0  0
  6  7  2  0  0  0
  7 13  1  0  0  0
 13 14  2  0  0  0
 13 15  1  0  0  0
  7  2  1  0  0  0
 23 18  1  0  0  0
 11 12  1  0  0  0
 15 16  1  0  0  0
M  END
> <Activity>
29.4

> <minimizedAffinity>
-7.43901

$$$$
HIPS6276


 31 32  0  0  0  0  0  0  0  0999 V2000
   66.9934   79.2552   92.3593 O   0  0  0  0  0  0  0  0  0  0  0  0
   69.7161   76.0272   92.3730 C   0  0  0  0  0  0  0  0  0  0  0  0
   68.7361   76.1623   93.3648 C   0  0  0  0  0  0  0  0  0  0  0  0
   67.8502   77.2392   93.3471 C   0  0  0  0  0  0  0  0  0  0  0  0
   67.9190   78.1985   92.3351 C   0  0  0  0  0  0  0  0  0  0  0  0
   68.8964   78.0678   91.3312 C   0  0  0  0  0  0  0  0  0  0  0  0
   69.7807   76.9728   91.3193 C   0  0  0  0  0  0  0  0  0  0  0  0
   71.2266   72.4880   92.7691 C   0  0  0  0  0  0  0  0  0  0  0  0
   70.2182   73.5883   92.7122 C   0  0  0  0  0  0  0  0  0  0  0  0
   68.9924   73.3154   92.8276 O   0  0  0  0  0  0  0  0  0  0  0  0
   70.6443   74.9379   92.4758 N   0  0  0  0  0  0  0  0  0  0  0  0
   71.6066   75.1227   92.3808 H   0  0  0  0  0  0  0  0  0  0  0  0
   70.7089   76.8134   90.1731 C   0  0  0  0  0  0  0  0  0  0  0  0
   71.3923   77.7932   89.7698 O   0  0  0  0  0  0  0  0  0  0  0  0
   70.8096   75.5957   89.5058 O   0  0  0  0  0  0  0  0  0  0  0  0
   70.3071   74.8598   89.7955 H   0  0  0  0  0  0  0  0  0  0  0  0
   65.6713   79.2079   91.8195 C   0  0  0  0  0  0  0  0  0  0  0  0
   65.5588   78.1159   90.7854 C   0  0  0  0  0  0  0  0  0  0  0  0
   64.5946   77.1100   90.9181 C   0  0  0  0  0  0  0  0  0  0  0  0
   64.4378   76.1171   89.9288 C   0  0  0  0  0  0  0  0  0  0  0  0
   65.3027   76.1547   88.8139 C   0  0  0  0  0  0  0  0  0  0  0  0
   66.3025   77.1407   88.6686 C   0  0  0  0  0  0  0  0  0  0  0  0
   66.4119   78.1212   89.6765 C   0  0  0  0  0  0  0  0  0  0  0  0
   63.3519   75.0224   90.0132 C   0  0  0  0  0  0  0  0  0  0  0  0
   63.8967   73.6592   90.5051 C   0  0  0  0  0  0  0  0  0  0  0  0
   62.7315   74.8002   88.6161 C   0  0  0  0  0  0  0  0  0  0  0  0
   62.2507   75.4681   91.0002 C   0  0  0  0  0  0  0  0  0  0  0  0
   67.2114   77.1246   87.4205 C   0  0  0  0  0  0  0  0  0  0  0  0
   68.0943   75.8579   87.4450 C   0  0  0  0  0  0  0  0  0  0  0  0
   66.4197   77.1192   86.0899 C   0  0  0  0  0  0  0  0  0  0  0  0
   68.1129   78.3795   87.4203 C   0  0  0  0  0  0  0  0  0  0  0  0
  8  9  1  0  0  0
  9 10  2  0  0  0
  9 11  1  0  0  0
 11  2  1  0  0  0
  2  3  2  0  0  0
  3  4  1  0  0  0
  4  5  2  0  0  0
  5  1  1  0  0  0
  1 17  1  0  0  0
 17 18  1  0  0  0
 18 19  2  0  0  0
 19 20  1  0  0  0
 20 24  1  0  0  0
 24 25  1  0  0  0
 24 26  1  0  0  0
 24 27  1  0  0  0
 20 21  2  0  0  0
 21 22  1  0  0  0
 22 28  1  0  0  0
 28 29  1  0  0  0
 28 30  1  0  0  0
 28 31  1  0  0  0
 22 23  2  0  0  0
  5  6  1  0  0  0
  6  7  2  0  0  0
  7 13  1  0  0  0
 13 14  2  0  0  0
 13 15  1  0  0  0
  7  2  1  0  0  0
 23 18  1  0  0  0
 11 12  1  0  0  0
 15 16  1  0  0  0
M  END
> <Activity>
29.4

> <minimizedAffinity>
-7.33211

$$$$
HIPS7022


 39 41  0  0  0  0  0  0  0  0999 V2000
   69.9138   77.2099   90.2205 C   0  0  0  0  0  0  0  0  0  0  0  0
   69.4150   77.3767   91.4764 N   0  0  0  0  0  0  0  0  0  0  0  0
   68.7804   76.3670   92.1252 C   0  0  0  0  0  0  0  0  0  0  0  0
   68.6359   75.1204   91.5084 C   0  0  0  0  0  0  0  0  0  0  0  0
   69.1358   74.9705   90.2104 C   0  0  0  0  0  0  0  0  0  0  0  0
   69.7647   76.0076   89.6000 N   0  0  0  0  0  0  0  0  0  0  0  0
   70.5646   80.4379   88.3070 C   0  0  0  0  0  0  0  0  0  0  0  0
   71.9695   80.4182   88.2367 C   0  0  0  0  0  0  0  0  0  0  0  0
   72.6904   79.3654   88.8005 C   0  0  0  0  0  0  0  0  0  0  0  0
   72.0251   78.3246   89.4487 C   0  0  0  0  0  0  0  0  0  0  0  0
   70.6219   78.3235   89.5416 C   0  0  0  0  0  0  0  0  0  0  0  0
   69.9023   79.3899   88.9675 C   0  0  0  0  0  0  0  0  0  0  0  0
   69.7878   81.5017   87.7251 N   0  0  0  0  0  0  0  0  0  0  0  0
   70.0789   82.4277   87.8890 H   0  0  0  0  0  0  0  0  0  0  0  0
   68.3710   81.2552   86.7529 S   0  0  0  0  0  0  0  0  0  0  0  0
   68.6746   81.6061   85.3241 O   0  0  0  0  0  0  0  0  0  0  0  0
   67.2826   82.1666   87.2452 O   0  0  0  0  0  0  0  0  0  0  0  0
   67.8169   79.5598   86.9312 C   0  0  0  0  0  0  0  0  0  0  0  0
   67.0505   79.0456   85.7007 C   0  0  0  0  0  0  0  0  0  0  0  0
   66.8053   77.5219   85.6738 C   0  0  0  0  0  0  0  0  0  0  0  0
   67.2359   76.7532   86.9383 C   0  0  0  0  0  0  0  0  0  0  0  0
   66.1094   76.6109   87.9756 C   0  0  0  0  0  0  0  0  0  0  0  0
   66.5588   77.0415   89.3821 C   0  0  0  0  0  0  0  0  0  0  0  0
   66.1892   78.7784   91.1835 C   0  0  0  0  0  0  0  0  0  0  0  0
   66.1948   78.5050   89.6809 C   0  0  0  0  0  0  0  0  0  0  0  0
   67.9476   73.9857   92.2190 C   0  0  0  0  0  0  0  0  0  0  0  0
   66.9791   73.3684   91.3690 O   0  0  0  0  0  0  0  0  0  0  0  0
   65.6106   73.6860   91.3307 C   0  0  0  0  0  0  0  0  0  0  0  0
   64.6897   72.6512   91.5089 C   0  0  0  0  0  0  0  0  0  0  0  0
   63.3195   72.9065   91.4699 C   0  0  0  0  0  0  0  0  0  0  0  0
   62.8438   74.2071   91.2548 C   0  0  0  0  0  0  0  0  0  0  0  0
   61.4686   74.4337   91.2219 O   0  0  0  0  0  0  0  0  0  0  0  0
   63.7581   75.2710   91.0783 C   0  0  0  0  0  0  0  0  0  0  0  0
   65.1397   74.9963   91.1226 C   0  0  0  0  0  0  0  0  0  0  0  0
   60.8732   73.7199   91.3403 H   0  0  0  0  0  0  0  0  0  0  0  0
   63.2958   76.6638   90.8453 C   0  0  0  0  0  0  0  0  0  0  0  0
   63.1617   77.4587   91.8146 O   0  0  0  0  0  0  0  0  0  0  0  0
   63.0095   77.1155   89.5600 O   0  0  0  0  0  0  0  0  0  0  0  0
   63.1040   76.5376   88.8285 H   0  0  0  0  0  0  0  0  0  0  0  0
 24 25  1  0  0  0
 25 23  1  0  0  0
 23 22  1  0  0  0
 22 21  1  0  0  0
 21 20  1  0  0  0
 20 19  1  0  0  0
 19 18  1  0  0  0
 18 15  1  0  0  0
 15 16  2  0  0  0
 15 17  2  0  0  0
 15 13  1  0  0  0
 13  7  1  0  0  0
  7  8  2  0  0  0
  8  9  1  0  0  0
  9 10  2  0  0  0
 10 11  1  0  0  0
 11  1  1  0  0  0
  1  2  2  0  0  0
  2  3  2  0  0  0
  3  4  2  0  0  0
  4 26  1  0  0  0
 26 27  1  0  0  0
 27 28  1  0  0  0
 28 29  2  0  0  0
 29 30  1  0  0  0
 30 31  2  0  0  0
 31 32  1  0  0  0
 31 33  1  0  0  0
 33 36  1  0  0  0
 36 37  2  0  0  0
 36 38  1  0  0  0
 33 34  2  0  0  0
  4  5  1  0  0  0
  5  6  2  0  0  0
 11 12  2  0  0  0
 12  7  1  0  0  0
  6  1  2  0  0  0
 34 28  1  0  0  0
 13 14  1  0  0  0
 32 35  1  0  0  0
 38 39  1  0  0  0
M  END
> <Activity>
30.7

> <minimizedAffinity>
-8.87989

$$$$
HIPS7022


 39 41  0  0  0  0  0  0  0  0999 V2000
   67.8975   77.1726   88.7886 C   0  0  0  0  0  0  0  0  0  0  0  0
   68.2552   75.9306   88.3604 N   0  0  0  0  0  0  0  0  0  0  0  0
   68.1917   74.8531   89.1837 C   0  0  0  0  0  0  0  0  0  0  0  0
   67.7427   75.0032   90.4995 C   0  0  0  0  0  0  0  0  0  0  0  0
   67.3978   76.2886   90.9308 C   0  0  0  0  0  0  0  0  0  0  0  0
   67.4757   77.3376   90.0723 N   0  0  0  0  0  0  0  0  0  0  0  0
   68.8649   80.5227   87.2568 C   0  0  0  0  0  0  0  0  0  0  0  0
   68.0447   80.5310   86.1138 C   0  0  0  0  0  0  0  0  0  0  0  0
   67.1870   79.4625   85.8520 C   0  0  0  0  0  0  0  0  0  0  0  0
   67.1405   78.3690   86.7170 C   0  0  0  0  0  0  0  0  0  0  0  0
   67.9561   78.3303   87.8620 C   0  0  0  0  0  0  0  0  0  0  0  0
   68.8176   79.4149   88.1194 C   0  0  0  0  0  0  0  0  0  0  0  0
   69.7524   81.6139   87.5652 N   0  0  0  0  0  0  0  0  0  0  0  0
   69.7957   82.3660   86.9314 H   0  0  0  0  0  0  0  0  0  0  0  0
   70.7506   81.6879   88.9835 S   0  0  0  0  0  0  0  0  0  0  0  0
   70.1295   82.6173   89.9872 O   0  0  0  0  0  0  0  0  0  0  0  0
   72.0965   82.2342   88.5991 O   0  0  0  0  0  0  0  0  0  0  0  0
   70.9740   80.0344   89.6385 C   0  0  0  0  0  0  0  0  0  0  0  0
   72.0879   79.2505   88.9238 C   0  0  0  0  0  0  0  0  0  0  0  0
   72.1132   77.7357   89.2195 C   0  0  0  0  0  0  0  0  0  0  0  0
   70.9942   77.2161   90.1429 C   0  0  0  0  0  0  0  0  0  0  0  0
   71.3348   75.8752   90.8148 C   0  0  0  0  0  0  0  0  0  0  0  0
   71.0908   75.9091   92.3330 C   0  0  0  0  0  0  0  0  0  0  0  0
   69.8567   77.3671   93.9912 C   0  0  0  0  0  0  0  0  0  0  0  0
   69.7531   76.5788   92.6872 C   0  0  0  0  0  0  0  0  0  0  0  0
   67.6525   73.8167   91.4216 C   0  0  0  0  0  0  0  0  0  0  0  0
   66.4856   73.0421   91.1384 O   0  0  0  0  0  0  0  0  0  0  0  0
   65.1816   73.5514   91.0155 C   0  0  0  0  0  0  0  0  0  0  0  0
   64.1320   72.8131   91.5668 C   0  0  0  0  0  0  0  0  0  0  0  0
   62.8169   73.2650   91.4653 C   0  0  0  0  0  0  0  0  0  0  0  0
   62.5270   74.4700   90.8112 C   0  0  0  0  0  0  0  0  0  0  0  0
   61.2030   74.8984   90.7257 O   0  0  0  0  0  0  0  0  0  0  0  0
   63.5745   75.2369   90.2512 C   0  0  0  0  0  0  0  0  0  0  0  0
   64.8983   74.7670   90.3643 C   0  0  0  0  0  0  0  0  0  0  0  0
   60.5180   74.3808   91.1010 H   0  0  0  0  0  0  0  0  0  0  0  0
   63.3103   76.5186   89.5473 C   0  0  0  0  0  0  0  0  0  0  0  0
   63.9342   77.5636   89.8758 O   0  0  0  0  0  0  0  0  0  0  0  0
   62.3789   76.5873   88.5149 O   0  0  0  0  0  0  0  0  0  0  0  0
   61.9065   75.8199   88.2582 H   0  0  0  0  0  0  0  0  0  0  0  0
 24 25  1  0  0  0
 25 23  1  0  0  0
 23 22  1  0  0  0
 22 21  1  0  0  0
 21 20  1  0  0  0
 20 19  1  0  0  0
 19 18  1  0  0  0
 18 15  1  0  0  0
 15 16  2  0  0  0
 15 17  2  0  0  0
 15 13  1  0  0  0
 13  7  1  0  0  0
  7  8  2  0  0  0
  8  9  1  0  0  0
  9 10  2  0  0  0
 10 11  1  0  0  0
 11  1  1  0  0  0
  1  2  2  0  0  0
  2  3  2  0  0  0
  3  4  2  0  0  0
  4 26  1  0  0  0
 26 27  1  0  0  0
 27 28  1  0  0  0
 28 29  2  0  0  0
 29 30  1  0  0  0
 30 31  2  0  0  0
 31 32  1  0  0  0
 31 33  1  0  0  0
 33 36  1  0  0  0
 36 37  2  0  0  0
 36 38  1  0  0  0
 33 34  2  0  0  0
  4  5  1  0  0  0
  5  6  2  0  0  0
 11 12  2  0  0  0
 12  7  1  0  0  0
  6  1  2  0  0  0
 34 28  1  0  0  0
 13 14  1  0  0  0
 32 35  1  0  0  0
 38 39  1  0  0  0
M  END
> <Activity>
30.7

> <minimizedAffinity>
-8.28193

$$$$
HIPS7022


 39 41  0  0  0  0  0  0  0  0999 V2000
   69.9728   76.7906   90.5908 C   0  0  0  0  0  0  0  0  0  0  0  0
   69.4437   78.0264   90.8068 N   0  0  0  0  0  0  0  0  0  0  0  0
   69.9523   79.1295   90.2005 C   0  0  0  0  0  0  0  0  0  0  0  0
   71.0366   79.0099   89.3255 C   0  0  0  0  0  0  0  0  0  0  0  0
   71.5820   77.7365   89.1294 C   0  0  0  0  0  0  0  0  0  0  0  0
   71.0400   76.6608   89.7559 N   0  0  0  0  0  0  0  0  0  0  0  0
   67.5833   73.9496   91.4419 C   0  0  0  0  0  0  0  0  0  0  0  0
   68.2645   73.3523   92.5182 C   0  0  0  0  0  0  0  0  0  0  0  0
   69.4808   73.8728   92.9606 C   0  0  0  0  0  0  0  0  0  0  0  0
   70.0394   74.9867   92.3336 C   0  0  0  0  0  0  0  0  0  0  0  0
   69.3845   75.5981   91.2497 C   0  0  0  0  0  0  0  0  0  0  0  0
   68.1556   75.0668   90.8111 C   0  0  0  0  0  0  0  0  0  0  0  0
   66.3200   73.4473   90.9672 N   0  0  0  0  0  0  0  0  0  0  0  0
   66.2627   72.4931   90.7314 H   0  0  0  0  0  0  0  0  0  0  0  0
   64.8918   74.4168   90.7842 S   0  0  0  0  0  0  0  0  0  0  0  0
   64.5650   75.0817   92.0912 O   0  0  0  0  0  0  0  0  0  0  0  0
   63.7454   73.5219   90.4066 O   0  0  0  0  0  0  0  0  0  0  0  0
   65.1454   75.6034   89.4649 C   0  0  0  0  0  0  0  0  0  0  0  0
   64.7795   77.0411   89.8714 C   0  0  0  0  0  0  0  0  0  0  0  0
   65.9503   77.8813   90.4243 C   0  0  0  0  0  0  0  0  0  0  0  0
   65.6178   78.7766   91.6339 C   0  0  0  0  0  0  0  0  0  0  0  0
   66.8574   79.1801   92.4499 C   0  0  0  0  0  0  0  0  0  0  0  0
   67.4540   77.9921   93.2235 C   0  0  0  0  0  0  0  0  0  0  0  0
   68.7099   79.8842   94.3374 C   0  0  0  0  0  0  0  0  0  0  0  0
   68.7103   78.3915   94.0145 C   0  0  0  0  0  0  0  0  0  0  0  0
   71.6040   80.2205   88.6338 C   0  0  0  0  0  0  0  0  0  0  0  0
   70.5580   81.0508   88.1256 O   0  0  0  0  0  0  0  0  0  0  0  0
   69.4490   80.6018   87.3885 C   0  0  0  0  0  0  0  0  0  0  0  0
   68.8273   81.5025   86.5207 C   0  0  0  0  0  0  0  0  0  0  0  0
   67.7165   81.1148   85.7725 C   0  0  0  0  0  0  0  0  0  0  0  0
   67.2076   79.8132   85.8763 C   0  0  0  0  0  0  0  0  0  0  0  0
   66.0964   79.4525   85.1154 O   0  0  0  0  0  0  0  0  0  0  0  0
   67.8250   78.8829   86.7438 C   0  0  0  0  0  0  0  0  0  0  0  0
   68.9481   79.2902   87.4913 C   0  0  0  0  0  0  0  0  0  0  0  0
   65.6965   80.0785   84.5443 H   0  0  0  0  0  0  0  0  0  0  0  0
   67.3157   77.4942   86.8853 C   0  0  0  0  0  0  0  0  0  0  0  0
   67.8874   76.6847   87.6646 O   0  0  0  0  0  0  0  0  0  0  0  0
   66.2017   77.0657   86.1688 O   0  0  0  0  0  0  0  0  0  0  0  0
   65.7651   77.6546   85.5853 H   0  0  0  0  0  0  0  0  0  0  0  0
 24 25  1  0  0  0
 25 23  1  0  0  0
 23 22  1  0  0  0
 22 21  1  0  0  0
 21 20  1  0  0  0
 20 19  1  0  0  0
 19 18  1  0  0  0
 18 15  1  0  0  0
 15 16  2  0  0  0
 15 17  2  0  0  0
 15 13  1  0  0  0
 13  7  1  0  0  0
  7  8  2  0  0  0
  8  9  1  0  0  0
  9 10  2  0  0  0
 10 11  1  0  0  0
 11  1  1  0  0  0
  1  2  2  0  0  0
  2  3  2  0  0  0
  3  4  2  0  0  0
  4 26  1  0  0  0
 26 27  1  0  0  0
 27 28  1  0  0  0
 28 29  2  0  0  0
 29 30  1  0  0  0
 30 31  2  0  0  0
 31 32  1  0  0  0
 31 33  1  0  0  0
 33 36  1  0  0  0
 36 37  2  0  0  0
 36 38  1  0  0  0
 33 34  2  0  0  0
  4  5  1  0  0  0
  5  6  2  0  0  0
 11 12  2  0  0  0
 12  7  1  0  0  0
  6  1  2  0  0  0
 34 28  1  0  0  0
 13 14  1  0  0  0
 32 35  1  0  0  0
 38 39  1  0  0  0
M  END
> <Activity>
30.7

> <minimizedAffinity>
-7.90528

$$$$
HIPS7022


 39 41  0  0  0  0  0  0  0  0999 V2000
   69.9981   76.9313   90.6743 C   0  0  0  0  0  0  0  0  0  0  0  0
   71.0176   77.0100   89.7753 N   0  0  0  0  0  0  0  0  0  0  0  0
   71.3224   78.1768   89.1517 C   0  0  0  0  0  0  0  0  0  0  0  0
   70.5894   79.3336   89.4346 C   0  0  0  0  0  0  0  0  0  0  0  0
   69.5322   79.2324   90.3453 C   0  0  0  0  0  0  0  0  0  0  0  0
   69.2639   78.0448   90.9463 N   0  0  0  0  0  0  0  0  0  0  0  0
   68.1922   73.7624   91.7705 C   0  0  0  0  0  0  0  0  0  0  0  0
   69.1298   73.2298   92.6741 C   0  0  0  0  0  0  0  0  0  0  0  0
   70.3286   73.8979   92.9240 C   0  0  0  0  0  0  0  0  0  0  0  0
   70.6144   75.0980   92.2726 C   0  0  0  0  0  0  0  0  0  0  0  0
   69.6992   75.6484   91.3577 C   0  0  0  0  0  0  0  0  0  0  0  0
   68.4903   74.9676   91.1132 C   0  0  0  0  0  0  0  0  0  0  0  0
   66.9395   73.1067   91.4982 N   0  0  0  0  0  0  0  0  0  0  0  0
   66.9236   72.1223   91.5044 H   0  0  0  0  0  0  0  0  0  0  0  0
   65.4554   73.9412   91.1598 S   0  0  0  0  0  0  0  0  0  0  0  0
   65.5059   74.5131   89.7715 O   0  0  0  0  0  0  0  0  0  0  0  0
   65.3047   75.0739   92.1353 O   0  0  0  0  0  0  0  0  0  0  0  0
   64.0783   72.8149   91.3791 C   0  0  0  0  0  0  0  0  0  0  0  0
   63.2714   73.0944   92.6585 C   0  0  0  0  0  0  0  0  0  0  0  0
   61.8912   73.7468   92.4306 C   0  0  0  0  0  0  0  0  0  0  0  0
   61.5675   74.1350   90.9747 C   0  0  0  0  0  0  0  0  0  0  0  0
   62.2840   75.4155   90.5139 C   0  0  0  0  0  0  0  0  0  0  0  0
   62.3891   75.5014   88.9818 C   0  0  0  0  0  0  0  0  0  0  0  0
   61.6497   73.5830   87.5083 C   0  0  0  0  0  0  0  0  0  0  0  0
   61.2011   74.8203   88.2832 C   0  0  0  0  0  0  0  0  0  0  0  0
   70.9230   80.6390   88.7630 C   0  0  0  0  0  0  0  0  0  0  0  0
   69.8108   81.1173   88.0040 O   0  0  0  0  0  0  0  0  0  0  0  0
   68.8846   80.3101   87.3218 C   0  0  0  0  0  0  0  0  0  0  0  0
   68.3097   80.8126   86.1523 C   0  0  0  0  0  0  0  0  0  0  0  0
   67.3766   80.0598   85.4404 C   0  0  0  0  0  0  0  0  0  0  0  0
   67.0030   78.7844   85.8850 C   0  0  0  0  0  0  0  0  0  0  0  0
   66.0686   78.0532   85.1527 O   0  0  0  0  0  0  0  0  0  0  0  0
   67.5770   78.2532   87.0629 C   0  0  0  0  0  0  0  0  0  0  0  0
   68.5200   79.0262   87.7695 C   0  0  0  0  0  0  0  0  0  0  0  0
   65.6957   78.4167   84.3737 H   0  0  0  0  0  0  0  0  0  0  0  0
   67.2067   76.9065   87.5702 C   0  0  0  0  0  0  0  0  0  0  0  0
   68.1020   76.0577   87.8298 O   0  0  0  0  0  0  0  0  0  0  0  0
   65.8733   76.5614   87.7720 O   0  0  0  0  0  0  0  0  0  0  0  0
   65.1955   77.1804   87.5840 H   0  0  0  0  0  0  0  0  0  0  0  0
 24 25  1  0  0  0
 25 23  1  0  0  0
 23 22  1  0  0  0
 22 21  1  0  0  0
 21 20  1  0  0  0
 20 19  1  0  0  0
 19 18  1  0  0  0
 18 15  1  0  0  0
 15 16  2  0  0  0
 15 17  2  0  0  0
 15 13  1  0  0  0
 13  7  1  0  0  0
  7  8  2  0  0  0
  8  9  1  0  0  0
  9 10  2  0  0  0
 10 11  1  0  0  0
 11  1  1  0  0  0
  1  2  2  0  0  0
  2  3  2  0  0  0
  3  4  2  0  0  0
  4 26  1  0  0  0
 26 27  1  0  0  0
 27 28  1  0  0  0
 28 29  2  0  0  0
 29 30  1  0  0  0
 30 31  2  0  0  0
 31 32  1  0  0  0
 31 33  1  0  0  0
 33 36  1  0  0  0
 36 37  2  0  0  0
 36 38  1  0  0  0
 33 34  2  0  0  0
  4  5  1  0  0  0
  5  6  2  0  0  0
 11 12  2  0  0  0
 12  7  1  0  0  0
  6  1  2  0  0  0
 34 28  1  0  0  0
 13 14  1  0  0  0
 32 35  1  0  0  0
 38 39  1  0  0  0
M  END
> <Activity>
30.7

> <minimizedAffinity>
-7.84190

$$$$
HIPS7022


 39 41  0  0  0  0  0  0  0  0999 V2000
   66.7789   77.9810   88.2905 C   0  0  0  0  0  0  0  0  0  0  0  0
   66.9565   76.6589   88.0177 N   0  0  0  0  0  0  0  0  0  0  0  0
   66.3901   75.6954   88.7884 C   0  0  0  0  0  0  0  0  0  0  0  0
   65.5970   76.0516   89.8836 C   0  0  0  0  0  0  0  0  0  0  0  0
   65.4403   77.4135   90.1630 C   0  0  0  0  0  0  0  0  0  0  0  0
   66.0245   78.3430   89.3641 N   0  0  0  0  0  0  0  0  0  0  0  0
   68.9539   80.8749   87.1075 C   0  0  0  0  0  0  0  0  0  0  0  0
   68.5319   80.9857   85.7700 C   0  0  0  0  0  0  0  0  0  0  0  0
   67.5500   80.1327   85.2660 C   0  0  0  0  0  0  0  0  0  0  0  0
   66.9823   79.1535   86.0815 C   0  0  0  0  0  0  0  0  0  0  0  0
   67.3918   79.0146   87.4196 C   0  0  0  0  0  0  0  0  0  0  0  0
   68.3826   79.8820   87.9204 C   0  0  0  0  0  0  0  0  0  0  0  0
   69.9554   81.7467   87.6647 N   0  0  0  0  0  0  0  0  0  0  0  0
   70.2748   82.4952   87.1107 H   0  0  0  0  0  0  0  0  0  0  0  0
   70.6356   81.5619   89.2511 S   0  0  0  0  0  0  0  0  0  0  0  0
   70.1582   80.2718   89.8553 O   0  0  0  0  0  0  0  0  0  0  0  0
   70.1611   82.6957   90.1154 O   0  0  0  0  0  0  0  0  0  0  0  0
   72.4231   81.6389   89.1428 C   0  0  0  0  0  0  0  0  0  0  0  0
   73.0225   80.5088   88.2886 C   0  0  0  0  0  0  0  0  0  0  0  0
   73.1798   79.1553   89.0137 C   0  0  0  0  0  0  0  0  0  0  0  0
   72.1471   78.0736   88.6415 C   0  0  0  0  0  0  0  0  0  0  0  0
   71.5022   77.4025   89.8659 C   0  0  0  0  0  0  0  0  0  0  0  0
   70.0734   76.9140   89.5736 C   0  0  0  0  0  0  0  0  0  0  0  0
   71.1549   74.8207   90.4939 C   0  0  0  0  0  0  0  0  0  0  0  0
   69.9233   75.4011   89.8017 C   0  0  0  0  0  0  0  0  0  0  0  0
   64.9498   74.9964   90.7402 C   0  0  0  0  0  0  0  0  0  0  0  0
   65.8831   74.4665   91.6836 O   0  0  0  0  0  0  0  0  0  0  0  0
   66.9704   75.1670   92.2330 C   0  0  0  0  0  0  0  0  0  0  0  0
   68.0231   74.4272   92.7762 C   0  0  0  0  0  0  0  0  0  0  0  0
   69.1225   75.0696   93.3443 C   0  0  0  0  0  0  0  0  0  0  0  0
   69.1908   76.4690   93.3763 C   0  0  0  0  0  0  0  0  0  0  0  0
   70.3027   77.0847   93.9495 O   0  0  0  0  0  0  0  0  0  0  0  0
   68.1395   77.2380   92.8265 C   0  0  0  0  0  0  0  0  0  0  0  0
   67.0365   76.5731   92.2542 C   0  0  0  0  0  0  0  0  0  0  0  0
   70.9927   76.5636   94.3104 H   0  0  0  0  0  0  0  0  0  0  0  0
   68.1713   78.7235   92.8422 C   0  0  0  0  0  0  0  0  0  0  0  0
   68.2374   79.3456   93.9367 O   0  0  0  0  0  0  0  0  0  0  0  0
   68.1346   79.4509   91.6558 O   0  0  0  0  0  0  0  0  0  0  0  0
   68.0854   79.0042   90.8336 H   0  0  0  0  0  0  0  0  0  0  0  0
 24 25  1  0  0  0
 25 23  1  0  0  0
 23 22  1  0  0  0
 22 21  1  0  0  0
 21 20  1  0  0  0
 20 19  1  0  0  0
 19 18  1  0  0  0
 18 15  1  0  0  0
 15 16  2  0  0  0
 15 17  2  0  0  0
 15 13  1  0  0  0
 13  7  1  0  0  0
  7  8  2  0  0  0
  8  9  1  0  0  0
  9 10  2  0  0  0
 10 11  1  0  0  0
 11  1  1  0  0  0
  1  2  2  0  0  0
  2  3  2  0  0  0
  3  4  2  0  0  0
  4 26  1  0  0  0
 26 27  1  0  0  0
 27 28  1  0  0  0
 28 29  2  0  0  0
 29 30  1  0  0  0
 30 31  2  0  0  0
 31 32  1  0  0  0
 31 33  1  0  0  0
 33 36  1  0  0  0
 36 37  2  0  0  0
 36 38  1  0  0  0
 33 34  2  0  0  0
  4  5  1  0  0  0
  5  6  2  0  0  0
 11 12  2  0  0  0
 12  7  1  0  0  0
  6  1  2  0  0  0
 34 28  1  0  0  0
 13 14  1  0  0  0
 32 35  1  0  0  0
 38 39  1  0  0  0
M  END
> <Activity>
30.7

> <minimizedAffinity>
-7.71272

$$$$
HIPS7022


 39 41  0  0  0  0  0  0  0  0999 V2000
   66.7543   78.2770   88.2707 C   0  0  0  0  0  0  0  0  0  0  0  0
   66.6050   76.9732   87.9075 N   0  0  0  0  0  0  0  0  0  0  0  0
   65.9636   76.0847   88.7090 C   0  0  0  0  0  0  0  0  0  0  0  0
   65.4312   76.5033   89.9324 C   0  0  0  0  0  0  0  0  0  0  0  0
   65.6102   77.8410   90.3008 C   0  0  0  0  0  0  0  0  0  0  0  0
   66.2574   78.6951   89.4670 N   0  0  0  0  0  0  0  0  0  0  0  0
   69.2351   80.8468   86.9491 C   0  0  0  0  0  0  0  0  0  0  0  0
   68.7233   81.0591   85.6560 C   0  0  0  0  0  0  0  0  0  0  0  0
   67.5844   80.3779   85.2262 C   0  0  0  0  0  0  0  0  0  0  0  0
   66.9458   79.4709   86.0722 C   0  0  0  0  0  0  0  0  0  0  0  0
   67.4411   79.2326   87.3666 C   0  0  0  0  0  0  0  0  0  0  0  0
   68.5906   79.9268   87.7926 C   0  0  0  0  0  0  0  0  0  0  0  0
   70.4007   81.5420   87.4305 N   0  0  0  0  0  0  0  0  0  0  0  0
   70.8110   82.2162   86.8420 H   0  0  0  0  0  0  0  0  0  0  0  0
   71.1284   81.2670   88.9823 S   0  0  0  0  0  0  0  0  0  0  0  0
   70.0926   81.4273   90.0585 O   0  0  0  0  0  0  0  0  0  0  0  0
   72.2035   82.2937   89.2006 O   0  0  0  0  0  0  0  0  0  0  0  0
   71.8822   79.6409   89.0041 C   0  0  0  0  0  0  0  0  0  0  0  0
   70.8542   78.5037   89.1304 C   0  0  0  0  0  0  0  0  0  0  0  0
   70.4994   78.1019   90.5779 C   0  0  0  0  0  0  0  0  0  0  0  0
   69.0787   78.4731   91.0455 C   0  0  0  0  0  0  0  0  0  0  0  0
   68.8107   78.1154   92.5172 C   0  0  0  0  0  0  0  0  0  0  0  0
   68.2238   79.2996   93.3038 C   0  0  0  0  0  0  0  0  0  0  0  0
   68.6457   80.9513   95.1727 C   0  0  0  0  0  0  0  0  0  0  0  0
   69.0208   79.5922   94.5855 C   0  0  0  0  0  0  0  0  0  0  0  0
   64.7047   75.5347   90.8269 C   0  0  0  0  0  0  0  0  0  0  0  0
   65.4848   75.2310   91.9848 O   0  0  0  0  0  0  0  0  0  0  0  0
   66.8694   74.9907   91.9924 C   0  0  0  0  0  0  0  0  0  0  0  0
   67.4657   74.6167   93.1987 C   0  0  0  0  0  0  0  0  0  0  0  0
   68.8375   74.3762   93.2673 C   0  0  0  0  0  0  0  0  0  0  0  0
   69.6399   74.5021   92.1253 C   0  0  0  0  0  0  0  0  0  0  0  0
   71.0085   74.2542   92.2226 O   0  0  0  0  0  0  0  0  0  0  0  0
   69.0564   74.8734   90.8922 C   0  0  0  0  0  0  0  0  0  0  0  0
   67.6683   75.1109   90.8396 C   0  0  0  0  0  0  0  0  0  0  0  0
   71.3828   74.0089   93.0458 H   0  0  0  0  0  0  0  0  0  0  0  0
   69.8716   75.0205   89.6585 C   0  0  0  0  0  0  0  0  0  0  0  0
   71.0984   74.7305   89.6698 O   0  0  0  0  0  0  0  0  0  0  0  0
   69.2980   75.4732   88.4735 O   0  0  0  0  0  0  0  0  0  0  0  0
   68.3875   75.6931   88.4479 H   0  0  0  0  0  0  0  0  0  0  0  0
 24 25  1  0  0  0
 25 23  1  0  0  0
 23 22  1  0  0  0
 22 21  1  0  0  0
 21 20  1  0  0  0
 20 19  1  0  0  0
 19 18  1  0  0  0
 18 15  1  0  0  0
 15 16  2  0  0  0
 15 17  2  0  0  0
 15 13  1  0  0  0
 13  7  1  0  0  0
  7  8  2  0  0  0
  8  9  1  0  0  0
  9 10  2  0  0  0
 10 11  1  0  0  0
 11  1  1  0  0  0
  1  2  2  0  0  0
  2  3  2  0  0  0
  3  4  2  0  0  0
  4 26  1  0  0  0
 26 27  1  0  0  0
 27 28  1  0  0  0
 28 29  2  0  0  0
 29 30  1  0  0  0
 30 31  2  0  0  0
 31 32  1  0  0  0
 31 33  1  0  0  0
 33 36  1  0  0  0
 36 37  2  0  0  0
 36 38  1  0  0  0
 33 34  2  0  0  0
  4  5  1  0  0  0
  5  6  2  0  0  0
 11 12  2  0  0  0
 12  7  1  0  0  0
  6  1  2  0  0  0
 34 28  1  0  0  0
 13 14  1  0  0  0
 32 35  1  0  0  0
 38 39  1  0  0  0
M  END
> <Activity>
30.7

> <minimizedAffinity>
-7.70970

$$$$
HIPS7022


 39 41  0  0  0  0  0  0  0  0999 V2000
   69.6565   76.5136   90.7042 C   0  0  0  0  0  0  0  0  0  0  0  0
   69.2197   77.7689   90.9994 N   0  0  0  0  0  0  0  0  0  0  0  0
   69.8063   78.8674   90.4585 C   0  0  0  0  0  0  0  0  0  0  0  0
   70.8768   78.7233   89.5704 C   0  0  0  0  0  0  0  0  0  0  0  0
   71.3271   77.4282   89.2926 C   0  0  0  0  0  0  0  0  0  0  0  0
   70.7094   76.3582   89.8555 N   0  0  0  0  0  0  0  0  0  0  0  0
   67.0962   73.7695   91.3525 C   0  0  0  0  0  0  0  0  0  0  0  0
   67.7048   73.0968   92.4279 C   0  0  0  0  0  0  0  0  0  0  0  0
   68.9278   73.5362   92.9349 C   0  0  0  0  0  0  0  0  0  0  0  0
   69.5653   74.6430   92.3741 C   0  0  0  0  0  0  0  0  0  0  0  0
   68.9841   75.3287   91.2926 C   0  0  0  0  0  0  0  0  0  0  0  0
   67.7478   74.8789   90.7886 C   0  0  0  0  0  0  0  0  0  0  0  0
   65.8285   73.3518   90.8124 N   0  0  0  0  0  0  0  0  0  0  0  0
   65.8350   72.7726   90.0163 H   0  0  0  0  0  0  0  0  0  0  0  0
   64.2893   73.8046   91.4753 S   0  0  0  0  0  0  0  0  0  0  0  0
   64.3651   75.2068   92.0092 O   0  0  0  0  0  0  0  0  0  0  0  0
   63.9625   72.8797   92.6134 O   0  0  0  0  0  0  0  0  0  0  0  0
   63.0257   73.6260   90.2166 C   0  0  0  0  0  0  0  0  0  0  0  0
   62.0860   74.8409   90.1321 C   0  0  0  0  0  0  0  0  0  0  0  0
   62.4177   75.8461   89.0086 C   0  0  0  0  0  0  0  0  0  0  0  0
   63.6856   75.5377   88.1886 C   0  0  0  0  0  0  0  0  0  0  0  0
   64.9609   76.1549   88.7869 C   0  0  0  0  0  0  0  0  0  0  0  0
   64.6473   77.3055   89.7582 C   0  0  0  0  0  0  0  0  0  0  0  0
   65.7743   78.7932   91.4656 C   0  0  0  0  0  0  0  0  0  0  0  0
   65.8980   78.1344   90.0932 C   0  0  0  0  0  0  0  0  0  0  0  0
   71.5296   79.9298   88.9505 C   0  0  0  0  0  0  0  0  0  0  0  0
   70.5457   80.8507   88.4755 O   0  0  0  0  0  0  0  0  0  0  0  0
   69.4591   80.5239   87.6464 C   0  0  0  0  0  0  0  0  0  0  0  0
   68.8696   81.5469   86.9003 C   0  0  0  0  0  0  0  0  0  0  0  0
   67.7818   81.2822   86.0691 C   0  0  0  0  0  0  0  0  0  0  0  0
   67.2643   79.9840   85.9660 C   0  0  0  0  0  0  0  0  0  0  0  0
   66.1767   79.7479   85.1262 O   0  0  0  0  0  0  0  0  0  0  0  0
   67.8494   78.9318   86.7073 C   0  0  0  0  0  0  0  0  0  0  0  0
   68.9495   79.2158   87.5411 C   0  0  0  0  0  0  0  0  0  0  0  0
   65.7981   80.4540   84.6403 H   0  0  0  0  0  0  0  0  0  0  0  0
   67.3300   77.5418   86.6288 C   0  0  0  0  0  0  0  0  0  0  0  0
   67.8669   76.6242   87.3063 O   0  0  0  0  0  0  0  0  0  0  0  0
   66.2442   77.2304   85.8151 O   0  0  0  0  0  0  0  0  0  0  0  0
   65.8335   77.9005   85.3050 H   0  0  0  0  0  0  0  0  0  0  0  0
 24 25  1  0  0  0
 25 23  1  0  0  0
 23 22  1  0  0  0
 22 21  1  0  0  0
 21 20  1  0  0  0
 20 19  1  0  0  0
 19 18  1  0  0  0
 18 15  1  0  0  0
 15 16  2  0  0  0
 15 17  2  0  0  0
 15 13  1  0  0  0
 13  7  1  0  0  0
  7  8  2  0  0  0
  8  9  1  0  0  0
  9 10  2  0  0  0
 10 11  1  0  0  0
 11  1  1  0  0  0
  1  2  2  0  0  0
  2  3  2  0  0  0
  3  4  2  0  0  0
  4 26  1  0  0  0
 26 27  1  0  0  0
 27 28  1  0  0  0
 28 29  2  0  0  0
 29 30  1  0  0  0
 30 31  2  0  0  0
 31 32  1  0  0  0
 31 33  1  0  0  0
 33 36  1  0  0  0
 36 37  2  0  0  0
 36 38  1  0  0  0
 33 34  2  0  0  0
  4  5  1  0  0  0
  5  6  2  0  0  0
 11 12  2  0  0  0
 12  7  1  0  0  0
  6  1  2  0  0  0
 34 28  1  0  0  0
 13 14  1  0  0  0
 32 35  1  0  0  0
 38 39  1  0  0  0
M  END
> <Activity>
30.7

> <minimizedAffinity>
-7.57237

$$$$
HIPS7022


 39 41  0  0  0  0  0  0  0  0999 V2000
   70.3251   77.0948   90.2312 C   0  0  0  0  0  0  0  0  0  0  0  0
   70.4324   76.9664   91.5824 N   0  0  0  0  0  0  0  0  0  0  0  0
   69.8491   75.9339   92.2434 C   0  0  0  0  0  0  0  0  0  0  0  0
   69.1273   74.9682   91.5351 C   0  0  0  0  0  0  0  0  0  0  0  0
   69.0091   75.1246   90.1498 C   0  0  0  0  0  0  0  0  0  0  0  0
   69.6104   76.1725   89.5302 N   0  0  0  0  0  0  0  0  0  0  0  0
   70.8520   80.2910   88.2282 C   0  0  0  0  0  0  0  0  0  0  0  0
   72.2573   80.3404   88.1848 C   0  0  0  0  0  0  0  0  0  0  0  0
   73.0184   79.3434   88.7952 C   0  0  0  0  0  0  0  0  0  0  0  0
   72.3931   78.2907   89.4638 C   0  0  0  0  0  0  0  0  0  0  0  0
   70.9902   78.2214   89.5305 C   0  0  0  0  0  0  0  0  0  0  0  0
   70.2298   79.2317   88.9093 C   0  0  0  0  0  0  0  0  0  0  0  0
   70.0349   81.2955   87.5984 N   0  0  0  0  0  0  0  0  0  0  0  0
   70.3217   82.2346   87.6702 H   0  0  0  0  0  0  0  0  0  0  0  0
   68.5763   80.9563   86.7204 S   0  0  0  0  0  0  0  0  0  0  0  0
   68.8020   81.2046   85.2560 O   0  0  0  0  0  0  0  0  0  0  0  0
   67.4969   81.8854   87.1992 O   0  0  0  0  0  0  0  0  0  0  0  0
   68.0635   79.2708   87.0508 C   0  0  0  0  0  0  0  0  0  0  0  0
   66.8316   79.1865   87.9680 C   0  0  0  0  0  0  0  0  0  0  0  0
   66.9884   78.2538   89.1879 C   0  0  0  0  0  0  0  0  0  0  0  0
   66.4139   78.7866   90.5150 C   0  0  0  0  0  0  0  0  0  0  0  0
   67.1599   78.2627   91.7537 C   0  0  0  0  0  0  0  0  0  0  0  0
   67.8172   79.3974   92.5574 C   0  0  0  0  0  0  0  0  0  0  0  0
   68.9211   80.0608   94.7345 C   0  0  0  0  0  0  0  0  0  0  0  0
   68.3827   78.9017   93.8983 C   0  0  0  0  0  0  0  0  0  0  0  0
   68.4862   73.8090   92.2503 C   0  0  0  0  0  0  0  0  0  0  0  0
   67.1677   74.1478   92.6845 O   0  0  0  0  0  0  0  0  0  0  0  0
   66.0089   74.0832   91.8921 C   0  0  0  0  0  0  0  0  0  0  0  0
   65.3265   72.8666   91.8220 C   0  0  0  0  0  0  0  0  0  0  0  0
   64.1770   72.7419   91.0427 C   0  0  0  0  0  0  0  0  0  0  0  0
   63.6854   73.8369   90.3195 C   0  0  0  0  0  0  0  0  0  0  0  0
   62.5332   73.6840   89.5495 O   0  0  0  0  0  0  0  0  0  0  0  0
   64.3565   75.0798   90.3808 C   0  0  0  0  0  0  0  0  0  0  0  0
   65.5156   75.1896   91.1747 C   0  0  0  0  0  0  0  0  0  0  0  0
   62.0978   72.8549   89.5174 H   0  0  0  0  0  0  0  0  0  0  0  0
   63.8701   76.2648   89.6276 C   0  0  0  0  0  0  0  0  0  0  0  0
   63.4822   77.2936   90.2444 O   0  0  0  0  0  0  0  0  0  0  0  0
   63.8393   76.2629   88.2359 O   0  0  0  0  0  0  0  0  0  0  0  0
   64.1241   75.5064   87.7620 H   0  0  0  0  0  0  0  0  0  0  0  0
 24 25  1  0  0  0
 25 23  1  0  0  0
 23 22  1  0  0  0
 22 21  1  0  0  0
 21 20  1  0  0  0
 20 19  1  0  0  0
 19 18  1  0  0  0
 18 15  1  0  0  0
 15 16  2  0  0  0
 15 17  2  0  0  0
 15 13  1  0  0  0
 13  7  1  0  0  0
  7  8  2  0  0  0
  8  9  1  0  0  0
  9 10  2  0  0  0
 10 11  1  0  0  0
 11  1  1  0  0  0
  1  2  2  0  0  0
  2  3  2  0  0  0
  3  4  2  0  0  0
  4 26  1  0  0  0
 26 27  1  0  0  0
 27 28  1  0  0  0
 28 29  2  0  0  0
 29 30  1  0  0  0
 30 31  2  0  0  0
 31 32  1  0  0  0
 31 33  1  0  0  0
 33 36  1  0  0  0
 36 37  2  0  0  0
 36 38  1  0  0  0
 33 34  2  0  0  0
  4  5  1  0  0  0
  5  6  2  0  0  0
 11 12  2  0  0  0
 12  7  1  0  0  0
  6  1  2  0  0  0
 34 28  1  0  0  0
 13 14  1  0  0  0
 32 35  1  0  0  0
 38 39  1  0  0  0
M  END
> <Activity>
30.7

> <minimizedAffinity>
-7.54506

$$$$
HIPS7022


 39 41  0  0  0  0  0  0  0  0999 V2000
   68.1087   77.0462   89.1351 C   0  0  0  0  0  0  0  0  0  0  0  0
   67.8684   75.7750   88.7104 N   0  0  0  0  0  0  0  0  0  0  0  0
   67.8301   74.7338   89.5807 C   0  0  0  0  0  0  0  0  0  0  0  0
   68.0303   74.9559   90.9467 C   0  0  0  0  0  0  0  0  0  0  0  0
   68.2960   76.2642   91.3652 C   0  0  0  0  0  0  0  0  0  0  0  0
   68.3237   77.2753   90.4595 N   0  0  0  0  0  0  0  0  0  0  0  0
   69.0677   80.2924   87.3894 C   0  0  0  0  0  0  0  0  0  0  0  0
   68.1327   80.3068   86.3383 C   0  0  0  0  0  0  0  0  0  0  0  0
   67.2023   79.2760   86.2062 C   0  0  0  0  0  0  0  0  0  0  0  0
   67.1953   78.2141   87.1109 C   0  0  0  0  0  0  0  0  0  0  0  0
   68.1244   78.1696   88.1656 C   0  0  0  0  0  0  0  0  0  0  0  0
   69.0590   79.2162   88.2922 C   0  0  0  0  0  0  0  0  0  0  0  0
   70.0338   81.3459   87.5638 N   0  0  0  0  0  0  0  0  0  0  0  0
   70.1516   81.9896   86.8282 H   0  0  0  0  0  0  0  0  0  0  0  0
   71.0039   81.5533   88.9883 S   0  0  0  0  0  0  0  0  0  0  0  0
   70.1468   82.0690   90.1092 O   0  0  0  0  0  0  0  0  0  0  0  0
   72.0729   82.5693   88.7012 O   0  0  0  0  0  0  0  0  0  0  0  0
   71.7936   79.9976   89.3997 C   0  0  0  0  0  0  0  0  0  0  0  0
   72.3822   79.2798   88.1732 C   0  0  0  0  0  0  0  0  0  0  0  0
   73.9238   79.2154   88.1318 C   0  0  0  0  0  0  0  0  0  0  0  0
   74.6579   80.1111   89.1485 C   0  0  0  0  0  0  0  0  0  0  0  0
   75.4036   81.2868   88.4950 C   0  0  0  0  0  0  0  0  0  0  0  0
   74.6171   82.6041   88.6032 C   0  0  0  0  0  0  0  0  0  0  0  0
   74.5766   84.8259   87.3946 C   0  0  0  0  0  0  0  0  0  0  0  0
   75.4460   83.8108   88.1339 C   0  0  0  0  0  0  0  0  0  0  0  0
   67.9770   73.8150   91.9274 C   0  0  0  0  0  0  0  0  0  0  0  0
   66.6672   73.6852   92.4835 O   0  0  0  0  0  0  0  0  0  0  0  0
   65.4687   74.0106   91.8258 C   0  0  0  0  0  0  0  0  0  0  0  0
   64.6231   72.9666   91.4439 C   0  0  0  0  0  0  0  0  0  0  0  0
   63.4263   73.2302   90.7789 C   0  0  0  0  0  0  0  0  0  0  0  0
   63.0504   74.5481   90.4859 C   0  0  0  0  0  0  0  0  0  0  0  0
   61.8475   74.7825   89.8210 O   0  0  0  0  0  0  0  0  0  0  0  0
   63.8879   75.6209   90.8687 C   0  0  0  0  0  0  0  0  0  0  0  0
   65.0931   75.3374   91.5420 C   0  0  0  0  0  0  0  0  0  0  0  0
   61.3015   74.0627   89.5727 H   0  0  0  0  0  0  0  0  0  0  0  0
   63.5279   77.0324   90.5752 C   0  0  0  0  0  0  0  0  0  0  0  0
   63.6310   77.9133   91.4711 O   0  0  0  0  0  0  0  0  0  0  0  0
   63.0785   77.4066   89.3119 O   0  0  0  0  0  0  0  0  0  0  0  0
   62.9961   76.7643   88.6346 H   0  0  0  0  0  0  0  0  0  0  0  0
 24 25  1  0  0  0
 25 23  1  0  0  0
 23 22  1  0  0  0
 22 21  1  0  0  0
 21 20  1  0  0  0
 20 19  1  0  0  0
 19 18  1  0  0  0
 18 15  1  0  0  0
 15 16  2  0  0  0
 15 17  2  0  0  0
 15 13  1  0  0  0
 13  7  1  0  0  0
  7  8  2  0  0  0
  8  9  1  0  0  0
  9 10  2  0  0  0
 10 11  1  0  0  0
 11  1  1  0  0  0
  1  2  2  0  0  0
  2  3  2  0  0  0
  3  4  2  0  0  0
  4 26  1  0  0  0
 26 27  1  0  0  0
 27 28  1  0  0  0
 28 29  2  0  0  0
 29 30  1  0  0  0
 30 31  2  0  0  0
 31 32  1  0  0  0
 31 33  1  0  0  0
 33 36  1  0  0  0
 36 37  2  0  0  0
 36 38  1  0  0  0
 33 34  2  0  0  0
  4  5  1  0  0  0
  5  6  2  0  0  0
 11 12  2  0  0  0
 12  7  1  0  0  0
  6  1  2  0  0  0
 34 28  1  0  0  0
 13 14  1  0  0  0
 32 35  1  0  0  0
 38 39  1  0  0  0
M  END
> <Activity>
30.7

> <minimizedAffinity>
-7.48186

$$$$
HIPS7022


 39 41  0  0  0  0  0  0  0  0999 V2000
   70.9773   77.4747   90.1011 C   0  0  0  0  0  0  0  0  0  0  0  0
   70.6515   77.4847   91.4231 N   0  0  0  0  0  0  0  0  0  0  0  0
   70.4103   76.3334   92.1010 C   0  0  0  0  0  0  0  0  0  0  0  0
   70.5033   75.1022   91.4445 C   0  0  0  0  0  0  0  0  0  0  0  0
   70.8192   75.1093   90.0816 C   0  0  0  0  0  0  0  0  0  0  0  0
   71.0538   76.2850   89.4441 N   0  0  0  0  0  0  0  0  0  0  0  0
   70.4602   80.7888   88.2972 C   0  0  0  0  0  0  0  0  0  0  0  0
   71.7931   81.1425   88.0188 C   0  0  0  0  0  0  0  0  0  0  0  0
   72.8414   80.3094   88.4096 C   0  0  0  0  0  0  0  0  0  0  0  0
   72.5791   79.1198   89.0895 C   0  0  0  0  0  0  0  0  0  0  0  0
   71.2568   78.7462   89.3888 C   0  0  0  0  0  0  0  0  0  0  0  0
   70.2044   79.5929   88.9884 C   0  0  0  0  0  0  0  0  0  0  0  0
   69.3528   81.6180   87.8974 N   0  0  0  0  0  0  0  0  0  0  0  0
   69.2902   82.5212   88.2841 H   0  0  0  0  0  0  0  0  0  0  0  0
   68.1213   81.1266   86.7770 S   0  0  0  0  0  0  0  0  0  0  0  0
   68.2986   81.8640   85.4802 O   0  0  0  0  0  0  0  0  0  0  0  0
   66.7783   81.4846   87.3476 O   0  0  0  0  0  0  0  0  0  0  0  0
   68.1916   79.3486   86.5606 C   0  0  0  0  0  0  0  0  0  0  0  0
   66.9666   78.7845   85.8210 C   0  0  0  0  0  0  0  0  0  0  0  0
   66.6141   77.3212   86.1629 C   0  0  0  0  0  0  0  0  0  0  0  0
   67.7053   76.5271   86.9070 C   0  0  0  0  0  0  0  0  0  0  0  0
   67.3740   76.2813   88.3887 C   0  0  0  0  0  0  0  0  0  0  0  0
   66.2213   77.1730   88.8804 C   0  0  0  0  0  0  0  0  0  0  0  0
   65.7588   78.7775   90.7805 C   0  0  0  0  0  0  0  0  0  0  0  0
   66.7304   78.3920   89.6668 C   0  0  0  0  0  0  0  0  0  0  0  0
   70.2531   73.8152   92.1842 C   0  0  0  0  0  0  0  0  0  0  0  0
   69.0494   73.8964   92.9499 O   0  0  0  0  0  0  0  0  0  0  0  0
   67.7649   74.1177   92.4246 C   0  0  0  0  0  0  0  0  0  0  0  0
   67.3194   75.4363   92.3089 C   0  0  0  0  0  0  0  0  0  0  0  0
   66.0496   75.7144   91.8045 C   0  0  0  0  0  0  0  0  0  0  0  0
   65.2005   74.6747   91.4018 C   0  0  0  0  0  0  0  0  0  0  0  0
   63.9365   74.9819   90.9000 O   0  0  0  0  0  0  0  0  0  0  0  0
   65.6332   73.3326   91.5041 C   0  0  0  0  0  0  0  0  0  0  0  0
   66.9203   73.0689   92.0140 C   0  0  0  0  0  0  0  0  0  0  0  0
   63.6618   75.8756   90.8374 H   0  0  0  0  0  0  0  0  0  0  0  0
   64.7635   72.2009   91.0906 C   0  0  0  0  0  0  0  0  0  0  0  0
   63.5377   72.2019   91.3848 O   0  0  0  0  0  0  0  0  0  0  0  0
   65.2819   71.1282   90.3706 O   0  0  0  0  0  0  0  0  0  0  0  0
   66.1909   71.1117   90.1437 H   0  0  0  0  0  0  0  0  0  0  0  0
 24 25  1  0  0  0
 25 23  1  0  0  0
 23 22  1  0  0  0
 22 21  1  0  0  0
 21 20  1  0  0  0
 20 19  1  0  0  0
 19 18  1  0  0  0
 18 15  1  0  0  0
 15 16  2  0  0  0
 15 17  2  0  0  0
 15 13  1  0  0  0
 13  7  1  0  0  0
  7  8  2  0  0  0
  8  9  1  0  0  0
  9 10  2  0  0  0
 10 11  1  0  0  0
 11  1  1  0  0  0
  1  2  2  0  0  0
  2  3  2  0  0  0
  3  4  2  0  0  0
  4 26  1  0  0  0
 26 27  1  0  0  0
 27 28  1  0  0  0
 28 29  2  0  0  0
 29 30  1  0  0  0
 30 31  2  0  0  0
 31 32  1  0  0  0
 31 33  1  0  0  0
 33 36  1  0  0  0
 36 37  2  0  0  0
 36 38  1  0  0  0
 33 34  2  0  0  0
  4  5  1  0  0  0
  5  6  2  0  0  0
 11 12  2  0  0  0
 12  7  1  0  0  0
  6  1  2  0  0  0
 34 28  1  0  0  0
 13 14  1  0  0  0
 32 35  1  0  0  0
 38 39  1  0  0  0
M  END
> <Activity>
30.7

> <minimizedAffinity>
-7.25470

$$$$
HIPS6101


 33 36  0  0  0  0  0  0  0  0999 V2000
   68.6273   74.7291   91.7347 C   0  0  0  0  0  0  0  0  0  0  0  0
   69.9446   74.5066   92.1610 C   0  0  0  0  0  0  0  0  0  0  0  0
   70.9913   75.2730   91.6451 C   0  0  0  0  0  0  0  0  0  0  0  0
   70.7348   76.2657   90.6975 C   0  0  0  0  0  0  0  0  0  0  0  0
   69.4240   76.4955   90.2462 C   0  0  0  0  0  0  0  0  0  0  0  0
   68.3776   75.7068   90.7561 C   0  0  0  0  0  0  0  0  0  0  0  0
   69.1435   77.5683   89.2605 C   0  0  0  0  0  0  0  0  0  0  0  0
   68.0641   77.4476   88.3669 C   0  0  0  0  0  0  0  0  0  0  0  0
   67.7772   78.4732   87.4634 C   0  0  0  0  0  0  0  0  0  0  0  0
   68.5685   79.6232   87.4326 C   0  0  0  0  0  0  0  0  0  0  0  0
   69.6628   79.7516   88.2936 C   0  0  0  0  0  0  0  0  0  0  0  0
   69.9384   78.7283   89.2187 C   0  0  0  0  0  0  0  0  0  0  0  0
   70.4297   80.9244   88.2397 O   0  0  0  0  0  0  0  0  0  0  0  0
   71.7886   81.0186   88.5737 C   0  0  0  0  0  0  0  0  0  0  0  0
   72.3434   82.2864   88.7887 C   0  0  0  0  0  0  0  0  0  0  0  0
   73.7000   82.4200   89.1008 C   0  0  0  0  0  0  0  0  0  0  0  0
   74.5147   81.2868   89.1853 C   0  0  0  0  0  0  0  0  0  0  0  0
   73.9729   80.0186   88.9611 C   0  0  0  0  0  0  0  0  0  0  0  0
   72.6161   79.8819   88.6510 C   0  0  0  0  0  0  0  0  0  0  0  0
   67.5061   73.8862   92.2915 C   0  0  0  0  0  0  0  0  0  0  0  0
   66.6677   73.3674   91.2572 O   0  0  0  0  0  0  0  0  0  0  0  0
   63.7135   75.3764   90.2548 C   0  0  0  0  0  0  0  0  0  0  0  0
   65.0408   74.9519   90.4621 C   0  0  0  0  0  0  0  0  0  0  0  0
   65.3221   73.7169   91.0546 C   0  0  0  0  0  0  0  0  0  0  0  0
   64.2610   72.8771   91.4298 C   0  0  0  0  0  0  0  0  0  0  0  0
   62.9417   73.2790   91.2247 C   0  0  0  0  0  0  0  0  0  0  0  0
   62.6568   74.5223   90.6438 C   0  0  0  0  0  0  0  0  0  0  0  0
   61.3267   74.8987   90.4546 O   0  0  0  0  0  0  0  0  0  0  0  0
   60.6352   74.3233   90.7168 H   0  0  0  0  0  0  0  0  0  0  0  0
   64.1526   77.7024   89.9726 O   0  0  0  0  0  0  0  0  0  0  0  0
   63.4579   76.7044   89.6391 C   0  0  0  0  0  0  0  0  0  0  0  0
   62.4521   76.8719   88.6916 O   0  0  0  0  0  0  0  0  0  0  0  0
   61.9263   76.1410   88.4322 H   0  0  0  0  0  0  0  0  0  0  0  0
 30 31  2  0  0  0
 31 32  1  0  0  0
 31 22  1  0  0  0
 22 23  2  0  0  0
 23 24  1  0  0  0
 24 21  1  0  0  0
 21 20  1  0  0  0
 20  1  1  0  0  0
  1  2  2  0  0  0
  2  3  1  0  0  0
  3  4  2  0  0  0
  4  5  1  0  0  0
  5  7  1  0  0  0
  7  8  2  0  0  0
  8  9  1  0  0  0
  9 10  2  0  0  0
 10 11  1  0  0  0
 11 13  1  0  0  0
 13 14  1  0  0  0
 14 15  2  0  0  0
 15 16  1  0  0  0
 16 17  2  0  0  0
 17 18  1  0  0  0
 18 19  2  0  0  0
 11 12  2  0  0  0
  5  6  2  0  0  0
 24 25  2  0  0  0
 25 26  1  0  0  0
 26 27  2  0  0  0
 27 28  1  0  0  0
 27 22  1  0  0  0
  6  1  1  0  0  0
 12  7  1  0  0  0
 19 14  1  0  0  0
 32 33  1  0  0  0
 28 29  1  0  0  0
M  END
> <Activity>
39.1

> <minimizedAffinity>
-10.80676

$$$$
HIPS6101


 33 36  0  0  0  0  0  0  0  0999 V2000
   68.2483   79.5534   87.2288 C   0  0  0  0  0  0  0  0  0  0  0  0
   67.4348   79.2061   86.1406 C   0  0  0  0  0  0  0  0  0  0  0  0
   66.8281   77.9499   86.0868 C   0  0  0  0  0  0  0  0  0  0  0  0
   67.0295   77.0276   87.1155 C   0  0  0  0  0  0  0  0  0  0  0  0
   67.8522   77.3501   88.2081 C   0  0  0  0  0  0  0  0  0  0  0  0
   68.4752   78.6101   88.2459 C   0  0  0  0  0  0  0  0  0  0  0  0
   68.0461   76.3835   89.3168 C   0  0  0  0  0  0  0  0  0  0  0  0
   69.2050   76.4373   90.1118 C   0  0  0  0  0  0  0  0  0  0  0  0
   69.3713   75.5513   91.1785 C   0  0  0  0  0  0  0  0  0  0  0  0
   68.3917   74.5962   91.4570 C   0  0  0  0  0  0  0  0  0  0  0  0
   67.2445   74.5078   90.6623 C   0  0  0  0  0  0  0  0  0  0  0  0
   67.0667   75.4145   89.6016 C   0  0  0  0  0  0  0  0  0  0  0  0
   66.2784   73.5415   90.9774 O   0  0  0  0  0  0  0  0  0  0  0  0
   64.9353   73.8089   91.2802 C   0  0  0  0  0  0  0  0  0  0  0  0
   64.1349   72.7691   91.7697 C   0  0  0  0  0  0  0  0  0  0  0  0
   62.7856   72.9934   92.0606 C   0  0  0  0  0  0  0  0  0  0  0  0
   62.2237   74.2562   91.8498 C   0  0  0  0  0  0  0  0  0  0  0  0
   63.0113   75.2969   91.3510 C   0  0  0  0  0  0  0  0  0  0  0  0
   64.3614   75.0759   91.0613 C   0  0  0  0  0  0  0  0  0  0  0  0
   68.9077   80.9103   87.2696 C   0  0  0  0  0  0  0  0  0  0  0  0
   69.6613   81.0987   88.4688 O   0  0  0  0  0  0  0  0  0  0  0  0
   73.3452   81.5177   88.6164 C   0  0  0  0  0  0  0  0  0  0  0  0
   71.9676   81.7848   88.4918 C   0  0  0  0  0  0  0  0  0  0  0  0
   71.0171   80.7688   88.6329 C   0  0  0  0  0  0  0  0  0  0  0  0
   71.4447   79.4636   88.9251 C   0  0  0  0  0  0  0  0  0  0  0  0
   72.8041   79.1839   89.0592 C   0  0  0  0  0  0  0  0  0  0  0  0
   73.7595   80.1976   88.9043 C   0  0  0  0  0  0  0  0  0  0  0  0
   75.1128   79.8867   89.0406 O   0  0  0  0  0  0  0  0  0  0  0  0
   75.3746   79.0075   89.2315 H   0  0  0  0  0  0  0  0  0  0  0  0
   75.5536   82.3685   88.3298 O   0  0  0  0  0  0  0  0  0  0  0  0
   74.3234   82.6223   88.4405 C   0  0  0  0  0  0  0  0  0  0  0  0
   73.9043   83.9490   88.3978 O   0  0  0  0  0  0  0  0  0  0  0  0
   72.9940   84.1556   88.4785 H   0  0  0  0  0  0  0  0  0  0  0  0
 30 31  2  0  0  0
 31 32  1  0  0  0
 31 22  1  0  0  0
 22 23  2  0  0  0
 23 24  1  0  0  0
 24 21  1  0  0  0
 21 20  1  0  0  0
 20  1  1  0  0  0
  1  2  2  0  0  0
  2  3  1  0  0  0
  3  4  2  0  0  0
  4  5  1  0  0  0
  5  7  1  0  0  0
  7  8  2  0  0  0
  8  9  1  0  0  0
  9 10  2  0  0  0
 10 11  1  0  0  0
 11 13  1  0  0  0
 13 14  1  0  0  0
 14 15  2  0  0  0
 15 16  1  0  0  0
 16 17  2  0  0  0
 17 18  1  0  0  0
 18 19  2  0  0  0
 11 12  2  0  0  0
  5  6  2  0  0  0
 24 25  2  0  0  0
 25 26  1  0  0  0
 26 27  2  0  0  0
 27 28  1  0  0  0
 27 22  1  0  0  0
  6  1  1  0  0  0
 12  7  1  0  0  0
 19 14  1  0  0  0
 32 33  1  0  0  0
 28 29  1  0  0  0
M  END
> <Activity>
39.1

> <minimizedAffinity>
-9.73541

$$$$
HIPS6101


 33 36  0  0  0  0  0  0  0  0999 V2000
   70.4677   79.5996   89.4317 C   0  0  0  0  0  0  0  0  0  0  0  0
   71.7089   79.1949   88.9198 C   0  0  0  0  0  0  0  0  0  0  0  0
   72.1951   77.9126   89.1814 C   0  0  0  0  0  0  0  0  0  0  0  0
   71.4498   77.0234   89.9582 C   0  0  0  0  0  0  0  0  0  0  0  0
   70.2101   77.4135   90.4925 C   0  0  0  0  0  0  0  0  0  0  0  0
   69.7359   78.7131   90.2407 C   0  0  0  0  0  0  0  0  0  0  0  0
   69.4023   76.4623   91.2948 C   0  0  0  0  0  0  0  0  0  0  0  0
   69.5689   76.3887   92.6894 C   0  0  0  0  0  0  0  0  0  0  0  0
   68.7832   75.5198   93.4497 C   0  0  0  0  0  0  0  0  0  0  0  0
   67.8326   74.7076   92.8282 C   0  0  0  0  0  0  0  0  0  0  0  0
   67.6696   74.7452   91.4399 C   0  0  0  0  0  0  0  0  0  0  0  0
   68.4456   75.6364   90.6767 C   0  0  0  0  0  0  0  0  0  0  0  0
   66.6992   73.9212   90.8520 O   0  0  0  0  0  0  0  0  0  0  0  0
   65.3255   73.9628   91.1314 C   0  0  0  0  0  0  0  0  0  0  0  0
   64.6496   75.1834   91.0098 C   0  0  0  0  0  0  0  0  0  0  0  0
   63.2847   75.2672   91.3024 C   0  0  0  0  0  0  0  0  0  0  0  0
   62.5893   74.1333   91.7333 C   0  0  0  0  0  0  0  0  0  0  0  0
   63.2574   72.9137   91.8688 C   0  0  0  0  0  0  0  0  0  0  0  0
   64.6218   72.8265   91.5747 C   0  0  0  0  0  0  0  0  0  0  0  0
   69.9586   80.9923   89.1512 C   0  0  0  0  0  0  0  0  0  0  0  0
   69.5127   81.1329   87.8010 O   0  0  0  0  0  0  0  0  0  0  0  0
   67.5432   78.0742   87.0707 C   0  0  0  0  0  0  0  0  0  0  0  0
   68.4139   78.9953   87.6855 C   0  0  0  0  0  0  0  0  0  0  0  0
   68.6092   80.2737   87.1534 C   0  0  0  0  0  0  0  0  0  0  0  0
   67.9076   80.6513   85.9971 C   0  0  0  0  0  0  0  0  0  0  0  0
   67.0363   79.7542   85.3805 C   0  0  0  0  0  0  0  0  0  0  0  0
   66.8494   78.4674   85.9038 C   0  0  0  0  0  0  0  0  0  0  0  0
   65.9738   77.5904   85.2629 O   0  0  0  0  0  0  0  0  0  0  0  0
   65.5198   77.8632   84.4900 H   0  0  0  0  0  0  0  0  0  0  0  0
   66.2628   76.3616   88.1245 O   0  0  0  0  0  0  0  0  0  0  0  0
   67.3783   76.7192   87.6578 C   0  0  0  0  0  0  0  0  0  0  0  0
   68.4448   75.8260   87.7066 O   0  0  0  0  0  0  0  0  0  0  0  0
   69.2807   76.0753   87.3643 H   0  0  0  0  0  0  0  0  0  0  0  0
 30 31  2  0  0  0
 31 32  1  0  0  0
 31 22  1  0  0  0
 22 23  2  0  0  0
 23 24  1  0  0  0
 24 21  1  0  0  0
 21 20  1  0  0  0
 20  1  1  0  0  0
  1  2  2  0  0  0
  2  3  1  0  0  0
  3  4  2  0  0  0
  4  5  1  0  0  0
  5  7  1  0  0  0
  7  8  2  0  0  0
  8  9  1  0  0  0
  9 10  2  0  0  0
 10 11  1  0  0  0
 11 13  1  0  0  0
 13 14  1  0  0  0
 14 15  2  0  0  0
 15 16  1  0  0  0
 16 17  2  0  0  0
 17 18  1  0  0  0
 18 19  2  0  0  0
 11 12  2  0  0  0
  5  6  2  0  0  0
 24 25  2  0  0  0
 25 26  1  0  0  0
 26 27  2  0  0  0
 27 28  1  0  0  0
 27 22  1  0  0  0
  6  1  1  0  0  0
 12  7  1  0  0  0
 19 14  1  0  0  0
 32 33  1  0  0  0
 28 29  1  0  0  0
M  END
> <Activity>
39.1

> <minimizedAffinity>
-9.46205

$$$$
HIPS6101


 33 36  0  0  0  0  0  0  0  0999 V2000
   64.5595   74.1502   91.3381 C   0  0  0  0  0  0  0  0  0  0  0  0
   64.6681   72.7551   91.2470 C   0  0  0  0  0  0  0  0  0  0  0  0
   65.9232   72.1437   91.2576 C   0  0  0  0  0  0  0  0  0  0  0  0
   67.0811   72.9176   91.3558 C   0  0  0  0  0  0  0  0  0  0  0  0
   66.9952   74.3181   91.4339 C   0  0  0  0  0  0  0  0  0  0  0  0
   65.7286   74.9278   91.4034 C   0  0  0  0  0  0  0  0  0  0  0  0
   68.2218   75.1421   91.5669 C   0  0  0  0  0  0  0  0  0  0  0  0
   68.6987   75.5064   92.8389 C   0  0  0  0  0  0  0  0  0  0  0  0
   69.8733   76.2510   92.9661 C   0  0  0  0  0  0  0  0  0  0  0  0
   70.5780   76.6501   91.8287 C   0  0  0  0  0  0  0  0  0  0  0  0
   70.1067   76.3219   90.5537 C   0  0  0  0  0  0  0  0  0  0  0  0
   68.9357   75.5530   90.4263 C   0  0  0  0  0  0  0  0  0  0  0  0
   70.8456   76.7328   89.4350 O   0  0  0  0  0  0  0  0  0  0  0  0
   71.2581   78.0481   89.1764 C   0  0  0  0  0  0  0  0  0  0  0  0
   72.6294   78.3206   89.0948 C   0  0  0  0  0  0  0  0  0  0  0  0
   73.0778   79.6245   88.8612 C   0  0  0  0  0  0  0  0  0  0  0  0
   72.1573   80.6678   88.7222 C   0  0  0  0  0  0  0  0  0  0  0  0
   70.7876   80.4077   88.8134 C   0  0  0  0  0  0  0  0  0  0  0  0
   70.3364   79.1045   89.0449 C   0  0  0  0  0  0  0  0  0  0  0  0
   63.1974   74.7997   91.3140 C   0  0  0  0  0  0  0  0  0  0  0  0
   63.1524   75.9058   90.4104 O   0  0  0  0  0  0  0  0  0  0  0  0
   66.0657   77.2327   88.5342 C   0  0  0  0  0  0  0  0  0  0  0  0
   64.9462   76.4627   88.9064 C   0  0  0  0  0  0  0  0  0  0  0  0
   64.2426   76.7299   90.0850 C   0  0  0  0  0  0  0  0  0  0  0  0
   64.6485   77.7989   90.9002 C   0  0  0  0  0  0  0  0  0  0  0  0
   65.7498   78.5755   90.5425 C   0  0  0  0  0  0  0  0  0  0  0  0
   66.4652   78.3010   89.3688 C   0  0  0  0  0  0  0  0  0  0  0  0
   67.5652   79.0933   89.0388 O   0  0  0  0  0  0  0  0  0  0  0  0
   67.8200   79.7986   89.6006 H   0  0  0  0  0  0  0  0  0  0  0  0
   68.0241   76.6170   87.3225 O   0  0  0  0  0  0  0  0  0  0  0  0
   66.7967   76.9036   87.2832 C   0  0  0  0  0  0  0  0  0  0  0  0
   66.1467   76.9084   86.0524 O   0  0  0  0  0  0  0  0  0  0  0  0
   65.2349   77.1191   86.0049 H   0  0  0  0  0  0  0  0  0  0  0  0
 30 31  2  0  0  0
 31 32  1  0  0  0
 31 22  1  0  0  0
 22 23  2  0  0  0
 23 24  1  0  0  0
 24 21  1  0  0  0
 21 20  1  0  0  0
 20  1  1  0  0  0
  1  2  2  0  0  0
  2  3  1  0  0  0
  3  4  2  0  0  0
  4  5  1  0  0  0
  5  7  1  0  0  0
  7  8  2  0  0  0
  8  9  1  0  0  0
  9 10  2  0  0  0
 10 11  1  0  0  0
 11 13  1  0  0  0
 13 14  1  0  0  0
 14 15  2  0  0  0
 15 16  1  0  0  0
 16 17  2  0  0  0
 17 18  1  0  0  0
 18 19  2  0  0  0
 11 12  2  0  0  0
  5  6  2  0  0  0
 24 25  2  0  0  0
 25 26  1  0  0  0
 26 27  2  0  0  0
 27 28  1  0  0  0
 27 22  1  0  0  0
  6  1  1  0  0  0
 12  7  1  0  0  0
 19 14  1  0  0  0
 32 33  1  0  0  0
 28 29  1  0  0  0
M  END
> <Activity>
39.1

> <minimizedAffinity>
-9.41361

$$$$
HIPS6101


 33 36  0  0  0  0  0  0  0  0999 V2000
   64.8045   74.3980   90.7367 C   0  0  0  0  0  0  0  0  0  0  0  0
   63.5074   74.9031   90.9067 C   0  0  0  0  0  0  0  0  0  0  0  0
   63.1630   76.1511   90.3841 C   0  0  0  0  0  0  0  0  0  0  0  0
   64.1091   76.9080   89.6904 C   0  0  0  0  0  0  0  0  0  0  0  0
   65.4184   76.4266   89.5209 C   0  0  0  0  0  0  0  0  0  0  0  0
   65.7632   75.1774   90.0665 C   0  0  0  0  0  0  0  0  0  0  0  0
   66.4187   77.2151   88.7601 C   0  0  0  0  0  0  0  0  0  0  0  0
   66.4618   77.1428   87.3562 C   0  0  0  0  0  0  0  0  0  0  0  0
   67.3789   77.9125   86.6373 C   0  0  0  0  0  0  0  0  0  0  0  0
   68.2693   78.7526   87.3089 C   0  0  0  0  0  0  0  0  0  0  0  0
   68.2616   78.8190   88.7057 C   0  0  0  0  0  0  0  0  0  0  0  0
   67.3231   78.0604   89.4287 C   0  0  0  0  0  0  0  0  0  0  0  0
   69.1648   79.6802   89.3451 O   0  0  0  0  0  0  0  0  0  0  0  0
   70.5484   79.7148   89.1182 C   0  0  0  0  0  0  0  0  0  0  0  0
   71.1430   80.9323   88.7639 C   0  0  0  0  0  0  0  0  0  0  0  0
   72.5161   80.9997   88.5077 C   0  0  0  0  0  0  0  0  0  0  0  0
   73.3019   79.8460   88.5899 C   0  0  0  0  0  0  0  0  0  0  0  0
   72.7158   78.6246   88.9315 C   0  0  0  0  0  0  0  0  0  0  0  0
   71.3433   78.5547   89.1902 C   0  0  0  0  0  0  0  0  0  0  0  0
   65.1675   73.0526   91.3162 C   0  0  0  0  0  0  0  0  0  0  0  0
   66.5825   72.8841   91.4216 O   0  0  0  0  0  0  0  0  0  0  0  0
   69.5836   75.0655   91.4808 C   0  0  0  0  0  0  0  0  0  0  0  0
   68.6248   74.1116   91.0864 C   0  0  0  0  0  0  0  0  0  0  0  0
   67.4844   73.8687   91.8585 C   0  0  0  0  0  0  0  0  0  0  0  0
   67.2829   74.6052   93.0371 C   0  0  0  0  0  0  0  0  0  0  0  0
   68.2184   75.5583   93.4376 C   0  0  0  0  0  0  0  0  0  0  0  0
   69.3691   75.7938   92.6729 C   0  0  0  0  0  0  0  0  0  0  0  0
   70.2892   76.7513   93.1010 O   0  0  0  0  0  0  0  0  0  0  0  0
   70.1355   77.2275   93.8932 H   0  0  0  0  0  0  0  0  0  0  0  0
   70.7612   75.0152   89.4088 O   0  0  0  0  0  0  0  0  0  0  0  0
   70.7907   75.2797   90.6413 C   0  0  0  0  0  0  0  0  0  0  0  0
   71.9698   75.7698   91.1955 O   0  0  0  0  0  0  0  0  0  0  0  0
   72.0093   75.9716   92.1097 H   0  0  0  0  0  0  0  0  0  0  0  0
 30 31  2  0  0  0
 31 32  1  0  0  0
 31 22  1  0  0  0
 22 23  2  0  0  0
 23 24  1  0  0  0
 24 21  1  0  0  0
 21 20  1  0  0  0
 20  1  1  0  0  0
  1  2  2  0  0  0
  2  3  1  0  0  0
  3  4  2  0  0  0
  4  5  1  0  0  0
  5  7  1  0  0  0
  7  8  2  0  0  0
  8  9  1  0  0  0
  9 10  2  0  0  0
 10 11  1  0  0  0
 11 13  1  0  0  0
 13 14  1  0  0  0
 14 15  2  0  0  0
 15 16  1  0  0  0
 16 17  2  0  0  0
 17 18  1  0  0  0
 18 19  2  0  0  0
 11 12  2  0  0  0
  5  6  2  0  0  0
 24 25  2  0  0  0
 25 26  1  0  0  0
 26 27  2  0  0  0
 27 28  1  0  0  0
 27 22  1  0  0  0
  6  1  1  0  0  0
 12  7  1  0  0  0
 19 14  1  0  0  0
 32 33  1  0  0  0
 28 29  1  0  0  0
M  END
> <Activity>
39.1

> <minimizedAffinity>
-9.31060

$$$$
HIPS6101


 33 36  0  0  0  0  0  0  0  0999 V2000
   68.7291   75.9876   89.9634 C   0  0  0  0  0  0  0  0  0  0  0  0
   68.1099   75.1415   89.0322 C   0  0  0  0  0  0  0  0  0  0  0  0
   67.7532   75.6225   87.7710 C   0  0  0  0  0  0  0  0  0  0  0  0
   68.0077   76.9517   87.4280 C   0  0  0  0  0  0  0  0  0  0  0  0
   68.6145   77.8201   88.3512 C   0  0  0  0  0  0  0  0  0  0  0  0
   68.9534   77.3336   89.6262 C   0  0  0  0  0  0  0  0  0  0  0  0
   68.9122   79.2255   87.9807 C   0  0  0  0  0  0  0  0  0  0  0  0
   68.1601   79.8721   86.9835 C   0  0  0  0  0  0  0  0  0  0  0  0
   68.4157   81.2063   86.6598 C   0  0  0  0  0  0  0  0  0  0  0  0
   69.4294   81.9063   87.3170 C   0  0  0  0  0  0  0  0  0  0  0  0
   70.2070   81.2744   88.2925 C   0  0  0  0  0  0  0  0  0  0  0  0
   69.9350   79.9371   88.6340 C   0  0  0  0  0  0  0  0  0  0  0  0
   71.2106   82.0116   88.9371 O   0  0  0  0  0  0  0  0  0  0  0  0
   72.5884   81.7757   88.8220 C   0  0  0  0  0  0  0  0  0  0  0  0
   73.0609   80.4640   88.9548 C   0  0  0  0  0  0  0  0  0  0  0  0
   74.4304   80.1945   88.8687 C   0  0  0  0  0  0  0  0  0  0  0  0
   75.3385   81.2378   88.6640 C   0  0  0  0  0  0  0  0  0  0  0  0
   74.8778   82.5511   88.5418 C   0  0  0  0  0  0  0  0  0  0  0  0
   73.5086   82.8232   88.6253 C   0  0  0  0  0  0  0  0  0  0  0  0
   69.0994   75.4586   91.3275 C   0  0  0  0  0  0  0  0  0  0  0  0
   67.9527   75.3018   92.1655 O   0  0  0  0  0  0  0  0  0  0  0  0
   64.4638   75.8122   91.0099 C   0  0  0  0  0  0  0  0  0  0  0  0
   65.7847   76.0504   91.4380 C   0  0  0  0  0  0  0  0  0  0  0  0
   66.6577   74.9940   91.7159 C   0  0  0  0  0  0  0  0  0  0  0  0
   66.2141   73.6727   91.5443 C   0  0  0  0  0  0  0  0  0  0  0  0
   64.9122   73.4198   91.1141 C   0  0  0  0  0  0  0  0  0  0  0  0
   64.0308   74.4766   90.8483 C   0  0  0  0  0  0  0  0  0  0  0  0
   62.7329   74.1924   90.4226 O   0  0  0  0  0  0  0  0  0  0  0  0
   62.4580   73.3026   90.3193 H   0  0  0  0  0  0  0  0  0  0  0  0
   63.1785   77.7008   91.6911 O   0  0  0  0  0  0  0  0  0  0  0  0
   63.5624   76.9630   90.7433 C   0  0  0  0  0  0  0  0  0  0  0  0
   63.1250   77.2451   89.4524 O   0  0  0  0  0  0  0  0  0  0  0  0
   63.4006   76.7072   88.7363 H   0  0  0  0  0  0  0  0  0  0  0  0
 30 31  2  0  0  0
 31 32  1  0  0  0
 31 22  1  0  0  0
 22 23  2  0  0  0
 23 24  1  0  0  0
 24 21  1  0  0  0
 21 20  1  0  0  0
 20  1  1  0  0  0
  1  2  2  0  0  0
  2  3  1  0  0  0
  3  4  2  0  0  0
  4  5  1  0  0  0
  5  7  1  0  0  0
  7  8  2  0  0  0
  8  9  1  0  0  0
  9 10  2  0  0  0
 10 11  1  0  0  0
 11 13  1  0  0  0
 13 14  1  0  0  0
 14 15  2  0  0  0
 15 16  1  0  0  0
 16 17  2  0  0  0
 17 18  1  0  0  0
 18 19  2  0  0  0
 11 12  2  0  0  0
  5  6  2  0  0  0
 24 25  2  0  0  0
 25 26  1  0  0  0
 26 27  2  0  0  0
 27 28  1  0  0  0
 27 22  1  0  0  0
  6  1  1  0  0  0
 12  7  1  0  0  0
 19 14  1  0  0  0
 32 33  1  0  0  0
 28 29  1  0  0  0
M  END
> <Activity>
39.1

> <minimizedAffinity>
-9.30646

$$$$
HIPS6101


 33 36  0  0  0  0  0  0  0  0999 V2000
   65.9502   76.9839   89.9395 C   0  0  0  0  0  0  0  0  0  0  0  0
   65.6736   75.8834   89.1157 C   0  0  0  0  0  0  0  0  0  0  0  0
   66.0716   75.8869   87.7775 C   0  0  0  0  0  0  0  0  0  0  0  0
   66.7459   76.9888   87.2479 C   0  0  0  0  0  0  0  0  0  0  0  0
   67.0206   78.1078   88.0523 C   0  0  0  0  0  0  0  0  0  0  0  0
   66.5998   78.1048   89.3939 C   0  0  0  0  0  0  0  0  0  0  0  0
   67.7617   79.2687   87.5008 C   0  0  0  0  0  0  0  0  0  0  0  0
   67.4414   79.7773   86.2293 C   0  0  0  0  0  0  0  0  0  0  0  0
   68.1136   80.8927   85.7249 C   0  0  0  0  0  0  0  0  0  0  0  0
   69.1188   81.5053   86.4759 C   0  0  0  0  0  0  0  0  0  0  0  0
   69.4717   80.9992   87.7308 C   0  0  0  0  0  0  0  0  0  0  0  0
   68.7794   79.8893   88.2482 C   0  0  0  0  0  0  0  0  0  0  0  0
   70.4801   81.6458   88.4597 O   0  0  0  0  0  0  0  0  0  0  0  0
   71.7739   81.1466   88.6690 C   0  0  0  0  0  0  0  0  0  0  0  0
   72.8346   82.0530   88.7907 C   0  0  0  0  0  0  0  0  0  0  0  0
   74.1411   81.5905   88.9770 C   0  0  0  0  0  0  0  0  0  0  0  0
   74.3978   80.2170   89.0281 C   0  0  0  0  0  0  0  0  0  0  0  0
   73.3479   79.3047   88.8962 C   0  0  0  0  0  0  0  0  0  0  0  0
   72.0401   79.7645   88.7119 C   0  0  0  0  0  0  0  0  0  0  0  0
   65.5045   76.9725   91.3814 C   0  0  0  0  0  0  0  0  0  0  0  0
   66.6106   77.0773   92.2799 O   0  0  0  0  0  0  0  0  0  0  0  0
   69.8306   75.4150   91.4818 C   0  0  0  0  0  0  0  0  0  0  0  0
   68.7437   76.3113   91.4717 C   0  0  0  0  0  0  0  0  0  0  0  0
   67.6756   76.1647   92.3623 C   0  0  0  0  0  0  0  0  0  0  0  0
   67.6989   75.1166   93.2967 C   0  0  0  0  0  0  0  0  0  0  0  0
   68.7707   74.2253   93.3249 C   0  0  0  0  0  0  0  0  0  0  0  0
   69.8359   74.3617   92.4242 C   0  0  0  0  0  0  0  0  0  0  0  0
   70.8927   73.4522   92.4740 O   0  0  0  0  0  0  0  0  0  0  0  0
   70.8844   72.7583   93.1035 H   0  0  0  0  0  0  0  0  0  0  0  0
   71.1167   74.7494   89.5882 O   0  0  0  0  0  0  0  0  0  0  0  0
   70.9365   75.5952   90.5059 C   0  0  0  0  0  0  0  0  0  0  0  0
   71.7906   76.6913   90.5870 O   0  0  0  0  0  0  0  0  0  0  0  0
   71.6710   77.3294   91.2626 H   0  0  0  0  0  0  0  0  0  0  0  0
 30 31  2  0  0  0
 31 32  1  0  0  0
 31 22  1  0  0  0
 22 23  2  0  0  0
 23 24  1  0  0  0
 24 21  1  0  0  0
 21 20  1  0  0  0
 20  1  1  0  0  0
  1  2  2  0  0  0
  2  3  1  0  0  0
  3  4  2  0  0  0
  4  5  1  0  0  0
  5  7  1  0  0  0
  7  8  2  0  0  0
  8  9  1  0  0  0
  9 10  2  0  0  0
 10 11  1  0  0  0
 11 13  1  0  0  0
 13 14  1  0  0  0
 14 15  2  0  0  0
 15 16  1  0  0  0
 16 17  2  0  0  0
 17 18  1  0  0  0
 18 19  2  0  0  0
 11 12  2  0  0  0
  5  6  2  0  0  0
 24 25  2  0  0  0
 25 26  1  0  0  0
 26 27  2  0  0  0
 27 28  1  0  0  0
 27 22  1  0  0  0
  6  1  1  0  0  0
 12  7  1  0  0  0
 19 14  1  0  0  0
 32 33  1  0  0  0
 28 29  1  0  0  0
M  END
> <Activity>
39.1

> <minimizedAffinity>
-9.28916

$$$$
HIPS6101


 33 36  0  0  0  0  0  0  0  0999 V2000
   70.1773   74.7293   91.6051 C   0  0  0  0  0  0  0  0  0  0  0  0
   70.0201   73.8740   92.7052 C   0  0  0  0  0  0  0  0  0  0  0  0
   68.9598   74.0573   93.5947 C   0  0  0  0  0  0  0  0  0  0  0  0
   68.0487   75.0967   93.3974 C   0  0  0  0  0  0  0  0  0  0  0  0
   68.1960   75.9738   92.3095 C   0  0  0  0  0  0  0  0  0  0  0  0
   69.2773   75.7946   91.4288 C   0  0  0  0  0  0  0  0  0  0  0  0
   67.2140   77.0621   92.0805 C   0  0  0  0  0  0  0  0  0  0  0  0
   67.3766   78.3098   92.7090 C   0  0  0  0  0  0  0  0  0  0  0  0
   66.4730   79.3464   92.4653 C   0  0  0  0  0  0  0  0  0  0  0  0
   65.3927   79.1477   91.6033 C   0  0  0  0  0  0  0  0  0  0  0  0
   65.1971   77.9066   90.9894 C   0  0  0  0  0  0  0  0  0  0  0  0
   66.1197   76.8695   91.2175 C   0  0  0  0  0  0  0  0  0  0  0  0
   64.1059   77.7469   90.1234 O   0  0  0  0  0  0  0  0  0  0  0  0
   63.4200   76.5442   89.8994 C   0  0  0  0  0  0  0  0  0  0  0  0
   63.3397   76.0475   88.5924 C   0  0  0  0  0  0  0  0  0  0  0  0
   62.6444   74.8633   88.3284 C   0  0  0  0  0  0  0  0  0  0  0  0
   62.0116   74.1753   89.3682 C   0  0  0  0  0  0  0  0  0  0  0  0
   62.0763   74.6690   90.6736 C   0  0  0  0  0  0  0  0  0  0  0  0
   62.7728   75.8518   90.9408 C   0  0  0  0  0  0  0  0  0  0  0  0
   71.3342   74.5276   90.6573 C   0  0  0  0  0  0  0  0  0  0  0  0
   71.0904   75.1318   89.3855 O   0  0  0  0  0  0  0  0  0  0  0  0
   68.9454   78.0415   88.5482 C   0  0  0  0  0  0  0  0  0  0  0  0
   69.3891   76.7270   88.7930 C   0  0  0  0  0  0  0  0  0  0  0  0
   70.7064   76.4682   89.1848 C   0  0  0  0  0  0  0  0  0  0  0  0
   71.5955   77.5415   89.3570 C   0  0  0  0  0  0  0  0  0  0  0  0
   71.1702   78.8491   89.1261 C   0  0  0  0  0  0  0  0  0  0  0  0
   69.8544   79.1100   88.7199 C   0  0  0  0  0  0  0  0  0  0  0  0
   69.4588   80.4286   88.4929 O   0  0  0  0  0  0  0  0  0  0  0  0
   70.0710   81.1282   88.6102 H   0  0  0  0  0  0  0  0  0  0  0  0
   66.9882   79.3842   88.3262 O   0  0  0  0  0  0  0  0  0  0  0  0
   67.5427   78.2715   88.1153 C   0  0  0  0  0  0  0  0  0  0  0  0
   66.8179   77.2696   87.4762 O   0  0  0  0  0  0  0  0  0  0  0  0
   67.2145   76.4368   87.3116 H   0  0  0  0  0  0  0  0  0  0  0  0
 30 31  2  0  0  0
 31 32  1  0  0  0
 31 22  1  0  0  0
 22 23  2  0  0  0
 23 24  1  0  0  0
 24 21  1  0  0  0
 21 20  1  0  0  0
 20  1  1  0  0  0
  1  2  2  0  0  0
  2  3  1  0  0  0
  3  4  2  0  0  0
  4  5  1  0  0  0
  5  7  1  0  0  0
  7  8  2  0  0  0
  8  9  1  0  0  0
  9 10  2  0  0  0
 10 11  1  0  0  0
 11 13  1  0  0  0
 13 14  1  0  0  0
 14 15  2  0  0  0
 15 16  1  0  0  0
 16 17  2  0  0  0
 17 18  1  0  0  0
 18 19  2  0  0  0
 11 12  2  0  0  0
  5  6  2  0  0  0
 24 25  2  0  0  0
 25 26  1  0  0  0
 26 27  2  0  0  0
 27 28  1  0  0  0
 27 22  1  0  0  0
  6  1  1  0  0  0
 12  7  1  0  0  0
 19 14  1  0  0  0
 32 33  1  0  0  0
 28 29  1  0  0  0
M  END
> <Activity>
39.1

> <minimizedAffinity>
-9.23693

$$$$
HIPS6101


 33 36  0  0  0  0  0  0  0  0999 V2000
   67.9136   79.9454   86.9118 C   0  0  0  0  0  0  0  0  0  0  0  0
   67.3954   79.4216   85.7187 C   0  0  0  0  0  0  0  0  0  0  0  0
   66.8129   78.1530   85.7002 C   0  0  0  0  0  0  0  0  0  0  0  0
   66.7445   77.3940   86.8701 C   0  0  0  0  0  0  0  0  0  0  0  0
   67.2704   77.8942   88.0734 C   0  0  0  0  0  0  0  0  0  0  0  0
   67.8727   79.1647   88.0800 C   0  0  0  0  0  0  0  0  0  0  0  0
   67.1745   77.1026   89.3245 C   0  0  0  0  0  0  0  0  0  0  0  0
   67.8067   77.5499   90.4986 C   0  0  0  0  0  0  0  0  0  0  0  0
   67.6865   76.8243   91.6858 C   0  0  0  0  0  0  0  0  0  0  0  0
   66.9458   75.6410   91.7132 C   0  0  0  0  0  0  0  0  0  0  0  0
   66.3318   75.1642   90.5508 C   0  0  0  0  0  0  0  0  0  0  0  0
   66.4345   75.9066   89.3604 C   0  0  0  0  0  0  0  0  0  0  0  0
   65.5892   73.9766   90.6186 O   0  0  0  0  0  0  0  0  0  0  0  0
   64.2781   73.8689   91.1048 C   0  0  0  0  0  0  0  0  0  0  0  0
   63.3178   74.7874   90.6628 C   0  0  0  0  0  0  0  0  0  0  0  0
   62.0062   74.7246   91.1438 C   0  0  0  0  0  0  0  0  0  0  0  0
   61.6496   73.7511   92.0820 C   0  0  0  0  0  0  0  0  0  0  0  0
   62.6034   72.8375   92.5377 C   0  0  0  0  0  0  0  0  0  0  0  0
   63.9152   72.8968   92.0568 C   0  0  0  0  0  0  0  0  0  0  0  0
   68.5511   81.3133   86.9161 C   0  0  0  0  0  0  0  0  0  0  0  0
   69.3776   81.5104   88.0650 O   0  0  0  0  0  0  0  0  0  0  0  0
   71.5065   78.6689   89.1428 C   0  0  0  0  0  0  0  0  0  0  0  0
   70.3881   79.4541   88.7999 C   0  0  0  0  0  0  0  0  0  0  0  0
   70.5364   80.7746   88.3642 C   0  0  0  0  0  0  0  0  0  0  0  0
   71.8256   81.3189   88.2470 C   0  0  0  0  0  0  0  0  0  0  0  0
   72.9433   80.5527   88.5752 C   0  0  0  0  0  0  0  0  0  0  0  0
   72.7967   79.2336   89.0255 C   0  0  0  0  0  0  0  0  0  0  0  0
   73.9336   78.4927   89.3499 O   0  0  0  0  0  0  0  0  0  0  0  0
   74.7835   78.8786   89.2678 H   0  0  0  0  0  0  0  0  0  0  0  0
   71.7802   76.9096   90.7280 O   0  0  0  0  0  0  0  0  0  0  0  0
   71.3040   77.2761   89.6194 C   0  0  0  0  0  0  0  0  0  0  0  0
   70.5928   76.3549   88.8558 O   0  0  0  0  0  0  0  0  0  0  0  0
   70.2321   76.6104   88.0296 H   0  0  0  0  0  0  0  0  0  0  0  0
 30 31  2  0  0  0
 31 32  1  0  0  0
 31 22  1  0  0  0
 22 23  2  0  0  0
 23 24  1  0  0  0
 24 21  1  0  0  0
 21 20  1  0  0  0
 20  1  1  0  0  0
  1  2  2  0  0  0
  2  3  1  0  0  0
  3  4  2  0  0  0
  4  5  1  0  0  0
  5  7  1  0  0  0
  7  8  2  0  0  0
  8  9  1  0  0  0
  9 10  2  0  0  0
 10 11  1  0  0  0
 11 13  1  0  0  0
 13 14  1  0  0  0
 14 15  2  0  0  0
 15 16  1  0  0  0
 16 17  2  0  0  0
 17 18  1  0  0  0
 18 19  2  0  0  0
 11 12  2  0  0  0
  5  6  2  0  0  0
 24 25  2  0  0  0
 25 26  1  0  0  0
 26 27  2  0  0  0
 27 28  1  0  0  0
 27 22  1  0  0  0
  6  1  1  0  0  0
 12  7  1  0  0  0
 19 14  1  0  0  0
 32 33  1  0  0  0
 28 29  1  0  0  0
M  END
> <Activity>
39.1

> <minimizedAffinity>
-9.20205

$$$$
HIPS6101


 33 36  0  0  0  0  0  0  0  0999 V2000
   65.0143   74.1723   90.6406 C   0  0  0  0  0  0  0  0  0  0  0  0
   63.6433   74.1814   90.3463 C   0  0  0  0  0  0  0  0  0  0  0  0
   63.1330   75.0635   89.3920 C   0  0  0  0  0  0  0  0  0  0  0  0
   63.9843   75.9466   88.7250 C   0  0  0  0  0  0  0  0  0  0  0  0
   65.3592   75.9636   89.0150 C   0  0  0  0  0  0  0  0  0  0  0  0
   65.8627   75.0856   89.9910 C   0  0  0  0  0  0  0  0  0  0  0  0
   66.2714   76.8807   88.2883 C   0  0  0  0  0  0  0  0  0  0  0  0
   66.3010   76.8865   86.8822 C   0  0  0  0  0  0  0  0  0  0  0  0
   67.1326   77.7750   86.1970 C   0  0  0  0  0  0  0  0  0  0  0  0
   67.9510   78.6578   86.9044 C   0  0  0  0  0  0  0  0  0  0  0  0
   67.9571   78.6497   88.3027 C   0  0  0  0  0  0  0  0  0  0  0  0
   67.1032   77.7702   88.9927 C   0  0  0  0  0  0  0  0  0  0  0  0
   68.7859   79.5565   88.9790 O   0  0  0  0  0  0  0  0  0  0  0  0
   70.1866   79.5778   88.9114 C   0  0  0  0  0  0  0  0  0  0  0  0
   70.8903   78.3873   89.1327 C   0  0  0  0  0  0  0  0  0  0  0  0
   72.2882   78.3758   89.0959 C   0  0  0  0  0  0  0  0  0  0  0  0
   72.9927   79.5587   88.8520 C   0  0  0  0  0  0  0  0  0  0  0  0
   72.2999   80.7536   88.6414 C   0  0  0  0  0  0  0  0  0  0  0  0
   70.9020   80.7676   88.6755 C   0  0  0  0  0  0  0  0  0  0  0  0
   65.5517   73.2218   91.6824 C   0  0  0  0  0  0  0  0  0  0  0  0
   66.2250   73.9138   92.7358 O   0  0  0  0  0  0  0  0  0  0  0  0
   68.7086   76.6703   92.6958 C   0  0  0  0  0  0  0  0  0  0  0  0
   67.5061   75.9485   92.8291 C   0  0  0  0  0  0  0  0  0  0  0  0
   67.4624   74.5675   92.6132 C   0  0  0  0  0  0  0  0  0  0  0  0
   68.6441   73.8867   92.2781 C   0  0  0  0  0  0  0  0  0  0  0  0
   69.8440   74.5850   92.1496 C   0  0  0  0  0  0  0  0  0  0  0  0
   69.8878   75.9713   92.3518 C   0  0  0  0  0  0  0  0  0  0  0  0
   71.1025   76.6434   92.2125 O   0  0  0  0  0  0  0  0  0  0  0  0
   71.8772   76.1685   91.9841 H   0  0  0  0  0  0  0  0  0  0  0  0
   69.1421   78.6193   93.9981 O   0  0  0  0  0  0  0  0  0  0  0  0
   68.7080   78.1398   92.9157 C   0  0  0  0  0  0  0  0  0  0  0  0
   68.2289   79.0089   91.9397 O   0  0  0  0  0  0  0  0  0  0  0  0
   67.9026   78.6696   91.1295 H   0  0  0  0  0  0  0  0  0  0  0  0
 30 31  2  0  0  0
 31 32  1  0  0  0
 31 22  1  0  0  0
 22 23  2  0  0  0
 23 24  1  0  0  0
 24 21  1  0  0  0
 21 20  1  0  0  0
 20  1  1  0  0  0
  1  2  2  0  0  0
  2  3  1  0  0  0
  3  4  2  0  0  0
  4  5  1  0  0  0
  5  7  1  0  0  0
  7  8  2  0  0  0
  8  9  1  0  0  0
  9 10  2  0  0  0
 10 11  1  0  0  0
 11 13  1  0  0  0
 13 14  1  0  0  0
 14 15  2  0  0  0
 15 16  1  0  0  0
 16 17  2  0  0  0
 17 18  1  0  0  0
 18 19  2  0  0  0
 11 12  2  0  0  0
  5  6  2  0  0  0
 24 25  2  0  0  0
 25 26  1  0  0  0
 26 27  2  0  0  0
 27 28  1  0  0  0
 27 22  1  0  0  0
  6  1  1  0  0  0
 12  7  1  0  0  0
 19 14  1  0  0  0
 32 33  1  0  0  0
 28 29  1  0  0  0
M  END
> <Activity>
39.1

> <minimizedAffinity>
-9.07071

$$$$
HIPS6124


 26 29  0  0  0  0  0  0  0  0999 V2000
   67.5344   76.4868   88.1540 O   0  0  0  0  0  0  0  0  0  0  0  0
   68.3077   80.0195   87.4514 C   0  0  0  0  0  0  0  0  0  0  0  0
   67.6593   78.7888   87.4728 C   0  0  0  0  0  0  0  0  0  0  0  0
   68.1832   77.7041   88.1372 C   0  0  0  0  0  0  0  0  0  0  0  0
   69.3802   77.7884   88.8153 C   0  0  0  0  0  0  0  0  0  0  0  0
   70.0246   79.0132   88.7934 C   0  0  0  0  0  0  0  0  0  0  0  0
   69.5053   80.1160   88.1257 C   0  0  0  0  0  0  0  0  0  0  0  0
   70.1804   81.3414   88.1219 O   0  0  0  0  0  0  0  0  0  0  0  0
   70.9963   81.4281   88.5744 H   0  0  0  0  0  0  0  0  0  0  0  0
   68.2653   81.5410   85.6651 O   0  0  0  0  0  0  0  0  0  0  0  0
   67.7310   81.1587   86.7380 C   0  0  0  0  0  0  0  0  0  0  0  0
   66.6237   81.8342   87.1920 O   0  0  0  0  0  0  0  0  0  0  0  0
   66.2072   81.5692   87.9885 H   0  0  0  0  0  0  0  0  0  0  0  0
   66.2191   76.4589   88.6693 C   0  0  0  0  0  0  0  0  0  0  0  0
   66.0207   75.4611   89.7229 C   0  0  0  0  0  0  0  0  0  0  0  0
   67.1069   75.0927   90.4923 C   0  0  0  0  0  0  0  0  0  0  0  0
   66.9758   74.1558   91.4998 C   0  0  0  0  0  0  0  0  0  0  0  0
   65.7205   73.6035   91.7072 C   0  0  0  0  0  0  0  0  0  0  0  0
   64.6191   73.9499   90.9575 C   0  0  0  0  0  0  0  0  0  0  0  0
   64.7876   74.8906   89.9581 C   0  0  0  0  0  0  0  0  0  0  0  0
   68.1497   73.7877   92.2975 C   0  0  0  0  0  0  0  0  0  0  0  0
   68.4851   74.6093   93.5075 C   0  0  0  0  0  0  0  0  0  0  0  0
   69.2990   74.7374   92.2848 C   0  0  0  0  0  0  0  0  0  0  0  0
   63.2883   73.3487   91.1950 C   0  0  0  0  0  0  0  0  0  0  0  0
   62.8182   73.2309   92.5952 C   0  0  0  0  0  0  0  0  0  0  0  0
   62.1923   74.2217   91.6773 C   0  0  0  0  0  0  0  0  0  0  0  0
 10 11  2  0  0  0
 11 12  1  0  0  0
 11  2  1  0  0  0
  2  3  2  0  0  0
  3  4  1  0  0  0
  4  1  1  0  0  0
  1 14  1  0  0  0
 14 15  1  0  0  0
 15 16  2  0  0  0
 16 17  1  0  0  0
 17 21  1  0  0  0
 21 22  1  0  0  0
 22 23  1  0  0  0
 17 18  2  0  0  0
 18 19  1  0  0  0
 19 24  1  0  0  0
 24 25  1  0  0  0
 25 26  1  0  0  0
 19 20  2  0  0  0
  4  5  2  0  0  0
  5  6  1  0  0  0
  6  7  2  0  0  0
  7  8  1  0  0  0
  7  2  1  0  0  0
 20 15  1  0  0  0
 23 21  1  0  0  0
 26 24  1  0  0  0
 12 13  1  0  0  0
  8  9  1  0  0  0
M  END
> <Activity>
59.9

> <minimizedAffinity>
-9.20564

$$$$
HIPS6124


 26 29  0  0  0  0  0  0  0  0999 V2000
   67.7620   76.5093   88.1533 O   0  0  0  0  0  0  0  0  0  0  0  0
   68.3916   80.0719   87.4589 C   0  0  0  0  0  0  0  0  0  0  0  0
   67.8000   78.8129   87.4672 C   0  0  0  0  0  0  0  0  0  0  0  0
   68.3545   77.7551   88.1498 C   0  0  0  0  0  0  0  0  0  0  0  0
   69.5273   77.8959   88.8602 C   0  0  0  0  0  0  0  0  0  0  0  0
   70.1151   79.1490   88.8514 C   0  0  0  0  0  0  0  0  0  0  0  0
   69.5644   80.2251   88.1655 C   0  0  0  0  0  0  0  0  0  0  0  0
   70.1825   81.4802   88.1756 O   0  0  0  0  0  0  0  0  0  0  0  0
   70.9807   81.6055   88.6500 H   0  0  0  0  0  0  0  0  0  0  0  0
   68.2683   81.5181   85.6147 O   0  0  0  0  0  0  0  0  0  0  0  0
   67.7832   81.1817   86.7256 C   0  0  0  0  0  0  0  0  0  0  0  0
   66.6976   81.8775   87.2009 O   0  0  0  0  0  0  0  0  0  0  0  0
   66.3177   81.6466   88.0257 H   0  0  0  0  0  0  0  0  0  0  0  0
   66.4263   76.4266   88.6063 C   0  0  0  0  0  0  0  0  0  0  0  0
   66.2302   75.4588   89.6879 C   0  0  0  0  0  0  0  0  0  0  0  0
   64.9693   74.9265   89.8731 C   0  0  0  0  0  0  0  0  0  0  0  0
   64.7287   74.0094   90.8786 C   0  0  0  0  0  0  0  0  0  0  0  0
   65.7944   73.6466   91.6889 C   0  0  0  0  0  0  0  0  0  0  0  0
   67.0620   74.1592   91.5295 C   0  0  0  0  0  0  0  0  0  0  0  0
   67.2659   75.0744   90.5132 C   0  0  0  0  0  0  0  0  0  0  0  0
   63.3780   73.4643   91.0473 C   0  0  0  0  0  0  0  0  0  0  0  0
   62.3322   74.3195   91.7003 C   0  0  0  0  0  0  0  0  0  0  0  0
   62.9288   73.1941   92.4430 C   0  0  0  0  0  0  0  0  0  0  0  0
   68.1854   73.7589   92.4050 C   0  0  0  0  0  0  0  0  0  0  0  0
   69.4214   74.5752   92.3675 C   0  0  0  0  0  0  0  0  0  0  0  0
   68.5287   74.6246   93.5577 C   0  0  0  0  0  0  0  0  0  0  0  0
 10 11  2  0  0  0
 11 12  1  0  0  0
 11  2  1  0  0  0
  2  3  2  0  0  0
  3  4  1  0  0  0
  4  1  1  0  0  0
  1 14  1  0  0  0
 14 15  1  0  0  0
 15 16  2  0  0  0
 16 17  1  0  0  0
 17 21  1  0  0  0
 21 22  1  0  0  0
 22 23  1  0  0  0
 17 18  2  0  0  0
 18 19  1  0  0  0
 19 24  1  0  0  0
 24 25  1  0  0  0
 25 26  1  0  0  0
 19 20  2  0  0  0
  4  5  2  0  0  0
  5  6  1  0  0  0
  6  7  2  0  0  0
  7  8  1  0  0  0
  7  2  1  0  0  0
 20 15  1  0  0  0
 23 21  1  0  0  0
 26 24  1  0  0  0
 12 13  1  0  0  0
  8  9  1  0  0  0
M  END
> <Activity>
59.9

> <minimizedAffinity>
-9.20472

$$$$
HIPS6124


 26 29  0  0  0  0  0  0  0  0999 V2000
   68.1358   75.1955   90.3901 O   0  0  0  0  0  0  0  0  0  0  0  0
   64.5534   75.9021   90.8778 C   0  0  0  0  0  0  0  0  0  0  0  0
   65.8981   76.0578   90.5575 C   0  0  0  0  0  0  0  0  0  0  0  0
   66.8037   75.0335   90.7099 C   0  0  0  0  0  0  0  0  0  0  0  0
   66.4172   73.8003   91.1892 C   0  0  0  0  0  0  0  0  0  0  0  0
   65.0790   73.6464   91.5077 C   0  0  0  0  0  0  0  0  0  0  0  0
   64.1550   74.6737   91.3580 C   0  0  0  0  0  0  0  0  0  0  0  0
   62.8084   74.4873   91.6886 O   0  0  0  0  0  0  0  0  0  0  0  0
   62.5168   73.6595   92.0168 H   0  0  0  0  0  0  0  0  0  0  0  0
   63.1519   77.5815   91.7282 O   0  0  0  0  0  0  0  0  0  0  0  0
   63.6090   77.0060   90.7072 C   0  0  0  0  0  0  0  0  0  0  0  0
   63.1967   77.4444   89.4717 O   0  0  0  0  0  0  0  0  0  0  0  0
   63.5224   77.0325   88.6957 H   0  0  0  0  0  0  0  0  0  0  0  0
   68.4516   75.4622   89.0391 C   0  0  0  0  0  0  0  0  0  0  0  0
   68.8956   76.8370   88.7986 C   0  0  0  0  0  0  0  0  0  0  0  0
   68.0447   77.6951   88.1301 C   0  0  0  0  0  0  0  0  0  0  0  0
   68.4133   79.0028   87.8767 C   0  0  0  0  0  0  0  0  0  0  0  0
   69.6617   79.4175   88.3165 C   0  0  0  0  0  0  0  0  0  0  0  0
   70.5319   78.5864   88.9852 C   0  0  0  0  0  0  0  0  0  0  0  0
   70.1295   77.2846   89.2212 C   0  0  0  0  0  0  0  0  0  0  0  0
   67.4855   79.8869   87.1643 C   0  0  0  0  0  0  0  0  0  0  0  0
   67.4232   79.8099   85.6670 C   0  0  0  0  0  0  0  0  0  0  0  0
   68.0879   80.9548   86.3161 C   0  0  0  0  0  0  0  0  0  0  0  0
   71.8595   79.0486   89.4461 C   0  0  0  0  0  0  0  0  0  0  0  0
   73.0344   78.7490   88.5945 C   0  0  0  0  0  0  0  0  0  0  0  0
   72.5258   80.1439   88.7027 C   0  0  0  0  0  0  0  0  0  0  0  0
 10 11  2  0  0  0
 11 12  1  0  0  0
 11  2  1  0  0  0
  2  3  2  0  0  0
  3  4  1  0  0  0
  4  1  1  0  0  0
  1 14  1  0  0  0
 14 15  1  0  0  0
 15 16  2  0  0  0
 16 17  1  0  0  0
 17 21  1  0  0  0
 21 22  1  0  0  0
 22 23  1  0  0  0
 17 18  2  0  0  0
 18 19  1  0  0  0
 19 24  1  0  0  0
 24 25  1  0  0  0
 25 26  1  0  0  0
 19 20  2  0  0  0
  4  5  2  0  0  0
  5  6  1  0  0  0
  6  7  2  0  0  0
  7  8  1  0  0  0
  7  2  1  0  0  0
 20 15  1  0  0  0
 23 21  1  0  0  0
 26 24  1  0  0  0
 12 13  1  0  0  0
  8  9  1  0  0  0
M  END
> <Activity>
59.9

> <minimizedAffinity>
-8.95154

$$$$
HIPS6124


 26 29  0  0  0  0  0  0  0  0999 V2000
   68.3147   75.6002   90.4172 O   0  0  0  0  0  0  0  0  0  0  0  0
   64.6752   75.2746   89.9487 C   0  0  0  0  0  0  0  0  0  0  0  0
   65.9814   75.7445   89.8571 C   0  0  0  0  0  0  0  0  0  0  0  0
   67.0219   75.1283   90.5129 C   0  0  0  0  0  0  0  0  0  0  0  0
   66.8160   74.0117   91.2942 C   0  0  0  0  0  0  0  0  0  0  0  0
   65.5161   73.5449   91.3848 C   0  0  0  0  0  0  0  0  0  0  0  0
   64.4569   74.1589   90.7270 C   0  0  0  0  0  0  0  0  0  0  0  0
   63.1533   73.6631   90.8382 O   0  0  0  0  0  0  0  0  0  0  0  0
   62.9834   72.9053   91.3625 H   0  0  0  0  0  0  0  0  0  0  0  0
   62.9857   75.3345   88.3210 O   0  0  0  0  0  0  0  0  0  0  0  0
   63.5850   75.9466   89.2422 C   0  0  0  0  0  0  0  0  0  0  0  0
   63.1845   77.2264   89.5431 O   0  0  0  0  0  0  0  0  0  0  0  0
   63.6147   77.7038   90.2250 H   0  0  0  0  0  0  0  0  0  0  0  0
   68.8484   75.7740   89.1206 C   0  0  0  0  0  0  0  0  0  0  0  0
   69.1676   77.1663   88.7970 C   0  0  0  0  0  0  0  0  0  0  0  0
   70.3891   77.6708   89.1979 C   0  0  0  0  0  0  0  0  0  0  0  0
   70.7413   78.9777   88.9189 C   0  0  0  0  0  0  0  0  0  0  0  0
   69.8277   79.7578   88.2256 C   0  0  0  0  0  0  0  0  0  0  0  0
   68.6029   79.2839   87.8126 C   0  0  0  0  0  0  0  0  0  0  0  0
   68.2843   77.9715   88.1093 C   0  0  0  0  0  0  0  0  0  0  0  0
   72.0461   79.4811   89.3593 C   0  0  0  0  0  0  0  0  0  0  0  0
   72.8692   80.2875   88.3982 C   0  0  0  0  0  0  0  0  0  0  0  0
   73.2511   78.8968   88.7041 C   0  0  0  0  0  0  0  0  0  0  0  0
   67.6423   80.1327   87.0740 C   0  0  0  0  0  0  0  0  0  0  0  0
   68.1110   80.7979   85.8358 C   0  0  0  0  0  0  0  0  0  0  0  0
   67.1495   79.6641   85.7573 C   0  0  0  0  0  0  0  0  0  0  0  0
 10 11  2  0  0  0
 11 12  1  0  0  0
 11  2  1  0  0  0
  2  3  2  0  0  0
  3  4  1  0  0  0
  4  1  1  0  0  0
  1 14  1  0  0  0
 14 15  1  0  0  0
 15 16  2  0  0  0
 16 17  1  0  0  0
 17 21  1  0  0  0
 21 22  1  0  0  0
 22 23  1  0  0  0
 17 18  2  0  0  0
 18 19  1  0  0  0
 19 24  1  0  0  0
 24 25  1  0  0  0
 25 26  1  0  0  0
 19 20  2  0  0  0
  4  5  2  0  0  0
  5  6  1  0  0  0
  6  7  2  0  0  0
  7  8  1  0  0  0
  7  2  1  0  0  0
 20 15  1  0  0  0
 23 21  1  0  0  0
 26 24  1  0  0  0
 12 13  1  0  0  0
  8  9  1  0  0  0
M  END
> <Activity>
59.9

> <minimizedAffinity>
-8.70015

$$$$
HIPS6124


 26 29  0  0  0  0  0  0  0  0999 V2000
   67.8640   76.8014   88.4593 O   0  0  0  0  0  0  0  0  0  0  0  0
   69.5105   80.0790   88.1157 C   0  0  0  0  0  0  0  0  0  0  0  0
   69.2143   78.7885   88.5427 C   0  0  0  0  0  0  0  0  0  0  0  0
   68.1515   78.0808   88.0309 C   0  0  0  0  0  0  0  0  0  0  0  0
   67.3280   78.6213   87.0667 C   0  0  0  0  0  0  0  0  0  0  0  0
   67.6234   79.9053   86.6426 C   0  0  0  0  0  0  0  0  0  0  0  0
   68.6943   80.6300   87.1522 C   0  0  0  0  0  0  0  0  0  0  0  0
   68.9675   81.9265   86.7030 O   0  0  0  0  0  0  0  0  0  0  0  0
   68.4246   82.3197   86.0483 H   0  0  0  0  0  0  0  0  0  0  0  0
   71.8101   80.3775   88.4770 O   0  0  0  0  0  0  0  0  0  0  0  0
   70.6461   80.8119   88.6747 C   0  0  0  0  0  0  0  0  0  0  0  0
   70.4957   81.9621   89.4117 O   0  0  0  0  0  0  0  0  0  0  0  0
   69.6393   82.3063   89.5732 H   0  0  0  0  0  0  0  0  0  0  0  0
   66.5016   76.4527   88.5949 C   0  0  0  0  0  0  0  0  0  0  0  0
   66.2455   75.4831   89.6623 C   0  0  0  0  0  0  0  0  0  0  0  0
   67.2983   75.1028   90.4713 C   0  0  0  0  0  0  0  0  0  0  0  0
   67.1124   74.1912   91.4934 C   0  0  0  0  0  0  0  0  0  0  0  0
   65.8371   73.6767   91.6744 C   0  0  0  0  0  0  0  0  0  0  0  0
   64.7680   74.0359   90.8851 C   0  0  0  0  0  0  0  0  0  0  0  0
   64.9911   74.9504   89.8721 C   0  0  0  0  0  0  0  0  0  0  0  0
   68.2521   73.8095   92.3333 C   0  0  0  0  0  0  0  0  0  0  0  0
   68.5073   74.5802   93.5952 C   0  0  0  0  0  0  0  0  0  0  0  0
   69.3793   74.7810   92.4234 C   0  0  0  0  0  0  0  0  0  0  0  0
   63.4151   73.4751   91.0948 C   0  0  0  0  0  0  0  0  0  0  0  0
   62.9044   73.3917   92.4832 C   0  0  0  0  0  0  0  0  0  0  0  0
   62.3312   74.3851   91.5342 C   0  0  0  0  0  0  0  0  0  0  0  0
 10 11  2  0  0  0
 11 12  1  0  0  0
 11  2  1  0  0  0
  2  3  2  0  0  0
  3  4  1  0  0  0
  4  1  1  0  0  0
  1 14  1  0  0  0
 14 15  1  0  0  0
 15 16  2  0  0  0
 16 17  1  0  0  0
 17 21  1  0  0  0
 21 22  1  0  0  0
 22 23  1  0  0  0
 17 18  2  0  0  0
 18 19  1  0  0  0
 19 24  1  0  0  0
 24 25  1  0  0  0
 25 26  1  0  0  0
 19 20  2  0  0  0
  4  5  2  0  0  0
  5  6  1  0  0  0
  6  7  2  0  0  0
  7  8  1  0  0  0
  7  2  1  0  0  0
 20 15  1  0  0  0
 23 21  1  0  0  0
 26 24  1  0  0  0
 12 13  1  0  0  0
  8  9  1  0  0  0
M  END
> <Activity>
59.9

> <minimizedAffinity>
-8.60235

$$$$
HIPS6124


 26 29  0  0  0  0  0  0  0  0999 V2000
   68.0786   76.7699   88.4830 O   0  0  0  0  0  0  0  0  0  0  0  0
   69.4550   80.1525   87.9989 C   0  0  0  0  0  0  0  0  0  0  0  0
   69.2672   78.8594   88.4761 C   0  0  0  0  0  0  0  0  0  0  0  0
   68.2586   78.0513   88.0048 C   0  0  0  0  0  0  0  0  0  0  0  0
   67.3841   78.4888   87.0333 C   0  0  0  0  0  0  0  0  0  0  0  0
   67.5717   79.7757   86.5592 C   0  0  0  0  0  0  0  0  0  0  0  0
   68.5869   80.6012   87.0276 C   0  0  0  0  0  0  0  0  0  0  0  0
   68.7511   81.8978   86.5282 O   0  0  0  0  0  0  0  0  0  0  0  0
   68.1715   82.2222   85.8674 H   0  0  0  0  0  0  0  0  0  0  0  0
   71.7263   80.6835   88.2572 O   0  0  0  0  0  0  0  0  0  0  0  0
   70.5347   80.9932   88.5154 C   0  0  0  0  0  0  0  0  0  0  0  0
   70.3022   82.1142   89.2757 O   0  0  0  0  0  0  0  0  0  0  0  0
   69.4236   82.3664   89.4821 H   0  0  0  0  0  0  0  0  0  0  0  0
   66.7606   76.2610   88.4971 C   0  0  0  0  0  0  0  0  0  0  0  0
   66.4279   75.5219   89.7170 C   0  0  0  0  0  0  0  0  0  0  0  0
   65.1880   74.9196   89.8031 C   0  0  0  0  0  0  0  0  0  0  0  0
   64.8225   74.2100   90.9312 C   0  0  0  0  0  0  0  0  0  0  0  0
   65.7419   74.1262   91.9663 C   0  0  0  0  0  0  0  0  0  0  0  0
   66.9849   74.7152   91.9104 C   0  0  0  0  0  0  0  0  0  0  0  0
   67.3165   75.4173   90.7662 C   0  0  0  0  0  0  0  0  0  0  0  0
   63.4982   73.5831   90.9894 C   0  0  0  0  0  0  0  0  0  0  0  0
   62.3620   74.3544   91.5940 C   0  0  0  0  0  0  0  0  0  0  0  0
   62.9728   73.2402   92.3418 C   0  0  0  0  0  0  0  0  0  0  0  0
   67.9514   74.6139   93.0259 C   0  0  0  0  0  0  0  0  0  0  0  0
   69.1441   73.7552   92.8371 C   0  0  0  0  0  0  0  0  0  0  0  0
   69.2865   75.2368   92.8655 C   0  0  0  0  0  0  0  0  0  0  0  0
 10 11  2  0  0  0
 11 12  1  0  0  0
 11  2  1  0  0  0
  2  3  2  0  0  0
  3  4  1  0  0  0
  4  1  1  0  0  0
  1 14  1  0  0  0
 14 15  1  0  0  0
 15 16  2  0  0  0
 16 17  1  0  0  0
 17 21  1  0  0  0
 21 22  1  0  0  0
 22 23  1  0  0  0
 17 18  2  0  0  0
 18 19  1  0  0  0
 19 24  1  0  0  0
 24 25  1  0  0  0
 25 26  1  0  0  0
 19 20  2  0  0  0
  4  5  2  0  0  0
  5  6  1  0  0  0
  6  7  2  0  0  0
  7  8  1  0  0  0
  7  2  1  0  0  0
 20 15  1  0  0  0
 23 21  1  0  0  0
 26 24  1  0  0  0
 12 13  1  0  0  0
  8  9  1  0  0  0
M  END
> <Activity>
59.9

> <minimizedAffinity>
-8.48714

$$$$
HIPS6124


 26 29  0  0  0  0  0  0  0  0999 V2000
   68.0963   77.8396   88.5250 O   0  0  0  0  0  0  0  0  0  0  0  0
   70.8746   80.1988   89.0600 C   0  0  0  0  0  0  0  0  0  0  0  0
   69.5986   79.6893   88.8422 C   0  0  0  0  0  0  0  0  0  0  0  0
   69.3645   78.3374   88.7411 C   0  0  0  0  0  0  0  0  0  0  0  0
   70.3892   77.4222   88.8519 C   0  0  0  0  0  0  0  0  0  0  0  0
   71.6584   77.9301   89.0685 C   0  0  0  0  0  0  0  0  0  0  0  0
   71.9071   79.2936   89.1724 C   0  0  0  0  0  0  0  0  0  0  0  0
   73.2018   79.7766   89.3917 O   0  0  0  0  0  0  0  0  0  0  0  0
   73.9180   79.1777   89.4711 H   0  0  0  0  0  0  0  0  0  0  0  0
   72.0612   82.1552   88.5382 O   0  0  0  0  0  0  0  0  0  0  0  0
   71.0989   81.6404   89.1640 C   0  0  0  0  0  0  0  0  0  0  0  0
   70.2986   82.4624   89.9207 O   0  0  0  0  0  0  0  0  0  0  0  0
   69.5753   82.1037   90.3963 H   0  0  0  0  0  0  0  0  0  0  0  0
   67.9751   76.4524   88.2861 C   0  0  0  0  0  0  0  0  0  0  0  0
   67.2272   75.7393   89.3240 C   0  0  0  0  0  0  0  0  0  0  0  0
   67.9345   75.1189   90.3351 C   0  0  0  0  0  0  0  0  0  0  0  0
   67.2790   74.4324   91.3395 C   0  0  0  0  0  0  0  0  0  0  0  0
   65.8933   74.3906   91.2939 C   0  0  0  0  0  0  0  0  0  0  0  0
   65.1604   74.9987   90.2998 C   0  0  0  0  0  0  0  0  0  0  0  0
   65.8497   75.6766   89.3113 C   0  0  0  0  0  0  0  0  0  0  0  0
   68.0610   73.7851   92.3976 C   0  0  0  0  0  0  0  0  0  0  0  0
   68.4466   74.5903   93.6036 C   0  0  0  0  0  0  0  0  0  0  0  0
   69.4619   74.2588   92.5872 C   0  0  0  0  0  0  0  0  0  0  0  0
   63.6823   74.9423   90.2694 C   0  0  0  0  0  0  0  0  0  0  0  0
   62.9831   74.3838   91.4503 C   0  0  0  0  0  0  0  0  0  0  0  0
   62.9202   75.8436   91.1654 C   0  0  0  0  0  0  0  0  0  0  0  0
 10 11  2  0  0  0
 11 12  1  0  0  0
 11  2  1  0  0  0
  2  3  2  0  0  0
  3  4  1  0  0  0
  4  1  1  0  0  0
  1 14  1  0  0  0
 14 15  1  0  0  0
 15 16  2  0  0  0
 16 17  1  0  0  0
 17 21  1  0  0  0
 21 22  1  0  0  0
 22 23  1  0  0  0
 17 18  2  0  0  0
 18 19  1  0  0  0
 19 24  1  0  0  0
 24 25  1  0  0  0
 25 26  1  0  0  0
 19 20  2  0  0  0
  4  5  2  0  0  0
  5  6  1  0  0  0
  6  7  2  0  0  0
  7  8  1  0  0  0
  7  2  1  0  0  0
 20 15  1  0  0  0
 23 21  1  0  0  0
 26 24  1  0  0  0
 12 13  1  0  0  0
  8  9  1  0  0  0
M  END
> <Activity>
59.9

> <minimizedAffinity>
-8.46243

$$$$
HIPS6124


 26 29  0  0  0  0  0  0  0  0999 V2000
   67.9842   77.8380   88.5743 O   0  0  0  0  0  0  0  0  0  0  0  0
   70.8572   80.0952   89.0457 C   0  0  0  0  0  0  0  0  0  0  0  0
   69.5597   79.6323   88.8516 C   0  0  0  0  0  0  0  0  0  0  0  0
   69.2735   78.2895   88.7670 C   0  0  0  0  0  0  0  0  0  0  0  0
   70.2645   77.3372   88.8714 C   0  0  0  0  0  0  0  0  0  0  0  0
   71.5551   77.7987   89.0645 C   0  0  0  0  0  0  0  0  0  0  0  0
   71.8565   79.1527   89.1516 C   0  0  0  0  0  0  0  0  0  0  0  0
   73.1715   79.5883   89.3473 O   0  0  0  0  0  0  0  0  0  0  0  0
   73.8658   78.9636   89.4218 H   0  0  0  0  0  0  0  0  0  0  0  0
   70.3327   82.2709   89.7521 O   0  0  0  0  0  0  0  0  0  0  0  0
   71.1371   81.5282   89.1325 C   0  0  0  0  0  0  0  0  0  0  0  0
   72.2482   82.1022   88.5625 O   0  0  0  0  0  0  0  0  0  0  0  0
   72.8627   81.5708   88.0956 H   0  0  0  0  0  0  0  0  0  0  0  0
   67.8011   76.4468   88.4095 C   0  0  0  0  0  0  0  0  0  0  0  0
   67.1715   75.7954   89.5603 C   0  0  0  0  0  0  0  0  0  0  0  0
   65.8244   75.4984   89.4917 C   0  0  0  0  0  0  0  0  0  0  0  0
   65.1802   74.8841   90.5489 C   0  0  0  0  0  0  0  0  0  0  0  0
   65.9328   74.5793   91.6734 C   0  0  0  0  0  0  0  0  0  0  0  0
   67.2764   74.8625   91.7719 C   0  0  0  0  0  0  0  0  0  0  0  0
   67.8878   75.4775   90.6949 C   0  0  0  0  0  0  0  0  0  0  0  0
   63.7490   74.5831   90.4426 C   0  0  0  0  0  0  0  0  0  0  0  0
   62.7636   75.5531   91.0254 C   0  0  0  0  0  0  0  0  0  0  0  0
   63.0283   74.2748   91.7108 C   0  0  0  0  0  0  0  0  0  0  0  0
   68.0614   74.5290   92.9808 C   0  0  0  0  0  0  0  0  0  0  0  0
   69.1461   73.5281   92.8515 C   0  0  0  0  0  0  0  0  0  0  0  0
   69.4756   74.9661   93.0501 C   0  0  0  0  0  0  0  0  0  0  0  0
 10 11  2  0  0  0
 11 12  1  0  0  0
 11  2  1  0  0  0
  2  3  2  0  0  0
  3  4  1  0  0  0
  4  1  1  0  0  0
  1 14  1  0  0  0
 14 15  1  0  0  0
 15 16  2  0  0  0
 16 17  1  0  0  0
 17 21  1  0  0  0
 21 22  1  0  0  0
 22 23  1  0  0  0
 17 18  2  0  0  0
 18 19  1  0  0  0
 19 24  1  0  0  0
 24 25  1  0  0  0
 25 26  1  0  0  0
 19 20  2  0  0  0
  4  5  2  0  0  0
  5  6  1  0  0  0
  6  7  2  0  0  0
  7  8  1  0  0  0
  7  2  1  0  0  0
 20 15  1  0  0  0
 23 21  1  0  0  0
 26 24  1  0  0  0
 12 13  1  0  0  0
  8  9  1  0  0  0
M  END
> <Activity>
59.9

> <minimizedAffinity>
-8.41831

$$$$
HIPS6124


 26 29  0  0  0  0  0  0  0  0999 V2000
   67.2735   76.5073   87.9153 O   0  0  0  0  0  0  0  0  0  0  0  0
   70.1550   78.6990   88.5967 C   0  0  0  0  0  0  0  0  0  0  0  0
   69.3300   77.5800   88.5469 C   0  0  0  0  0  0  0  0  0  0  0  0
   68.0860   77.6212   87.9609 C   0  0  0  0  0  0  0  0  0  0  0  0
   67.5987   78.7790   87.3937 C   0  0  0  0  0  0  0  0  0  0  0  0
   68.4203   79.8919   87.4438 C   0  0  0  0  0  0  0  0  0  0  0  0
   69.6787   79.8624   88.0330 C   0  0  0  0  0  0  0  0  0  0  0  0
   70.4863   81.0044   88.0680 O   0  0  0  0  0  0  0  0  0  0  0  0
   70.1811   81.8057   87.6902 H   0  0  0  0  0  0  0  0  0  0  0  0
   72.2660   79.5988   89.0885 O   0  0  0  0  0  0  0  0  0  0  0  0
   71.4740   78.6310   89.2253 C   0  0  0  0  0  0  0  0  0  0  0  0
   71.8882   77.5484   89.9636 O   0  0  0  0  0  0  0  0  0  0  0  0
   71.3171   76.8148   90.0805 H   0  0  0  0  0  0  0  0  0  0  0  0
   66.0608   76.5580   88.6385 C   0  0  0  0  0  0  0  0  0  0  0  0
   65.9618   75.5471   89.6936 C   0  0  0  0  0  0  0  0  0  0  0  0
   64.7376   74.9481   89.9174 C   0  0  0  0  0  0  0  0  0  0  0  0
   64.5882   73.9881   90.9002 C   0  0  0  0  0  0  0  0  0  0  0  0
   65.7068   73.6514   91.6481 C   0  0  0  0  0  0  0  0  0  0  0  0
   66.9399   74.2301   91.4490 C   0  0  0  0  0  0  0  0  0  0  0  0
   67.0522   75.1869   90.4570 C   0  0  0  0  0  0  0  0  0  0  0  0
   63.2742   73.3726   91.1111 C   0  0  0  0  0  0  0  0  0  0  0  0
   62.2045   74.1736   91.7934 C   0  0  0  0  0  0  0  0  0  0  0  0
   62.8822   73.0847   92.5204 C   0  0  0  0  0  0  0  0  0  0  0  0
   68.1210   73.8567   92.2579 C   0  0  0  0  0  0  0  0  0  0  0  0
   69.3184   74.7263   92.1832 C   0  0  0  0  0  0  0  0  0  0  0  0
   68.4843   74.7070   93.4160 C   0  0  0  0  0  0  0  0  0  0  0  0
 10 11  2  0  0  0
 11 12  1  0  0  0
 11  2  1  0  0  0
  2  3  2  0  0  0
  3  4  1  0  0  0
  4  1  1  0  0  0
  1 14  1  0  0  0
 14 15  1  0  0  0
 15 16  2  0  0  0
 16 17  1  0  0  0
 17 21  1  0  0  0
 21 22  1  0  0  0
 22 23  1  0  0  0
 17 18  2  0  0  0
 18 19  1  0  0  0
 19 24  1  0  0  0
 24 25  1  0  0  0
 25 26  1  0  0  0
 19 20  2  0  0  0
  4  5  2  0  0  0
  5  6  1  0  0  0
  6  7  2  0  0  0
  7  8  1  0  0  0
  7  2  1  0  0  0
 20 15  1  0  0  0
 23 21  1  0  0  0
 26 24  1  0  0  0
 12 13  1  0  0  0
  8  9  1  0  0  0
M  END
> <Activity>
59.9

> <minimizedAffinity>
-8.41303

$$$$
HIPS6124


 26 29  0  0  0  0  0  0  0  0999 V2000
   67.2950   73.4649   90.9255 O   0  0  0  0  0  0  0  0  0  0  0  0
   64.4305   75.7324   90.4521 C   0  0  0  0  0  0  0  0  0  0  0  0
   65.7195   75.2099   90.4241 C   0  0  0  0  0  0  0  0  0  0  0  0
   66.0143   73.9764   90.9570 C   0  0  0  0  0  0  0  0  0  0  0  0
   65.0405   73.1984   91.5455 C   0  0  0  0  0  0  0  0  0  0  0  0
   63.7583   73.7191   91.5729 C   0  0  0  0  0  0  0  0  0  0  0  0
   63.4484   74.9639   91.0379 C   0  0  0  0  0  0  0  0  0  0  0  0
   62.1422   75.4632   91.0808 O   0  0  0  0  0  0  0  0  0  0  0  0
   61.4596   74.9563   91.4748 H   0  0  0  0  0  0  0  0  0  0  0  0
   64.9450   77.9924   90.0842 O   0  0  0  0  0  0  0  0  0  0  0  0
   64.1413   77.0466   89.8790 C   0  0  0  0  0  0  0  0  0  0  0  0
   63.0220   77.2947   89.1211 O   0  0  0  0  0  0  0  0  0  0  0  0
   62.4078   76.6072   88.9536 H   0  0  0  0  0  0  0  0  0  0  0  0
   68.2167   73.9626   91.8737 C   0  0  0  0  0  0  0  0  0  0  0  0
   68.5083   75.3895   91.7185 C   0  0  0  0  0  0  0  0  0  0  0  0
   69.2364   75.7956   90.6174 C   0  0  0  0  0  0  0  0  0  0  0  0
   69.5397   77.1297   90.4220 C   0  0  0  0  0  0  0  0  0  0  0  0
   69.0882   78.0388   91.3673 C   0  0  0  0  0  0  0  0  0  0  0  0
   68.3607   77.6652   92.4747 C   0  0  0  0  0  0  0  0  0  0  0  0
   68.0758   76.3219   92.6377 C   0  0  0  0  0  0  0  0  0  0  0  0
   70.3147   77.5262   89.2421 C   0  0  0  0  0  0  0  0  0  0  0  0
   71.5913   78.2891   89.4415 C   0  0  0  0  0  0  0  0  0  0  0  0
   70.3906   78.9849   88.9435 C   0  0  0  0  0  0  0  0  0  0  0  0
   67.8882   78.6510   93.4715 C   0  0  0  0  0  0  0  0  0  0  0  0
   68.8616   79.1513   94.4703 C   0  0  0  0  0  0  0  0  0  0  0  0
   68.3836   80.0446   93.3796 C   0  0  0  0  0  0  0  0  0  0  0  0
 10 11  2  0  0  0
 11 12  1  0  0  0
 11  2  1  0  0  0
  2  3  2  0  0  0
  3  4  1  0  0  0
  4  1  1  0  0  0
  1 14  1  0  0  0
 14 15  1  0  0  0
 15 16  2  0  0  0
 16 17  1  0  0  0
 17 21  1  0  0  0
 21 22  1  0  0  0
 22 23  1  0  0  0
 17 18  2  0  0  0
 18 19  1  0  0  0
 19 24  1  0  0  0
 24 25  1  0  0  0
 25 26  1  0  0  0
 19 20  2  0  0  0
  4  5  2  0  0  0
  5  6  1  0  0  0
  6  7  2  0  0  0
  7  8  1  0  0  0
  7  2  1  0  0  0
 20 15  1  0  0  0
 23 21  1  0  0  0
 26 24  1  0  0  0
 12 13  1  0  0  0
  8  9  1  0  0  0
M  END
> <Activity>
59.9

> <minimizedAffinity>
-8.23585

$$$$
HIPS7757 (IAE-158)


 38 41  0  0  0  0  0  0  0  0999 V2000
   65.9928   74.6895   90.9944 C   0  0  0  0  0  0  0  0  0  0  0  0
   64.6415   74.3148   90.9444 C   0  0  0  0  0  0  0  0  0  0  0  0
   63.7911   74.8790   89.9908 C   0  0  0  0  0  0  0  0  0  0  0  0
   64.2837   75.8081   89.0711 C   0  0  0  0  0  0  0  0  0  0  0  0
   65.6434   76.1750   89.0935 C   0  0  0  0  0  0  0  0  0  0  0  0
   66.4856   75.6163   90.0625 C   0  0  0  0  0  0  0  0  0  0  0  0
   66.9222   74.0637   91.9983 C   0  0  0  0  0  0  0  0  0  0  0  0
   67.1911   75.0115   93.0892 N   0  0  0  0  0  0  0  0  0  0  0  0
   66.5257   75.7822   93.0286 H   0  0  0  0  0  0  0  0  0  0  0  0
   68.5663   75.5582   93.0158 C   0  0  0  0  0  0  0  0  0  0  0  0
   69.5100   74.5503   92.4095 C   0  0  0  0  0  0  0  0  0  0  0  0
   69.9463   73.5970   93.1125 O   0  0  0  0  0  0  0  0  0  0  0  0
   71.2526   74.9024   90.6886 C   0  0  0  0  0  0  0  0  0  0  0  0
   69.9007   74.6852   91.0737 O   0  0  0  0  0  0  0  0  0  0  0  0
   68.5835   76.8348   92.1531 C   0  0  0  0  0  0  0  0  0  0  0  0
   68.5510   78.0862   92.9914 C   0  0  0  0  0  0  0  0  0  0  0  0
   69.1824   78.1194   94.2459 C   0  0  0  0  0  0  0  0  0  0  0  0
   69.1878   79.2958   95.0007 C   0  0  0  0  0  0  0  0  0  0  0  0
   68.5675   80.4518   94.5080 C   0  0  0  0  0  0  0  0  0  0  0  0
   68.5741   81.6311   95.2486 O   0  0  0  0  0  0  0  0  0  0  0  0
   67.9387   80.4232   93.2592 C   0  0  0  0  0  0  0  0  0  0  0  0
   67.9277   79.2469   92.5035 C   0  0  0  0  0  0  0  0  0  0  0  0
   68.9939   81.6561   96.0860 H   0  0  0  0  0  0  0  0  0  0  0  0
   66.2011   77.0757   88.1708 O   0  0  0  0  0  0  0  0  0  0  0  0
   67.5456   77.0308   87.6882 C   0  0  0  0  0  0  0  0  0  0  0  0
   68.1235   78.4254   87.5229 C   0  0  0  0  0  0  0  0  0  0  0  0
   67.4252   79.3459   86.7216 C   0  0  0  0  0  0  0  0  0  0  0  0
   67.8982   80.6427   86.5464 C   0  0  0  0  0  0  0  0  0  0  0  0
   69.0896   81.0388   87.1440 C   0  0  0  0  0  0  0  0  0  0  0  0
   69.8392   80.1344   87.9089 C   0  0  0  0  0  0  0  0  0  0  0  0
   69.3678   78.8060   88.1005 C   0  0  0  0  0  0  0  0  0  0  0  0
   70.1394   77.8199   88.9531 C   0  0  0  0  0  0  0  0  0  0  0  0
   71.1141   80.6144   88.4793 C   0  0  0  0  0  0  0  0  0  0  0  0
   72.2210   79.7593   88.5722 C   0  0  0  0  0  0  0  0  0  0  0  0
   73.4252   80.2344   89.0946 C   0  0  0  0  0  0  0  0  0  0  0  0
   73.5129   81.5651   89.5089 C   0  0  0  0  0  0  0  0  0  0  0  0
   72.4339   82.3856   89.4010 N   0  0  0  0  0  0  0  0  0  0  0  0
   71.2495   81.9461   88.8969 C   0  0  0  0  0  0  0  0  0  0  0  0
 13 14  1  0  0  0
 14 11  1  0  0  0
 11 12  2  0  0  0
 11 10  1  0  0  0
 10 15  1  0  0  0
 15 16  1  0  0  0
 16 17  2  0  0  0
 17 18  1  0  0  0
 18 19  2  0  0  0
 19 20  1  0  0  0
 19 21  1  0  0  0
 21 22  2  0  0  0
 10  8  1  0  0  0
  8  7  1  0  0  0
  7  1  1  0  0  0
  1  2  2  0  0  0
  2  3  1  0  0  0
  3  4  2  0  0  0
  4  5  1  0  0  0
  5 24  1  0  0  0
 24 25  1  0  0  0
 25 26  1  0  0  0
 26 27  2  0  0  0
 27 28  1  0  0  0
 28 29  2  0  0  0
 29 30  1  0  0  0
 30 33  1  0  0  0
 33 34  2  0  0  0
 34 35  1  0  0  0
 35 36  2  0  0  0
 36 37  2  0  0  0
 37 38  2  0  0  0
 30 31  2  0  0  0
 31 32  1  0  0  0
  5  6  2  0  0  0
 22 16  1  0  0  0
  6  1  1  0  0  0
 31 26  1  0  0  0
 38 33  1  0  0  0
 20 23  1  0  0  0
  8  9  1  0  0  0
M  END
> <Activity>
60.5

> <minimizedAffinity>
-9.58105

$$$$
HIPS7757 (IAE-158)


 38 41  0  0  0  0  0  0  0  0999 V2000
   65.4821   78.1242   91.1081 C   0  0  0  0  0  0  0  0  0  0  0  0
   64.2056   77.5818   91.3209 C   0  0  0  0  0  0  0  0  0  0  0  0
   63.6600   76.6867   90.3979 C   0  0  0  0  0  0  0  0  0  0  0  0
   64.3878   76.3139   89.2651 C   0  0  0  0  0  0  0  0  0  0  0  0
   65.6803   76.8311   89.0512 C   0  0  0  0  0  0  0  0  0  0  0  0
   66.2135   77.7396   89.9735 C   0  0  0  0  0  0  0  0  0  0  0  0
   66.0894   79.0649   92.1128 C   0  0  0  0  0  0  0  0  0  0  0  0
   67.4765   79.3718   91.7354 N   0  0  0  0  0  0  0  0  0  0  0  0
   67.7265   78.8171   90.9167 H   0  0  0  0  0  0  0  0  0  0  0  0
   68.4251   79.0643   92.8312 C   0  0  0  0  0  0  0  0  0  0  0  0
   68.5076   80.2133   93.8044 C   0  0  0  0  0  0  0  0  0  0  0  0
   68.7325   81.3804   93.3797 O   0  0  0  0  0  0  0  0  0  0  0  0
   68.3991   81.0109   96.1441 C   0  0  0  0  0  0  0  0  0  0  0  0
   68.3419   79.9741   95.1721 O   0  0  0  0  0  0  0  0  0  0  0  0
   67.9671   77.8038   93.5900 C   0  0  0  0  0  0  0  0  0  0  0  0
   68.7499   76.5821   93.1846 C   0  0  0  0  0  0  0  0  0  0  0  0
   69.9671   76.7126   92.4956 C   0  0  0  0  0  0  0  0  0  0  0  0
   70.7118   75.5783   92.1604 C   0  0  0  0  0  0  0  0  0  0  0  0
   70.2511   74.3030   92.5146 C   0  0  0  0  0  0  0  0  0  0  0  0
   70.9894   73.1671   92.1924 O   0  0  0  0  0  0  0  0  0  0  0  0
   69.0403   74.1688   93.2015 C   0  0  0  0  0  0  0  0  0  0  0  0
   68.2908   75.3012   93.5345 C   0  0  0  0  0  0  0  0  0  0  0  0
   71.8013   73.2510   91.7323 H   0  0  0  0  0  0  0  0  0  0  0  0
   66.4715   76.4635   87.9500 O   0  0  0  0  0  0  0  0  0  0  0  0
   67.8935   76.5894   87.8810 C   0  0  0  0  0  0  0  0  0  0  0  0
   68.3131   78.0299   87.6472 C   0  0  0  0  0  0  0  0  0  0  0  0
   67.5056   78.8345   86.8240 C   0  0  0  0  0  0  0  0  0  0  0  0
   67.8315   80.1662   86.5864 C   0  0  0  0  0  0  0  0  0  0  0  0
   68.9824   80.7140   87.1423 C   0  0  0  0  0  0  0  0  0  0  0  0
   69.8385   79.9294   87.9273 C   0  0  0  0  0  0  0  0  0  0  0  0
   69.5180   78.5672   88.1825 C   0  0  0  0  0  0  0  0  0  0  0  0
   70.4064   77.7076   89.0580 C   0  0  0  0  0  0  0  0  0  0  0  0
   71.0629   80.5684   88.4508 C   0  0  0  0  0  0  0  0  0  0  0  0
   72.3045   79.9268   88.3431 C   0  0  0  0  0  0  0  0  0  0  0  0
   73.4554   80.5534   88.8241 C   0  0  0  0  0  0  0  0  0  0  0  0
   73.3536   81.8221   89.3988 C   0  0  0  0  0  0  0  0  0  0  0  0
   72.1437   82.4367   89.4849 N   0  0  0  0  0  0  0  0  0  0  0  0
   71.0079   81.8464   89.0249 C   0  0  0  0  0  0  0  0  0  0  0  0
 13 14  1  0  0  0
 14 11  1  0  0  0
 11 12  2  0  0  0
 11 10  1  0  0  0
 10 15  1  0  0  0
 15 16  1  0  0  0
 16 17  2  0  0  0
 17 18  1  0  0  0
 18 19  2  0  0  0
 19 20  1  0  0  0
 19 21  1  0  0  0
 21 22  2  0  0  0
 10  8  1  0  0  0
  8  7  1  0  0  0
  7  1  1  0  0  0
  1  2  2  0  0  0
  2  3  1  0  0  0
  3  4  2  0  0  0
  4  5  1  0  0  0
  5 24  1  0  0  0
 24 25  1  0  0  0
 25 26  1  0  0  0
 26 27  2  0  0  0
 27 28  1  0  0  0
 28 29  2  0  0  0
 29 30  1  0  0  0
 30 33  1  0  0  0
 33 34  2  0  0  0
 34 35  1  0  0  0
 35 36  2  0  0  0
 36 37  2  0  0  0
 37 38  2  0  0  0
 30 31  2  0  0  0
 31 32  1  0  0  0
  5  6  2  0  0  0
 22 16  1  0  0  0
  6  1  1  0  0  0
 31 26  1  0  0  0
 38 33  1  0  0  0
 20 23  1  0  0  0
  8  9  1  0  0  0
M  END
> <Activity>
60.5

> <minimizedAffinity>
-9.52955

$$$$
HIPS7757 (IAE-158)


 38 41  0  0  0  0  0  0  0  0999 V2000
   65.0665   77.9043   90.9586 C   0  0  0  0  0  0  0  0  0  0  0  0
   63.8324   77.3185   91.2792 C   0  0  0  0  0  0  0  0  0  0  0  0
   63.2963   76.3192   90.4639 C   0  0  0  0  0  0  0  0  0  0  0  0
   63.9924   75.8858   89.3328 C   0  0  0  0  0  0  0  0  0  0  0  0
   65.2438   76.4472   89.0124 C   0  0  0  0  0  0  0  0  0  0  0  0
   65.7668   77.4592   89.8264 C   0  0  0  0  0  0  0  0  0  0  0  0
   65.6653   78.9593   91.8483 C   0  0  0  0  0  0  0  0  0  0  0  0
   67.0294   79.2751   91.4009 N   0  0  0  0  0  0  0  0  0  0  0  0
   67.2209   78.7642   90.5391 H   0  0  0  0  0  0  0  0  0  0  0  0
   68.0414   78.9001   92.4159 C   0  0  0  0  0  0  0  0  0  0  0  0
   68.3134   80.0524   93.3500 C   0  0  0  0  0  0  0  0  0  0  0  0
   68.6167   81.1836   92.8793 O   0  0  0  0  0  0  0  0  0  0  0  0
   68.5588   80.8733   95.6712 C   0  0  0  0  0  0  0  0  0  0  0  0
   68.2351   79.8553   94.7321 O   0  0  0  0  0  0  0  0  0  0  0  0
   67.5428   77.6990   93.2425 C   0  0  0  0  0  0  0  0  0  0  0  0
   68.3890   76.4715   93.0264 C   0  0  0  0  0  0  0  0  0  0  0  0
   69.7852   76.5796   92.9156 C   0  0  0  0  0  0  0  0  0  0  0  0
   70.5702   75.4337   92.7595 C   0  0  0  0  0  0  0  0  0  0  0  0
   69.9692   74.1684   92.7180 C   0  0  0  0  0  0  0  0  0  0  0  0
   70.7429   73.0200   92.5707 O   0  0  0  0  0  0  0  0  0  0  0  0
   68.5796   74.0563   92.8290 C   0  0  0  0  0  0  0  0  0  0  0  0
   67.7911   75.2009   92.9808 C   0  0  0  0  0  0  0  0  0  0  0  0
   71.6744   73.0890   92.4959 H   0  0  0  0  0  0  0  0  0  0  0  0
   66.0042   76.0249   87.9092 O   0  0  0  0  0  0  0  0  0  0  0  0
   66.9468   76.8341   87.2024 C   0  0  0  0  0  0  0  0  0  0  0  0
   68.2477   76.9736   87.9732 C   0  0  0  0  0  0  0  0  0  0  0  0
   68.7185   75.8616   88.6936 C   0  0  0  0  0  0  0  0  0  0  0  0
   69.9122   75.9256   89.4055 C   0  0  0  0  0  0  0  0  0  0  0  0
   70.6458   77.1065   89.4356 C   0  0  0  0  0  0  0  0  0  0  0  0
   70.1831   78.2507   88.7711 C   0  0  0  0  0  0  0  0  0  0  0  0
   68.9663   78.2010   88.0359 C   0  0  0  0  0  0  0  0  0  0  0  0
   68.4628   79.4121   87.2781 C   0  0  0  0  0  0  0  0  0  0  0  0
   70.9947   79.4797   88.8807 C   0  0  0  0  0  0  0  0  0  0  0  0
   72.3814   79.4392   88.6804 C   0  0  0  0  0  0  0  0  0  0  0  0
   73.1315   80.6134   88.7670 C   0  0  0  0  0  0  0  0  0  0  0  0
   72.4837   81.8195   89.0426 C   0  0  0  0  0  0  0  0  0  0  0  0
   71.1361   81.8444   89.2223 N   0  0  0  0  0  0  0  0  0  0  0  0
   70.3837   80.7140   89.1444 C   0  0  0  0  0  0  0  0  0  0  0  0
 13 14  1  0  0  0
 14 11  1  0  0  0
 11 12  2  0  0  0
 11 10  1  0  0  0
 10 15  1  0  0  0
 15 16  1  0  0  0
 16 17  2  0  0  0
 17 18  1  0  0  0
 18 19  2  0  0  0
 19 20  1  0  0  0
 19 21  1  0  0  0
 21 22  2  0  0  0
 10  8  1  0  0  0
  8  7  1  0  0  0
  7  1  1  0  0  0
  1  2  2  0  0  0
  2  3  1  0  0  0
  3  4  2  0  0  0
  4  5  1  0  0  0
  5 24  1  0  0  0
 24 25  1  0  0  0
 25 26  1  0  0  0
 26 27  2  0  0  0
 27 28  1  0  0  0
 28 29  2  0  0  0
 29 30  1  0  0  0
 30 33  1  0  0  0
 33 34  2  0  0  0
 34 35  1  0  0  0
 35 36  2  0  0  0
 36 37  2  0  0  0
 37 38  2  0  0  0
 30 31  2  0  0  0
 31 32  1  0  0  0
  5  6  2  0  0  0
 22 16  1  0  0  0
  6  1  1  0  0  0
 31 26  1  0  0  0
 38 33  1  0  0  0
 20 23  1  0  0  0
  8  9  1  0  0  0
M  END
> <Activity>
60.5

> <minimizedAffinity>
-9.34949

$$$$
HIPS7757 (IAE-158)


 38 41  0  0  0  0  0  0  0  0999 V2000
   66.5356   78.1553   91.7591 C   0  0  0  0  0  0  0  0  0  0  0  0
   67.1917   78.7812   92.8300 C   0  0  0  0  0  0  0  0  0  0  0  0
   68.4504   78.3355   93.2396 C   0  0  0  0  0  0  0  0  0  0  0  0
   69.0708   77.2740   92.5763 C   0  0  0  0  0  0  0  0  0  0  0  0
   68.4350   76.6523   91.4839 C   0  0  0  0  0  0  0  0  0  0  0  0
   67.1667   77.0952   91.0896 C   0  0  0  0  0  0  0  0  0  0  0  0
   65.1936   78.6491   91.2920 C   0  0  0  0  0  0  0  0  0  0  0  0
   64.8392   78.0047   90.0192 N   0  0  0  0  0  0  0  0  0  0  0  0
   64.7859   78.7176   89.2917 H   0  0  0  0  0  0  0  0  0  0  0  0
   63.5358   77.3050   90.1017 C   0  0  0  0  0  0  0  0  0  0  0  0
   63.4035   76.2902   88.9942 C   0  0  0  0  0  0  0  0  0  0  0  0
   64.4375   75.8499   88.4196 O   0  0  0  0  0  0  0  0  0  0  0  0
   61.8791   74.5158   88.1878 C   0  0  0  0  0  0  0  0  0  0  0  0
   62.1337   75.8509   88.6071 O   0  0  0  0  0  0  0  0  0  0  0  0
   63.4082   76.5807   91.4557 C   0  0  0  0  0  0  0  0  0  0  0  0
   63.8626   75.1465   91.3767 C   0  0  0  0  0  0  0  0  0  0  0  0
   62.9285   74.0991   91.4392 C   0  0  0  0  0  0  0  0  0  0  0  0
   63.3499   72.7716   91.3211 C   0  0  0  0  0  0  0  0  0  0  0  0
   64.7072   72.4773   91.1340 C   0  0  0  0  0  0  0  0  0  0  0  0
   65.1363   71.1586   91.0072 O   0  0  0  0  0  0  0  0  0  0  0  0
   65.6402   73.5171   91.0702 C   0  0  0  0  0  0  0  0  0  0  0  0
   65.2226   74.8459   91.1924 C   0  0  0  0  0  0  0  0  0  0  0  0
   64.5157   70.4579   91.0492 H   0  0  0  0  0  0  0  0  0  0  0  0
   69.0269   75.6058   90.7572 O   0  0  0  0  0  0  0  0  0  0  0  0
   69.3131   75.6364   89.3573 C   0  0  0  0  0  0  0  0  0  0  0  0
   69.3519   77.0596   88.8290 C   0  0  0  0  0  0  0  0  0  0  0  0
   68.2820   77.5048   88.0327 C   0  0  0  0  0  0  0  0  0  0  0  0
   68.2555   78.8034   87.5338 C   0  0  0  0  0  0  0  0  0  0  0  0
   69.3071   79.6746   87.7961 C   0  0  0  0  0  0  0  0  0  0  0  0
   70.4144   79.2513   88.5441 C   0  0  0  0  0  0  0  0  0  0  0  0
   70.4555   77.9279   89.0642 C   0  0  0  0  0  0  0  0  0  0  0  0
   71.6228   77.4567   89.9069 C   0  0  0  0  0  0  0  0  0  0  0  0
   71.5115   80.2188   88.7482 C   0  0  0  0  0  0  0  0  0  0  0  0
   72.8492   79.8074   88.6706 C   0  0  0  0  0  0  0  0  0  0  0  0
   73.8746   80.7385   88.8452 C   0  0  0  0  0  0  0  0  0  0  0  0
   73.5503   82.0755   89.0850 C   0  0  0  0  0  0  0  0  0  0  0  0
   72.2479   82.4612   89.1452 N   0  0  0  0  0  0  0  0  0  0  0  0
   71.2311   81.5730   88.9798 C   0  0  0  0  0  0  0  0  0  0  0  0
 13 14  1  0  0  0
 14 11  1  0  0  0
 11 12  2  0  0  0
 11 10  1  0  0  0
 10 15  1  0  0  0
 15 16  1  0  0  0
 16 17  2  0  0  0
 17 18  1  0  0  0
 18 19  2  0  0  0
 19 20  1  0  0  0
 19 21  1  0  0  0
 21 22  2  0  0  0
 10  8  1  0  0  0
  8  7  1  0  0  0
  7  1  1  0  0  0
  1  2  2  0  0  0
  2  3  1  0  0  0
  3  4  2  0  0  0
  4  5  1  0  0  0
  5 24  1  0  0  0
 24 25  1  0  0  0
 25 26  1  0  0  0
 26 27  2  0  0  0
 27 28  1  0  0  0
 28 29  2  0  0  0
 29 30  1  0  0  0
 30 33  1  0  0  0
 33 34  2  0  0  0
 34 35  1  0  0  0
 35 36  2  0  0  0
 36 37  2  0  0  0
 37 38  2  0  0  0
 30 31  2  0  0  0
 31 32  1  0  0  0
  5  6  2  0  0  0
 22 16  1  0  0  0
  6  1  1  0  0  0
 31 26  1  0  0  0
 38 33  1  0  0  0
 20 23  1  0  0  0
  8  9  1  0  0  0
M  END
> <Activity>
60.5

> <minimizedAffinity>
-9.09674

$$$$
HIPS7757 (IAE-158)


 38 41  0  0  0  0  0  0  0  0999 V2000
   67.2050   77.2440   92.0893 C   0  0  0  0  0  0  0  0  0  0  0  0
   66.4927   78.3644   92.5435 C   0  0  0  0  0  0  0  0  0  0  0  0
   65.7887   79.1630   91.6394 C   0  0  0  0  0  0  0  0  0  0  0  0
   65.7766   78.8427   90.2796 C   0  0  0  0  0  0  0  0  0  0  0  0
   66.4665   77.7069   89.8128 C   0  0  0  0  0  0  0  0  0  0  0  0
   67.1824   76.9206   90.7236 C   0  0  0  0  0  0  0  0  0  0  0  0
   67.9403   76.3613   93.0606 C   0  0  0  0  0  0  0  0  0  0  0  0
   67.3139   75.0321   93.1009 N   0  0  0  0  0  0  0  0  0  0  0  0
   67.5367   74.5889   93.9922 H   0  0  0  0  0  0  0  0  0  0  0  0
   67.7945   74.1644   92.0003 C   0  0  0  0  0  0  0  0  0  0  0  0
   69.1198   73.5379   92.3539 C   0  0  0  0  0  0  0  0  0  0  0  0
   69.1571   72.3567   92.7972 O   0  0  0  0  0  0  0  0  0  0  0  0
   70.6037   74.9820   90.9994 C   0  0  0  0  0  0  0  0  0  0  0  0
   70.2973   74.2750   92.1949 O   0  0  0  0  0  0  0  0  0  0  0  0
   66.7737   73.0433   91.7254 C   0  0  0  0  0  0  0  0  0  0  0  0
   65.4079   73.5879   91.3971 C   0  0  0  0  0  0  0  0  0  0  0  0
   65.2442   74.5230   90.3616 C   0  0  0  0  0  0  0  0  0  0  0  0
   63.9697   74.9921   90.0313 C   0  0  0  0  0  0  0  0  0  0  0  0
   62.8457   74.5282   90.7281 C   0  0  0  0  0  0  0  0  0  0  0  0
   61.5708   74.9833   90.4016 O   0  0  0  0  0  0  0  0  0  0  0  0
   63.0043   73.5965   91.7590 C   0  0  0  0  0  0  0  0  0  0  0  0
   64.2783   73.1285   92.0948 C   0  0  0  0  0  0  0  0  0  0  0  0
   61.4586   75.6075   89.7118 H   0  0  0  0  0  0  0  0  0  0  0  0
   66.4588   77.3164   88.4633 O   0  0  0  0  0  0  0  0  0  0  0  0
   67.6035   77.2930   87.6078 C   0  0  0  0  0  0  0  0  0  0  0  0
   68.2023   78.6786   87.4428 C   0  0  0  0  0  0  0  0  0  0  0  0
   67.5321   79.6012   86.6202 C   0  0  0  0  0  0  0  0  0  0  0  0
   68.0251   80.8903   86.4440 C   0  0  0  0  0  0  0  0  0  0  0  0
   69.2094   81.2763   87.0621 C   0  0  0  0  0  0  0  0  0  0  0  0
   69.9319   80.3689   87.8491 C   0  0  0  0  0  0  0  0  0  0  0  0
   69.4398   79.0482   88.0421 C   0  0  0  0  0  0  0  0  0  0  0  0
   70.1815   78.0596   88.9179 C   0  0  0  0  0  0  0  0  0  0  0  0
   71.2013   80.8374   88.4410 C   0  0  0  0  0  0  0  0  0  0  0  0
   72.3629   80.0585   88.3466 C   0  0  0  0  0  0  0  0  0  0  0  0
   73.5597   80.5251   88.8931 C   0  0  0  0  0  0  0  0  0  0  0  0
   73.5844   81.7730   89.5195 C   0  0  0  0  0  0  0  0  0  0  0  0
   72.4521   82.5223   89.5921 N   0  0  0  0  0  0  0  0  0  0  0  0
   71.2737   82.0891   89.0688 C   0  0  0  0  0  0  0  0  0  0  0  0
 13 14  1  0  0  0
 14 11  1  0  0  0
 11 12  2  0  0  0
 11 10  1  0  0  0
 10 15  1  0  0  0
 15 16  1  0  0  0
 16 17  2  0  0  0
 17 18  1  0  0  0
 18 19  2  0  0  0
 19 20  1  0  0  0
 19 21  1  0  0  0
 21 22  2  0  0  0
 10  8  1  0  0  0
  8  7  1  0  0  0
  7  1  1  0  0  0
  1  2  2  0  0  0
  2  3  1  0  0  0
  3  4  2  0  0  0
  4  5  1  0  0  0
  5 24  1  0  0  0
 24 25  1  0  0  0
 25 26  1  0  0  0
 26 27  2  0  0  0
 27 28  1  0  0  0
 28 29  2  0  0  0
 29 30  1  0  0  0
 30 33  1  0  0  0
 33 34  2  0  0  0
 34 35  1  0  0  0
 35 36  2  0  0  0
 36 37  2  0  0  0
 37 38  2  0  0  0
 30 31  2  0  0  0
 31 32  1  0  0  0
  5  6  2  0  0  0
 22 16  1  0  0  0
  6  1  1  0  0  0
 31 26  1  0  0  0
 38 33  1  0  0  0
 20 23  1  0  0  0
  8  9  1  0  0  0
M  END
> <Activity>
60.5

> <minimizedAffinity>
-8.85387

$$$$
HIPS7757 (IAE-158)


 38 41  0  0  0  0  0  0  0  0999 V2000
   67.6422   79.0150   86.8905 C   0  0  0  0  0  0  0  0  0  0  0  0
   66.9657   79.4765   85.7511 C   0  0  0  0  0  0  0  0  0  0  0  0
   67.2955   80.7129   85.1913 C   0  0  0  0  0  0  0  0  0  0  0  0
   68.3110   81.4908   85.7529 C   0  0  0  0  0  0  0  0  0  0  0  0
   69.0154   81.0290   86.8818 C   0  0  0  0  0  0  0  0  0  0  0  0
   68.6681   79.7955   87.4459 C   0  0  0  0  0  0  0  0  0  0  0  0
   67.3143   77.6708   87.4812 C   0  0  0  0  0  0  0  0  0  0  0  0
   66.2463   77.8114   88.4813 N   0  0  0  0  0  0  0  0  0  0  0  0
   65.9430   78.7850   88.5060 H   0  0  0  0  0  0  0  0  0  0  0  0
   66.7047   77.4173   89.8340 C   0  0  0  0  0  0  0  0  0  0  0  0
   66.0173   78.2427   90.8924 C   0  0  0  0  0  0  0  0  0  0  0  0
   65.2838   79.2125   90.5539 O   0  0  0  0  0  0  0  0  0  0  0  0
   67.4368   78.1574   92.9173 C   0  0  0  0  0  0  0  0  0  0  0  0
   66.2053   77.9311   92.2425 O   0  0  0  0  0  0  0  0  0  0  0  0
   66.3936   75.9293   90.0860 C   0  0  0  0  0  0  0  0  0  0  0  0
   64.9327   75.6151   89.8947 C   0  0  0  0  0  0  0  0  0  0  0  0
   64.1180   75.3166   90.9996 C   0  0  0  0  0  0  0  0  0  0  0  0
   62.7538   75.0692   90.8222 C   0  0  0  0  0  0  0  0  0  0  0  0
   62.1888   75.1225   89.5408 C   0  0  0  0  0  0  0  0  0  0  0  0
   60.8294   74.8853   89.3544 O   0  0  0  0  0  0  0  0  0  0  0  0
   62.9963   75.4202   88.4384 C   0  0  0  0  0  0  0  0  0  0  0  0
   64.3621   75.6640   88.6118 C   0  0  0  0  0  0  0  0  0  0  0  0
   60.2836   74.6854   90.0893 H   0  0  0  0  0  0  0  0  0  0  0  0
   70.0693   81.7514   87.4658 O   0  0  0  0  0  0  0  0  0  0  0  0
   70.5448   81.5760   88.8022 C   0  0  0  0  0  0  0  0  0  0  0  0
   71.2282   80.2312   88.9767 C   0  0  0  0  0  0  0  0  0  0  0  0
   72.5084   80.0568   88.4219 C   0  0  0  0  0  0  0  0  0  0  0  0
   73.1896   78.8518   88.5634 C   0  0  0  0  0  0  0  0  0  0  0  0
   72.5976   77.7890   89.2368 C   0  0  0  0  0  0  0  0  0  0  0  0
   71.3026   77.9087   89.7600 C   0  0  0  0  0  0  0  0  0  0  0  0
   70.5940   79.1348   89.6268 C   0  0  0  0  0  0  0  0  0  0  0  0
   69.2083   79.3029   90.2154 C   0  0  0  0  0  0  0  0  0  0  0  0
   70.7231   76.7252   90.4270 C   0  0  0  0  0  0  0  0  0  0  0  0
   70.7327   76.6178   91.8246 C   0  0  0  0  0  0  0  0  0  0  0  0
   70.1621   75.5025   92.4406 C   0  0  0  0  0  0  0  0  0  0  0  0
   69.5772   74.5102   91.6511 C   0  0  0  0  0  0  0  0  0  0  0  0
   69.5650   74.6347   90.2971 N   0  0  0  0  0  0  0  0  0  0  0  0
   70.1155   75.7109   89.6734 C   0  0  0  0  0  0  0  0  0  0  0  0
 13 14  1  0  0  0
 14 11  1  0  0  0
 11 12  2  0  0  0
 11 10  1  0  0  0
 10 15  1  0  0  0
 15 16  1  0  0  0
 16 17  2  0  0  0
 17 18  1  0  0  0
 18 19  2  0  0  0
 19 20  1  0  0  0
 19 21  1  0  0  0
 21 22  2  0  0  0
 10  8  1  0  0  0
  8  7  1  0  0  0
  7  1  1  0  0  0
  1  2  2  0  0  0
  2  3  1  0  0  0
  3  4  2  0  0  0
  4  5  1  0  0  0
  5 24  1  0  0  0
 24 25  1  0  0  0
 25 26  1  0  0  0
 26 27  2  0  0  0
 27 28  1  0  0  0
 28 29  2  0  0  0
 29 30  1  0  0  0
 30 33  1  0  0  0
 33 34  2  0  0  0
 34 35  1  0  0  0
 35 36  2  0  0  0
 36 37  2  0  0  0
 37 38  2  0  0  0
 30 31  2  0  0  0
 31 32  1  0  0  0
  5  6  2  0  0  0
 22 16  1  0  0  0
  6  1  1  0  0  0
 31 26  1  0  0  0
 38 33  1  0  0  0
 20 23  1  0  0  0
  8  9  1  0  0  0
M  END
> <Activity>
60.5

> <minimizedAffinity>
-8.67971

$$$$
HIPS7757 (IAE-158)


 38 41  0  0  0  0  0  0  0  0999 V2000
   65.1979   78.0892   90.9856 C   0  0  0  0  0  0  0  0  0  0  0  0
   63.9580   77.5325   91.3342 C   0  0  0  0  0  0  0  0  0  0  0  0
   63.4067   76.5070   90.5627 C   0  0  0  0  0  0  0  0  0  0  0  0
   64.0932   76.0186   89.4483 C   0  0  0  0  0  0  0  0  0  0  0  0
   65.3502   76.5508   89.1009 C   0  0  0  0  0  0  0  0  0  0  0  0
   65.8885   77.5891   89.8706 C   0  0  0  0  0  0  0  0  0  0  0  0
   65.8129   79.1727   91.8289 C   0  0  0  0  0  0  0  0  0  0  0  0
   67.2540   78.9281   91.9840 N   0  0  0  0  0  0  0  0  0  0  0  0
   67.5686   78.3184   91.2292 H   0  0  0  0  0  0  0  0  0  0  0  0
   67.5658   78.2850   93.2818 C   0  0  0  0  0  0  0  0  0  0  0  0
   67.9420   76.8381   93.0841 C   0  0  0  0  0  0  0  0  0  0  0  0
   67.0382   75.9671   92.9516 O   0  0  0  0  0  0  0  0  0  0  0  0
   69.7205   75.1463   92.7731 C   0  0  0  0  0  0  0  0  0  0  0  0
   69.2913   76.4721   93.0574 O   0  0  0  0  0  0  0  0  0  0  0  0
   68.7389   79.0134   93.9656 C   0  0  0  0  0  0  0  0  0  0  0  0
   68.2687   80.1303   94.8605 C   0  0  0  0  0  0  0  0  0  0  0  0
   67.7440   81.3112   94.3095 C   0  0  0  0  0  0  0  0  0  0  0  0
   67.2681   82.3268   95.1437 C   0  0  0  0  0  0  0  0  0  0  0  0
   67.3066   82.1709   96.5359 C   0  0  0  0  0  0  0  0  0  0  0  0
   66.8277   83.1733   97.3755 O   0  0  0  0  0  0  0  0  0  0  0  0
   67.8273   80.9964   97.0884 C   0  0  0  0  0  0  0  0  0  0  0  0
   68.3082   79.9804   96.2568 C   0  0  0  0  0  0  0  0  0  0  0  0
   66.4777   83.9624   97.0109 H   0  0  0  0  0  0  0  0  0  0  0  0
   66.1013   76.0739   88.0137 O   0  0  0  0  0  0  0  0  0  0  0  0
   67.0736   76.8320   87.2907 C   0  0  0  0  0  0  0  0  0  0  0  0
   68.3662   76.9704   88.0756 C   0  0  0  0  0  0  0  0  0  0  0  0
   68.7918   75.8816   88.8568 C   0  0  0  0  0  0  0  0  0  0  0  0
   69.9759   75.9449   89.5848 C   0  0  0  0  0  0  0  0  0  0  0  0
   70.7445   77.1037   89.5699 C   0  0  0  0  0  0  0  0  0  0  0  0
   70.3270   78.2272   88.8430 C   0  0  0  0  0  0  0  0  0  0  0  0
   69.1207   78.1776   88.0908 C   0  0  0  0  0  0  0  0  0  0  0  0
   68.6660   79.3646   87.2668 C   0  0  0  0  0  0  0  0  0  0  0  0
   71.1739   79.4355   88.9066 C   0  0  0  0  0  0  0  0  0  0  0  0
   72.5679   79.3362   88.7983 C   0  0  0  0  0  0  0  0  0  0  0  0
   73.3528   80.4900   88.8394 C   0  0  0  0  0  0  0  0  0  0  0  0
   72.7330   81.7338   88.9774 C   0  0  0  0  0  0  0  0  0  0  0  0
   71.3788   81.8146   89.0688 N   0  0  0  0  0  0  0  0  0  0  0  0
   70.5925   80.7052   89.0328 C   0  0  0  0  0  0  0  0  0  0  0  0
 13 14  1  0  0  0
 14 11  1  0  0  0
 11 12  2  0  0  0
 11 10  1  0  0  0
 10 15  1  0  0  0
 15 16  1  0  0  0
 16 17  2  0  0  0
 17 18  1  0  0  0
 18 19  2  0  0  0
 19 20  1  0  0  0
 19 21  1  0  0  0
 21 22  2  0  0  0
 10  8  1  0  0  0
  8  7  1  0  0  0
  7  1  1  0  0  0
  1  2  2  0  0  0
  2  3  1  0  0  0
  3  4  2  0  0  0
  4  5  1  0  0  0
  5 24  1  0  0  0
 24 25  1  0  0  0
 25 26  1  0  0  0
 26 27  2  0  0  0
 27 28  1  0  0  0
 28 29  2  0  0  0
 29 30  1  0  0  0
 30 33  1  0  0  0
 33 34  2  0  0  0
 34 35  1  0  0  0
 35 36  2  0  0  0
 36 37  2  0  0  0
 37 38  2  0  0  0
 30 31  2  0  0  0
 31 32  1  0  0  0
  5  6  2  0  0  0
 22 16  1  0  0  0
  6  1  1  0  0  0
 31 26  1  0  0  0
 38 33  1  0  0  0
 20 23  1  0  0  0
  8  9  1  0  0  0
M  END
> <Activity>
60.5

> <minimizedAffinity>
-8.66615

$$$$
HIPS7757 (IAE-158)


 38 41  0  0  0  0  0  0  0  0999 V2000
   66.0276   75.0163   90.9862 C   0  0  0  0  0  0  0  0  0  0  0  0
   64.6254   74.9916   90.9404 C   0  0  0  0  0  0  0  0  0  0  0  0
   63.9473   75.5802   89.8706 C   0  0  0  0  0  0  0  0  0  0  0  0
   64.6608   76.1836   88.8321 C   0  0  0  0  0  0  0  0  0  0  0  0
   66.0692   76.1941   88.8525 C   0  0  0  0  0  0  0  0  0  0  0  0
   66.7407   75.6153   89.9361 C   0  0  0  0  0  0  0  0  0  0  0  0
   66.7664   74.3576   92.1192 C   0  0  0  0  0  0  0  0  0  0  0  0
   67.2656   75.3788   93.0511 N   0  0  0  0  0  0  0  0  0  0  0  0
   67.1814   76.2958   92.6123 H   0  0  0  0  0  0  0  0  0  0  0  0
   68.6841   75.1478   93.4113 C   0  0  0  0  0  0  0  0  0  0  0  0
   69.1466   73.7987   92.9214 C   0  0  0  0  0  0  0  0  0  0  0  0
   68.3471   72.8220   92.9247 O   0  0  0  0  0  0  0  0  0  0  0  0
   71.1797   72.4204   92.6234 C   0  0  0  0  0  0  0  0  0  0  0  0
   70.4619   73.6392   92.4745 O   0  0  0  0  0  0  0  0  0  0  0  0
   69.5746   76.2361   92.7812 C   0  0  0  0  0  0  0  0  0  0  0  0
   69.0692   77.6241   93.0774 C   0  0  0  0  0  0  0  0  0  0  0  0
   68.2686   78.3044   92.1448 C   0  0  0  0  0  0  0  0  0  0  0  0
   67.7654   79.5741   92.4422 C   0  0  0  0  0  0  0  0  0  0  0  0
   68.0522   80.1745   93.6756 C   0  0  0  0  0  0  0  0  0  0  0  0
   67.5493   81.4357   93.9847 O   0  0  0  0  0  0  0  0  0  0  0  0
   68.8481   79.5001   94.6071 C   0  0  0  0  0  0  0  0  0  0  0  0
   69.3567   78.2318   94.3110 C   0  0  0  0  0  0  0  0  0  0  0  0
   67.0155   81.8921   93.3645 H   0  0  0  0  0  0  0  0  0  0  0  0
   66.8383   76.7535   87.8185 O   0  0  0  0  0  0  0  0  0  0  0  0
   67.4524   78.0435   87.8564 C   0  0  0  0  0  0  0  0  0  0  0  0
   68.8677   77.9694   88.4017 C   0  0  0  0  0  0  0  0  0  0  0  0
   69.2855   76.7735   89.0120 C   0  0  0  0  0  0  0  0  0  0  0  0
   70.5758   76.6419   89.5157 C   0  0  0  0  0  0  0  0  0  0  0  0
   71.4657   77.7081   89.4455 C   0  0  0  0  0  0  0  0  0  0  0  0
   71.0695   78.9324   88.8895 C   0  0  0  0  0  0  0  0  0  0  0  0
   69.7550   79.0822   88.3670 C   0  0  0  0  0  0  0  0  0  0  0  0
   69.3134   80.3824   87.7272 C   0  0  0  0  0  0  0  0  0  0  0  0
   72.0555   80.0320   88.8856 C   0  0  0  0  0  0  0  0  0  0  0  0
   71.6342   81.3678   88.8292 C   0  0  0  0  0  0  0  0  0  0  0  0
   72.5781   82.3962   88.8474 C   0  0  0  0  0  0  0  0  0  0  0  0
   73.9349   82.0773   88.9333 C   0  0  0  0  0  0  0  0  0  0  0  0
   74.3271   80.7770   88.9997 N   0  0  0  0  0  0  0  0  0  0  0  0
   73.4271   79.7573   88.9822 C   0  0  0  0  0  0  0  0  0  0  0  0
 13 14  1  0  0  0
 14 11  1  0  0  0
 11 12  2  0  0  0
 11 10  1  0  0  0
 10 15  1  0  0  0
 15 16  1  0  0  0
 16 17  2  0  0  0
 17 18  1  0  0  0
 18 19  2  0  0  0
 19 20  1  0  0  0
 19 21  1  0  0  0
 21 22  2  0  0  0
 10  8  1  0  0  0
  8  7  1  0  0  0
  7  1  1  0  0  0
  1  2  2  0  0  0
  2  3  1  0  0  0
  3  4  2  0  0  0
  4  5  1  0  0  0
  5 24  1  0  0  0
 24 25  1  0  0  0
 25 26  1  0  0  0
 26 27  2  0  0  0
 27 28  1  0  0  0
 28 29  2  0  0  0
 29 30  1  0  0  0
 30 33  1  0  0  0
 33 34  2  0  0  0
 34 35  1  0  0  0
 35 36  2  0  0  0
 36 37  2  0  0  0
 37 38  2  0  0  0
 30 31  2  0  0  0
 31 32  1  0  0  0
  5  6  2  0  0  0
 22 16  1  0  0  0
  6  1  1  0  0  0
 31 26  1  0  0  0
 38 33  1  0  0  0
 20 23  1  0  0  0
  8  9  1  0  0  0
M  END
> <Activity>
60.5

> <minimizedAffinity>
-8.58550

$$$$
HIPS7757 (IAE-158)


 38 41  0  0  0  0  0  0  0  0999 V2000
   67.5427   78.0493   92.4647 C   0  0  0  0  0  0  0  0  0  0  0  0
   67.9217   78.7015   93.6478 C   0  0  0  0  0  0  0  0  0  0  0  0
   69.0961   78.3324   94.3079 C   0  0  0  0  0  0  0  0  0  0  0  0
   69.9083   77.3225   93.7864 C   0  0  0  0  0  0  0  0  0  0  0  0
   69.5531   76.6762   92.5863 C   0  0  0  0  0  0  0  0  0  0  0  0
   68.3665   77.0416   91.9393 C   0  0  0  0  0  0  0  0  0  0  0  0
   66.2956   78.4617   91.7312 C   0  0  0  0  0  0  0  0  0  0  0  0
   66.1092   77.6129   90.5457 N   0  0  0  0  0  0  0  0  0  0  0  0
   65.9286   78.2089   89.7379 H   0  0  0  0  0  0  0  0  0  0  0  0
   64.9742   76.6756   90.7138 C   0  0  0  0  0  0  0  0  0  0  0  0
   64.0225   76.7749   89.5482 C   0  0  0  0  0  0  0  0  0  0  0  0
   63.1531   77.6897   89.5241 O   0  0  0  0  0  0  0  0  0  0  0  0
   62.9859   75.0922   88.0596 C   0  0  0  0  0  0  0  0  0  0  0  0
   64.1062   75.8461   88.5063 O   0  0  0  0  0  0  0  0  0  0  0  0
   65.4925   75.2276   90.8086 C   0  0  0  0  0  0  0  0  0  0  0  0
   64.4477   74.2853   91.3471 C   0  0  0  0  0  0  0  0  0  0  0  0
   64.7064   72.9070   91.4294 C   0  0  0  0  0  0  0  0  0  0  0  0
   63.7511   72.0422   91.9707 C   0  0  0  0  0  0  0  0  0  0  0  0
   62.5304   72.5457   92.4400 C   0  0  0  0  0  0  0  0  0  0  0  0
   61.5751   71.6936   92.9883 O   0  0  0  0  0  0  0  0  0  0  0  0
   62.2693   73.9174   92.3608 C   0  0  0  0  0  0  0  0  0  0  0  0
   63.2210   74.7847   91.8159 C   0  0  0  0  0  0  0  0  0  0  0  0
   61.7446   70.7738   93.0438 H   0  0  0  0  0  0  0  0  0  0  0  0
   70.3496   75.6803   91.9969 O   0  0  0  0  0  0  0  0  0  0  0  0
   70.8888   75.7347   90.6744 C   0  0  0  0  0  0  0  0  0  0  0  0
   69.8318   76.1328   89.6594 C   0  0  0  0  0  0  0  0  0  0  0  0
   68.9295   75.1499   89.2158 C   0  0  0  0  0  0  0  0  0  0  0  0
   67.9302   75.4599   88.2986 C   0  0  0  0  0  0  0  0  0  0  0  0
   67.8276   76.7482   87.7854 C   0  0  0  0  0  0  0  0  0  0  0  0
   68.7398   77.7422   88.1658 C   0  0  0  0  0  0  0  0  0  0  0  0
   69.7652   77.4425   89.1051 C   0  0  0  0  0  0  0  0  0  0  0  0
   70.7408   78.5077   89.5613 C   0  0  0  0  0  0  0  0  0  0  0  0
   68.5935   79.0761   87.5490 C   0  0  0  0  0  0  0  0  0  0  0  0
   67.6386   79.2980   86.5471 C   0  0  0  0  0  0  0  0  0  0  0  0
   67.4986   80.5699   85.9888 C   0  0  0  0  0  0  0  0  0  0  0  0
   68.3090   81.6106   86.4474 C   0  0  0  0  0  0  0  0  0  0  0  0
   69.2222   81.3823   87.4286 N   0  0  0  0  0  0  0  0  0  0  0  0
   69.3787   80.1520   87.9873 C   0  0  0  0  0  0  0  0  0  0  0  0
 13 14  1  0  0  0
 14 11  1  0  0  0
 11 12  2  0  0  0
 11 10  1  0  0  0
 10 15  1  0  0  0
 15 16  1  0  0  0
 16 17  2  0  0  0
 17 18  1  0  0  0
 18 19  2  0  0  0
 19 20  1  0  0  0
 19 21  1  0  0  0
 21 22  2  0  0  0
 10  8  1  0  0  0
  8  7  1  0  0  0
  7  1  1  0  0  0
  1  2  2  0  0  0
  2  3  1  0  0  0
  3  4  2  0  0  0
  4  5  1  0  0  0
  5 24  1  0  0  0
 24 25  1  0  0  0
 25 26  1  0  0  0
 26 27  2  0  0  0
 27 28  1  0  0  0
 28 29  2  0  0  0
 29 30  1  0  0  0
 30 33  1  0  0  0
 33 34  2  0  0  0
 34 35  1  0  0  0
 35 36  2  0  0  0
 36 37  2  0  0  0
 37 38  2  0  0  0
 30 31  2  0  0  0
 31 32  1  0  0  0
  5  6  2  0  0  0
 22 16  1  0  0  0
  6  1  1  0  0  0
 31 26  1  0  0  0
 38 33  1  0  0  0
 20 23  1  0  0  0
  8  9  1  0  0  0
M  END
> <Activity>
60.5

> <minimizedAffinity>
-8.42046

$$$$
HIPS7757 (IAE-158)


 38 41  0  0  0  0  0  0  0  0999 V2000
   67.4365   78.1500   87.1982 C   0  0  0  0  0  0  0  0  0  0  0  0
   66.8554   78.5431   85.9830 C   0  0  0  0  0  0  0  0  0  0  0  0
   67.1503   79.7938   85.4355 C   0  0  0  0  0  0  0  0  0  0  0  0
   68.0373   80.6548   86.0863 C   0  0  0  0  0  0  0  0  0  0  0  0
   68.6474   80.2635   87.2941 C   0  0  0  0  0  0  0  0  0  0  0  0
   68.3344   79.0145   87.8438 C   0  0  0  0  0  0  0  0  0  0  0  0
   67.1481   76.7925   87.7788 C   0  0  0  0  0  0  0  0  0  0  0  0
   65.6959   76.5749   87.8437 N   0  0  0  0  0  0  0  0  0  0  0  0
   65.2244   77.4785   87.8044 H   0  0  0  0  0  0  0  0  0  0  0  0
   65.2994   75.8808   89.0912 C   0  0  0  0  0  0  0  0  0  0  0  0
   65.4137   76.8060   90.2766 C   0  0  0  0  0  0  0  0  0  0  0  0
   65.9548   76.3978   91.3414 O   0  0  0  0  0  0  0  0  0  0  0  0
   64.9211   79.0096   91.2883 C   0  0  0  0  0  0  0  0  0  0  0  0
   64.9110   78.1078   90.1884 O   0  0  0  0  0  0  0  0  0  0  0  0
   63.8427   75.3899   88.9842 C   0  0  0  0  0  0  0  0  0  0  0  0
   63.4228   74.5926   90.1915 C   0  0  0  0  0  0  0  0  0  0  0  0
   64.2654   73.5987   90.7167 C   0  0  0  0  0  0  0  0  0  0  0  0
   63.8913   72.8920   91.8631 C   0  0  0  0  0  0  0  0  0  0  0  0
   62.6750   73.1743   92.4993 C   0  0  0  0  0  0  0  0  0  0  0  0
   62.2967   72.4814   93.6465 O   0  0  0  0  0  0  0  0  0  0  0  0
   61.8338   74.1636   91.9802 C   0  0  0  0  0  0  0  0  0  0  0  0
   62.2029   74.8694   90.8310 C   0  0  0  0  0  0  0  0  0  0  0  0
   62.8563   71.8175   93.9987 H   0  0  0  0  0  0  0  0  0  0  0  0
   69.5742   81.0725   87.9724 O   0  0  0  0  0  0  0  0  0  0  0  0
   70.0077   80.8736   89.3197 C   0  0  0  0  0  0  0  0  0  0  0  0
   70.5108   79.4575   89.5382 C   0  0  0  0  0  0  0  0  0  0  0  0
   71.6998   79.0660   88.8978 C   0  0  0  0  0  0  0  0  0  0  0  0
   72.2171   77.7863   89.0733 C   0  0  0  0  0  0  0  0  0  0  0  0
   71.5458   76.8639   89.8682 C   0  0  0  0  0  0  0  0  0  0  0  0
   70.3318   77.2015   90.4824 C   0  0  0  0  0  0  0  0  0  0  0  0
   69.7911   78.5066   90.3158 C   0  0  0  0  0  0  0  0  0  0  0  0
   68.5002   78.9092   90.9986 C   0  0  0  0  0  0  0  0  0  0  0  0
   69.6556   76.1577   91.2789 C   0  0  0  0  0  0  0  0  0  0  0  0
   69.6987   76.1891   92.6797 C   0  0  0  0  0  0  0  0  0  0  0  0
   69.0367   75.2068   93.4183 C   0  0  0  0  0  0  0  0  0  0  0  0
   68.3281   74.2081   92.7468 C   0  0  0  0  0  0  0  0  0  0  0  0
   68.2854   74.1983   91.3878 N   0  0  0  0  0  0  0  0  0  0  0  0
   68.9232   75.1433   90.6459 C   0  0  0  0  0  0  0  0  0  0  0  0
 13 14  1  0  0  0
 14 11  1  0  0  0
 11 12  2  0  0  0
 11 10  1  0  0  0
 10 15  1  0  0  0
 15 16  1  0  0  0
 16 17  2  0  0  0
 17 18  1  0  0  0
 18 19  2  0  0  0
 19 20  1  0  0  0
 19 21  1  0  0  0
 21 22  2  0  0  0
 10  8  1  0  0  0
  8  7  1  0  0  0
  7  1  1  0  0  0
  1  2  2  0  0  0
  2  3  1  0  0  0
  3  4  2  0  0  0
  4  5  1  0  0  0
  5 24  1  0  0  0
 24 25  1  0  0  0
 25 26  1  0  0  0
 26 27  2  0  0  0
 27 28  1  0  0  0
 28 29  2  0  0  0
 29 30  1  0  0  0
 30 33  1  0  0  0
 33 34  2  0  0  0
 34 35  1  0  0  0
 35 36  2  0  0  0
 36 37  2  0  0  0
 37 38  2  0  0  0
 30 31  2  0  0  0
 31 32  1  0  0  0
  5  6  2  0  0  0
 22 16  1  0  0  0
  6  1  1  0  0  0
 31 26  1  0  0  0
 38 33  1  0  0  0
 20 23  1  0  0  0
  8  9  1  0  0  0
M  END
> <Activity>
60.5

> <minimizedAffinity>
-8.41143

$$$$
HIPS6547


 36 38  0  0  0  0  0  0  0  0999 V2000
   68.0461   74.3574   91.6909 C   0  0  0  0  0  0  0  0  0  0  0  0
   68.5062   73.7605   92.8720 C   0  0  0  0  0  0  0  0  0  0  0  0
   69.8769   73.7039   93.1368 C   0  0  0  0  0  0  0  0  0  0  0  0
   70.7897   74.2679   92.2398 C   0  0  0  0  0  0  0  0  0  0  0  0
   70.3361   74.8928   91.0679 C   0  0  0  0  0  0  0  0  0  0  0  0
   68.9619   74.9052   90.7841 C   0  0  0  0  0  0  0  0  0  0  0  0
   66.3703   71.9424   91.2946 C   0  0  0  0  0  0  0  0  0  0  0  0
   65.8011   73.3325   91.1872 C   0  0  0  0  0  0  0  0  0  0  0  0
   64.4641   73.5070   90.7928 C   0  0  0  0  0  0  0  0  0  0  0  0
   63.9334   74.7896   90.6288 C   0  0  0  0  0  0  0  0  0  0  0  0
   64.7269   75.9164   90.8687 C   0  0  0  0  0  0  0  0  0  0  0  0
   66.0519   75.7547   91.2904 C   0  0  0  0  0  0  0  0  0  0  0  0
   66.6040   74.4723   91.4216 C   0  0  0  0  0  0  0  0  0  0  0  0
   64.0723   77.5240   90.5785 S   0  0  0  0  0  0  0  0  0  0  0  0
   63.1515   77.4260   89.3953 O   0  0  0  0  0  0  0  0  0  0  0  0
   63.2541   77.9766   91.7564 O   0  0  0  0  0  0  0  0  0  0  0  0
   65.3119   78.7001   90.2072 N   0  0  0  0  0  0  0  0  0  0  0  0
   65.6620   79.0652   91.0929 H   0  0  0  0  0  0  0  0  0  0  0  0
   66.4846   78.2348   89.4227 C   0  0  0  0  0  0  0  0  0  0  0  0
   66.9608   79.3311   88.4454 C   0  0  0  0  0  0  0  0  0  0  0  0
   67.6363   77.9740   90.4187 C   0  0  0  0  0  0  0  0  0  0  0  0
   66.2060   76.9219   88.6603 C   0  0  0  0  0  0  0  0  0  0  0  0
   71.3131   75.5364   90.1163 C   0  0  0  0  0  0  0  0  0  0  0  0
   70.7201   76.6511   89.4447 O   0  0  0  0  0  0  0  0  0  0  0  0
   71.3592   77.8758   89.1887 C   0  0  0  0  0  0  0  0  0  0  0  0
   72.7394   77.9685   88.9428 C   0  0  0  0  0  0  0  0  0  0  0  0
   73.3325   79.2143   88.7382 C   0  0  0  0  0  0  0  0  0  0  0  0
   72.5672   80.3851   88.7713 C   0  0  0  0  0  0  0  0  0  0  0  0
   73.2377   81.6073   88.6542 O   0  0  0  0  0  0  0  0  0  0  0  0
   71.1664   80.3016   88.9601 C   0  0  0  0  0  0  0  0  0  0  0  0
   70.5842   79.0410   89.1869 C   0  0  0  0  0  0  0  0  0  0  0  0
   74.1663   81.6222   88.5299 H   0  0  0  0  0  0  0  0  0  0  0  0
   70.2889   81.4882   88.8956 C   0  0  0  0  0  0  0  0  0  0  0  0
   69.5238   81.6538   87.9078 O   0  0  0  0  0  0  0  0  0  0  0  0
   70.3345   82.4569   89.8943 O   0  0  0  0  0  0  0  0  0  0  0  0
   70.9002   82.3425   90.6324 H   0  0  0  0  0  0  0  0  0  0  0  0
  7  8  1  0  0  0
  8  9  2  0  0  0
  9 10  1  0  0  0
 10 11  2  0  0  0
 11 14  1  0  0  0
 14 15  2  0  0  0
 14 16  2  0  0  0
 14 17  1  0  0  0
 17 19  1  0  0  0
 19 20  1  0  0  0
 19 21  1  0  0  0
 19 22  1  0  0  0
 11 12  1  0  0  0
 12 13  2  0  0  0
 13  1  1  0  0  0
  1  2  2  0  0  0
  2  3  1  0  0  0
  3  4  2  0  0  0
  4  5  1  0  0  0
  5 23  1  0  0  0
 23 24  1  0  0  0
 24 25  1  0  0  0
 25 26  2  0  0  0
 26 27  1  0  0  0
 27 28  2  0  0  0
 28 29  1  0  0  0
 28 30  1  0  0  0
 30 33  1  0  0  0
 33 34  2  0  0  0
 33 35  1  0  0  0
 30 31  2  0  0  0
  5  6  2  0  0  0
 13  8  1  0  0  0
  6  1  1  0  0  0
 31 25  1  0  0  0
 17 18  1  0  0  0
 29 32  1  0  0  0
 35 36  1  0  0  0
M  END
> <Activity>
66.6

> <minimizedAffinity>
-8.49086

$$$$
HIPS6547


 36 38  0  0  0  0  0  0  0  0999 V2000
   69.9443   77.5623   90.2900 C   0  0  0  0  0  0  0  0  0  0  0  0
   71.1341   76.9964   89.8136 C   0  0  0  0  0  0  0  0  0  0  0  0
   72.0714   77.7954   89.1538 C   0  0  0  0  0  0  0  0  0  0  0  0
   71.8384   79.1651   88.9937 C   0  0  0  0  0  0  0  0  0  0  0  0
   70.6622   79.7458   89.4927 C   0  0  0  0  0  0  0  0  0  0  0  0
   69.7032   78.9303   90.1126 C   0  0  0  0  0  0  0  0  0  0  0  0
   70.8222   75.7312   92.4519 C   0  0  0  0  0  0  0  0  0  0  0  0
   69.3788   75.8369   92.0356 C   0  0  0  0  0  0  0  0  0  0  0  0
   68.4256   74.9799   92.6107 C   0  0  0  0  0  0  0  0  0  0  0  0
   67.0916   75.0203   92.1952 C   0  0  0  0  0  0  0  0  0  0  0  0
   66.6881   75.9261   91.2085 C   0  0  0  0  0  0  0  0  0  0  0  0
   67.6233   76.8049   90.6494 C   0  0  0  0  0  0  0  0  0  0  0  0
   68.9709   76.7462   91.0330 C   0  0  0  0  0  0  0  0  0  0  0  0
   65.0243   75.9100   90.6354 S   0  0  0  0  0  0  0  0  0  0  0  0
   64.6087   77.3385   90.4256 O   0  0  0  0  0  0  0  0  0  0  0  0
   64.9348   75.2097   89.3074 O   0  0  0  0  0  0  0  0  0  0  0  0
   63.9223   75.1857   91.7837 N   0  0  0  0  0  0  0  0  0  0  0  0
   63.1710   75.8552   91.9504 H   0  0  0  0  0  0  0  0  0  0  0  0
   63.2923   73.8940   91.4075 C   0  0  0  0  0  0  0  0  0  0  0  0
   64.3555   72.7816   91.2800 C   0  0  0  0  0  0  0  0  0  0  0  0
   62.3388   73.4905   92.5539 C   0  0  0  0  0  0  0  0  0  0  0  0
   62.4631   73.9935   90.1094 C   0  0  0  0  0  0  0  0  0  0  0  0
   70.4235   81.2287   89.3568 C   0  0  0  0  0  0  0  0  0  0  0  0
   70.0819   81.5746   88.0118 O   0  0  0  0  0  0  0  0  0  0  0  0
   69.0993   80.9367   87.2363 C   0  0  0  0  0  0  0  0  0  0  0  0
   68.4955   81.5545   86.1283 C   0  0  0  0  0  0  0  0  0  0  0  0
   67.4926   80.8944   85.4183 C   0  0  0  0  0  0  0  0  0  0  0  0
   67.0758   79.6125   85.7933 C   0  0  0  0  0  0  0  0  0  0  0  0
   66.0011   79.0460   85.0998 O   0  0  0  0  0  0  0  0  0  0  0  0
   67.7159   78.9550   86.8717 C   0  0  0  0  0  0  0  0  0  0  0  0
   68.7107   79.6405   87.5928 C   0  0  0  0  0  0  0  0  0  0  0  0
   65.6031   79.5120   84.3910 H   0  0  0  0  0  0  0  0  0  0  0  0
   67.3991   77.5619   87.2471 C   0  0  0  0  0  0  0  0  0  0  0  0
   68.3132   76.6950   87.2834 O   0  0  0  0  0  0  0  0  0  0  0  0
   66.0865   77.1820   87.5133 O   0  0  0  0  0  0  0  0  0  0  0  0
   65.4002   77.8194   87.4887 H   0  0  0  0  0  0  0  0  0  0  0  0
  7  8  1  0  0  0
  8  9  2  0  0  0
  9 10  1  0  0  0
 10 11  2  0  0  0
 11 14  1  0  0  0
 14 15  2  0  0  0
 14 16  2  0  0  0
 14 17  1  0  0  0
 17 19  1  0  0  0
 19 20  1  0  0  0
 19 21  1  0  0  0
 19 22  1  0  0  0
 11 12  1  0  0  0
 12 13  2  0  0  0
 13  1  1  0  0  0
  1  2  2  0  0  0
  2  3  1  0  0  0
  3  4  2  0  0  0
  4  5  1  0  0  0
  5 23  1  0  0  0
 23 24  1  0  0  0
 24 25  1  0  0  0
 25 26  2  0  0  0
 26 27  1  0  0  0
 27 28  2  0  0  0
 28 29  1  0  0  0
 28 30  1  0  0  0
 30 33  1  0  0  0
 33 34  2  0  0  0
 33 35  1  0  0  0
 30 31  2  0  0  0
  5  6  2  0  0  0
 13  8  1  0  0  0
  6  1  1  0  0  0
 31 25  1  0  0  0
 17 18  1  0  0  0
 29 32  1  0  0  0
 35 36  1  0  0  0
M  END
> <Activity>
66.6

> <minimizedAffinity>
-8.48277

$$$$
HIPS6547


 36 38  0  0  0  0  0  0  0  0999 V2000
   66.7788   76.8593   88.0362 C   0  0  0  0  0  0  0  0  0  0  0  0
   66.4024   76.4680   86.7446 C   0  0  0  0  0  0  0  0  0  0  0  0
   66.6052   77.3335   85.6666 C   0  0  0  0  0  0  0  0  0  0  0  0
   67.2103   78.5780   85.8690 C   0  0  0  0  0  0  0  0  0  0  0  0
   67.6162   78.9667   87.1550 C   0  0  0  0  0  0  0  0  0  0  0  0
   67.3674   78.1134   88.2408 C   0  0  0  0  0  0  0  0  0  0  0  0
   64.1181   75.7620   88.7533 C   0  0  0  0  0  0  0  0  0  0  0  0
   65.3527   75.4434   89.5545 C   0  0  0  0  0  0  0  0  0  0  0  0
   65.2398   74.6867   90.7329 C   0  0  0  0  0  0  0  0  0  0  0  0
   66.3640   74.4305   91.5230 C   0  0  0  0  0  0  0  0  0  0  0  0
   67.6192   74.9157   91.1410 C   0  0  0  0  0  0  0  0  0  0  0  0
   67.7486   75.6459   89.9538 C   0  0  0  0  0  0  0  0  0  0  0  0
   66.6205   75.9397   89.1740 C   0  0  0  0  0  0  0  0  0  0  0  0
   69.0110   74.6575   92.1864 S   0  0  0  0  0  0  0  0  0  0  0  0
   68.8497   73.3055   92.8217 O   0  0  0  0  0  0  0  0  0  0  0  0
   70.2773   74.6317   91.3755 O   0  0  0  0  0  0  0  0  0  0  0  0
   69.1264   75.8478   93.4622 N   0  0  0  0  0  0  0  0  0  0  0  0
   70.0626   75.7786   93.8610 H   0  0  0  0  0  0  0  0  0  0  0  0
   68.9029   77.2698   93.0946 C   0  0  0  0  0  0  0  0  0  0  0  0
   67.3961   77.5637   92.9303 C   0  0  0  0  0  0  0  0  0  0  0  0
   69.4167   78.1385   94.2640 C   0  0  0  0  0  0  0  0  0  0  0  0
   69.6709   77.6815   91.8205 C   0  0  0  0  0  0  0  0  0  0  0  0
   68.3039   80.2911   87.3729 C   0  0  0  0  0  0  0  0  0  0  0  0
   69.0450   80.2918   88.5961 O   0  0  0  0  0  0  0  0  0  0  0  0
   70.4138   79.9982   88.7138 C   0  0  0  0  0  0  0  0  0  0  0  0
   70.9029   78.6812   88.7331 C   0  0  0  0  0  0  0  0  0  0  0  0
   72.2675   78.4429   88.8969 C   0  0  0  0  0  0  0  0  0  0  0  0
   73.1670   79.5049   89.0406 C   0  0  0  0  0  0  0  0  0  0  0  0
   74.5070   79.1959   89.2969 O   0  0  0  0  0  0  0  0  0  0  0  0
   72.6954   80.8378   88.9646 C   0  0  0  0  0  0  0  0  0  0  0  0
   71.3142   81.0640   88.8211 C   0  0  0  0  0  0  0  0  0  0  0  0
   74.7815   78.3010   89.3397 H   0  0  0  0  0  0  0  0  0  0  0  0
   73.6059   82.0007   88.9983 C   0  0  0  0  0  0  0  0  0  0  0  0
   74.5099   82.1193   88.1282 O   0  0  0  0  0  0  0  0  0  0  0  0
   73.5088   82.9458   90.0158 O   0  0  0  0  0  0  0  0  0  0  0  0
   72.8400   82.8660   90.6672 H   0  0  0  0  0  0  0  0  0  0  0  0
  7  8  1  0  0  0
  8  9  2  0  0  0
  9 10  1  0  0  0
 10 11  2  0  0  0
 11 14  1  0  0  0
 14 15  2  0  0  0
 14 16  2  0  0  0
 14 17  1  0  0  0
 17 19  1  0  0  0
 19 20  1  0  0  0
 19 21  1  0  0  0
 19 22  1  0  0  0
 11 12  1  0  0  0
 12 13  2  0  0  0
 13  1  1  0  0  0
  1  2  2  0  0  0
  2  3  1  0  0  0
  3  4  2  0  0  0
  4  5  1  0  0  0
  5 23  1  0  0  0
 23 24  1  0  0  0
 24 25  1  0  0  0
 25 26  2  0  0  0
 26 27  1  0  0  0
 27 28  2  0  0  0
 28 29  1  0  0  0
 28 30  1  0  0  0
 30 33  1  0  0  0
 33 34  2  0  0  0
 33 35  1  0  0  0
 30 31  2  0  0  0
  5  6  2  0  0  0
 13  8  1  0  0  0
  6  1  1  0  0  0
 31 25  1  0  0  0
 17 18  1  0  0  0
 29 32  1  0  0  0
 35 36  1  0  0  0
M  END
> <Activity>
66.6

> <minimizedAffinity>
-8.48234

$$$$
HIPS6547


 36 38  0  0  0  0  0  0  0  0999 V2000
   68.0795   76.8188   91.8884 C   0  0  0  0  0  0  0  0  0  0  0  0
   67.4559   77.8012   92.6688 C   0  0  0  0  0  0  0  0  0  0  0  0
   67.8758   79.1311   92.5825 C   0  0  0  0  0  0  0  0  0  0  0  0
   68.8975   79.4892   91.6972 C   0  0  0  0  0  0  0  0  0  0  0  0
   69.5086   78.5163   90.8911 C   0  0  0  0  0  0  0  0  0  0  0  0
   69.1152   77.1751   91.0160 C   0  0  0  0  0  0  0  0  0  0  0  0
   70.0019   74.5768   92.1626 C   0  0  0  0  0  0  0  0  0  0  0  0
   68.5218   74.3424   92.0144 C   0  0  0  0  0  0  0  0  0  0  0  0
   68.0342   73.0295   91.9028 C   0  0  0  0  0  0  0  0  0  0  0  0
   66.6711   72.7924   91.7044 C   0  0  0  0  0  0  0  0  0  0  0  0
   65.7736   73.8627   91.6272 C   0  0  0  0  0  0  0  0  0  0  0  0
   66.2441   75.1737   91.7662 C   0  0  0  0  0  0  0  0  0  0  0  0
   67.6145   75.4232   91.9282 C   0  0  0  0  0  0  0  0  0  0  0  0
   64.0733   73.5549   91.2942 S   0  0  0  0  0  0  0  0  0  0  0  0
   63.8708   72.0667   91.3347 O   0  0  0  0  0  0  0  0  0  0  0  0
   63.2115   74.1613   92.3672 O   0  0  0  0  0  0  0  0  0  0  0  0
   63.5802   74.1283   89.7176 N   0  0  0  0  0  0  0  0  0  0  0  0
   62.6477   73.7574   89.5353 H   0  0  0  0  0  0  0  0  0  0  0  0
   63.5231   75.5983   89.5103 C   0  0  0  0  0  0  0  0  0  0  0  0
   64.8452   76.1189   88.9063 C   0  0  0  0  0  0  0  0  0  0  0  0
   62.4049   75.8797   88.4823 C   0  0  0  0  0  0  0  0  0  0  0  0
   63.1862   76.3679   90.8052 C   0  0  0  0  0  0  0  0  0  0  0  0
   70.5841   78.9030   89.9071 C   0  0  0  0  0  0  0  0  0  0  0  0
   70.1800   80.0240   89.1163 O   0  0  0  0  0  0  0  0  0  0  0  0
   69.2537   79.9788   88.0610 C   0  0  0  0  0  0  0  0  0  0  0  0
   68.9254   81.1116   87.2976 C   0  0  0  0  0  0  0  0  0  0  0  0
   67.9657   81.0229   86.2892 C   0  0  0  0  0  0  0  0  0  0  0  0
   67.3201   79.8111   86.0206 C   0  0  0  0  0  0  0  0  0  0  0  0
   66.3007   79.8123   85.0626 O   0  0  0  0  0  0  0  0  0  0  0  0
   67.6831   78.6486   86.7429 C   0  0  0  0  0  0  0  0  0  0  0  0
   68.6366   78.7565   87.7718 C   0  0  0  0  0  0  0  0  0  0  0  0
   66.0890   80.6019   84.6047 H   0  0  0  0  0  0  0  0  0  0  0  0
   67.1196   77.3186   86.4333 C   0  0  0  0  0  0  0  0  0  0  0  0
   67.7126   76.2764   86.8216 O   0  0  0  0  0  0  0  0  0  0  0  0
   65.9617   77.2012   85.6694 O   0  0  0  0  0  0  0  0  0  0  0  0
   65.5140   77.9703   85.3761 H   0  0  0  0  0  0  0  0  0  0  0  0
  7  8  1  0  0  0
  8  9  2  0  0  0
  9 10  1  0  0  0
 10 11  2  0  0  0
 11 14  1  0  0  0
 14 15  2  0  0  0
 14 16  2  0  0  0
 14 17  1  0  0  0
 17 19  1  0  0  0
 19 20  1  0  0  0
 19 21  1  0  0  0
 19 22  1  0  0  0
 11 12  1  0  0  0
 12 13  2  0  0  0
 13  1  1  0  0  0
  1  2  2  0  0  0
  2  3  1  0  0  0
  3  4  2  0  0  0
  4  5  1  0  0  0
  5 23  1  0  0  0
 23 24  1  0  0  0
 24 25  1  0  0  0
 25 26  2  0  0  0
 26 27  1  0  0  0
 27 28  2  0  0  0
 28 29  1  0  0  0
 28 30  1  0  0  0
 30 33  1  0  0  0
 33 34  2  0  0  0
 33 35  1  0  0  0
 30 31  2  0  0  0
  5  6  2  0  0  0
 13  8  1  0  0  0
  6  1  1  0  0  0
 31 25  1  0  0  0
 17 18  1  0  0  0
 29 32  1  0  0  0
 35 36  1  0  0  0
M  END
> <Activity>
66.6

> <minimizedAffinity>
-8.21141

$$$$
HIPS6547


 36 38  0  0  0  0  0  0  0  0999 V2000
   68.1111   76.0620   91.4024 C   0  0  0  0  0  0  0  0  0  0  0  0
   68.1531   75.1989   92.5053 C   0  0  0  0  0  0  0  0  0  0  0  0
   69.3699   74.6456   92.9120 C   0  0  0  0  0  0  0  0  0  0  0  0
   70.5510   74.9742   92.2391 C   0  0  0  0  0  0  0  0  0  0  0  0
   70.5224   75.8600   91.1509 C   0  0  0  0  0  0  0  0  0  0  0  0
   69.2915   76.3758   90.7175 C   0  0  0  0  0  0  0  0  0  0  0  0
   67.4066   78.7949   92.3147 C   0  0  0  0  0  0  0  0  0  0  0  0
   66.4776   77.9785   91.4555 C   0  0  0  0  0  0  0  0  0  0  0  0
   65.1983   78.4731   91.1514 C   0  0  0  0  0  0  0  0  0  0  0  0
   64.2987   77.7057   90.4060 C   0  0  0  0  0  0  0  0  0  0  0  0
   64.6685   76.4386   89.9429 C   0  0  0  0  0  0  0  0  0  0  0  0
   65.9508   75.9477   90.2149 C   0  0  0  0  0  0  0  0  0  0  0  0
   66.8469   76.6945   90.9934 C   0  0  0  0  0  0  0  0  0  0  0  0
   63.4987   75.4489   89.0774 S   0  0  0  0  0  0  0  0  0  0  0  0
   62.1770   76.1609   89.1382 O   0  0  0  0  0  0  0  0  0  0  0  0
   63.8849   75.3282   87.6289 O   0  0  0  0  0  0  0  0  0  0  0  0
   63.2967   73.8650   89.7901 N   0  0  0  0  0  0  0  0  0  0  0  0
   63.9825   73.2457   89.3582 H   0  0  0  0  0  0  0  0  0  0  0  0
   63.4584   73.7508   91.2625 C   0  0  0  0  0  0  0  0  0  0  0  0
   62.8222   74.9609   91.9799 C   0  0  0  0  0  0  0  0  0  0  0  0
   62.6911   72.4898   91.7179 C   0  0  0  0  0  0  0  0  0  0  0  0
   64.9339   73.5913   91.6872 C   0  0  0  0  0  0  0  0  0  0  0  0
   71.7980   76.2479   90.4460 C   0  0  0  0  0  0  0  0  0  0  0  0
   71.5252   77.0312   89.2809 O   0  0  0  0  0  0  0  0  0  0  0  0
   71.9292   78.3628   89.0876 C   0  0  0  0  0  0  0  0  0  0  0  0
   73.2652   78.7155   88.8331 C   0  0  0  0  0  0  0  0  0  0  0  0
   73.6212   80.0568   88.6928 C   0  0  0  0  0  0  0  0  0  0  0  0
   72.6593   81.0673   88.7994 C   0  0  0  0  0  0  0  0  0  0  0  0
   73.0974   82.3946   88.7443 O   0  0  0  0  0  0  0  0  0  0  0  0
   71.3003   80.7229   88.9977 C   0  0  0  0  0  0  0  0  0  0  0  0
   70.9580   79.3679   89.1592 C   0  0  0  0  0  0  0  0  0  0  0  0
   74.0056   82.5831   88.6115 H   0  0  0  0  0  0  0  0  0  0  0  0
   70.2232   81.7339   89.0089 C   0  0  0  0  0  0  0  0  0  0  0  0
   70.1105   82.5245   89.9840 O   0  0  0  0  0  0  0  0  0  0  0  0
   69.2950   81.7902   87.9730 O   0  0  0  0  0  0  0  0  0  0  0  0
   69.3706   81.2065   87.2439 H   0  0  0  0  0  0  0  0  0  0  0  0
  7  8  1  0  0  0
  8  9  2  0  0  0
  9 10  1  0  0  0
 10 11  2  0  0  0
 11 14  1  0  0  0
 14 15  2  0  0  0
 14 16  2  0  0  0
 14 17  1  0  0  0
 17 19  1  0  0  0
 19 20  1  0  0  0
 19 21  1  0  0  0
 19 22  1  0  0  0
 11 12  1  0  0  0
 12 13  2  0  0  0
 13  1  1  0  0  0
  1  2  2  0  0  0
  2  3  1  0  0  0
  3  4  2  0  0  0
  4  5  1  0  0  0
  5 23  1  0  0  0
 23 24  1  0  0  0
 24 25  1  0  0  0
 25 26  2  0  0  0
 26 27  1  0  0  0
 27 28  2  0  0  0
 28 29  1  0  0  0
 28 30  1  0  0  0
 30 33  1  0  0  0
 33 34  2  0  0  0
 33 35  1  0  0  0
 30 31  2  0  0  0
  5  6  2  0  0  0
 13  8  1  0  0  0
  6  1  1  0  0  0
 31 25  1  0  0  0
 17 18  1  0  0  0
 29 32  1  0  0  0
 35 36  1  0  0  0
M  END
> <Activity>
66.6

> <minimizedAffinity>
-8.17673

$$$$
HIPS6547


 36 38  0  0  0  0  0  0  0  0999 V2000
   69.6680   76.5994   90.3754 C   0  0  0  0  0  0  0  0  0  0  0  0
   70.9024   75.9393   90.3160 C   0  0  0  0  0  0  0  0  0  0  0  0
   71.1316   74.8156   91.1141 C   0  0  0  0  0  0  0  0  0  0  0  0
   70.1215   74.3301   91.9507 C   0  0  0  0  0  0  0  0  0  0  0  0
   68.8723   74.9683   91.9956 C   0  0  0  0  0  0  0  0  0  0  0  0
   68.6635   76.1238   91.2273 C   0  0  0  0  0  0  0  0  0  0  0  0
   67.8997   76.3339   88.0089 C   0  0  0  0  0  0  0  0  0  0  0  0
   68.5866   77.6306   88.3477 C   0  0  0  0  0  0  0  0  0  0  0  0
   68.4742   78.7250   87.4741 C   0  0  0  0  0  0  0  0  0  0  0  0
   69.1525   79.9181   87.7392 C   0  0  0  0  0  0  0  0  0  0  0  0
   69.9425   80.0394   88.8872 C   0  0  0  0  0  0  0  0  0  0  0  0
   70.0384   78.9654   89.7799 C   0  0  0  0  0  0  0  0  0  0  0  0
   69.3917   77.7522   89.5034 C   0  0  0  0  0  0  0  0  0  0  0  0
   70.8569   81.5168   89.1666 S   0  0  0  0  0  0  0  0  0  0  0  0
   70.9127   82.2625   87.8634 O   0  0  0  0  0  0  0  0  0  0  0  0
   70.1466   82.3919   90.1622 O   0  0  0  0  0  0  0  0  0  0  0  0
   72.4974   81.2065   89.6864 N   0  0  0  0  0  0  0  0  0  0  0  0
   72.4660   80.4356   90.3536 H   0  0  0  0  0  0  0  0  0  0  0  0
   73.4914   80.8507   88.6412 C   0  0  0  0  0  0  0  0  0  0  0  0
   74.4217   82.0454   88.3394 C   0  0  0  0  0  0  0  0  0  0  0  0
   74.3713   79.7128   89.2047 C   0  0  0  0  0  0  0  0  0  0  0  0
   72.8308   80.3444   87.3412 C   0  0  0  0  0  0  0  0  0  0  0  0
   67.7670   74.4265   92.8668 C   0  0  0  0  0  0  0  0  0  0  0  0
   66.9271   73.5293   92.1352 O   0  0  0  0  0  0  0  0  0  0  0  0
   65.7013   73.8714   91.5399 C   0  0  0  0  0  0  0  0  0  0  0  0
   64.6188   72.9780   91.4774 C   0  0  0  0  0  0  0  0  0  0  0  0
   63.4381   73.3516   90.8355 C   0  0  0  0  0  0  0  0  0  0  0  0
   63.3117   74.6157   90.2493 C   0  0  0  0  0  0  0  0  0  0  0  0
   62.1386   74.8921   89.5391 O   0  0  0  0  0  0  0  0  0  0  0  0
   64.3732   75.5467   90.3555 C   0  0  0  0  0  0  0  0  0  0  0  0
   65.5664   75.1496   90.9864 C   0  0  0  0  0  0  0  0  0  0  0  0
   61.4577   74.2502   89.4913 H   0  0  0  0  0  0  0  0  0  0  0  0
   64.2612   76.9323   89.8554 C   0  0  0  0  0  0  0  0  0  0  0  0
   65.2655   77.6934   89.8763 O   0  0  0  0  0  0  0  0  0  0  0  0
   63.0394   77.4256   89.4061 O   0  0  0  0  0  0  0  0  0  0  0  0
   62.2872   76.8672   89.3869 H   0  0  0  0  0  0  0  0  0  0  0  0
  7  8  1  0  0  0
  8  9  2  0  0  0
  9 10  1  0  0  0
 10 11  2  0  0  0
 11 14  1  0  0  0
 14 15  2  0  0  0
 14 16  2  0  0  0
 14 17  1  0  0  0
 17 19  1  0  0  0
 19 20  1  0  0  0
 19 21  1  0  0  0
 19 22  1  0  0  0
 11 12  1  0  0  0
 12 13  2  0  0  0
 13  1  1  0  0  0
  1  2  2  0  0  0
  2  3  1  0  0  0
  3  4  2  0  0  0
  4  5  1  0  0  0
  5 23  1  0  0  0
 23 24  1  0  0  0
 24 25  1  0  0  0
 25 26  2  0  0  0
 26 27  1  0  0  0
 27 28  2  0  0  0
 28 29  1  0  0  0
 28 30  1  0  0  0
 30 33  1  0  0  0
 33 34  2  0  0  0
 33 35  1  0  0  0
 30 31  2  0  0  0
  5  6  2  0  0  0
 13  8  1  0  0  0
  6  1  1  0  0  0
 31 25  1  0  0  0
 17 18  1  0  0  0
 29 32  1  0  0  0
 35 36  1  0  0  0
M  END
> <Activity>
66.6

> <minimizedAffinity>
-8.15971

$$$$
HIPS6547


 36 38  0  0  0  0  0  0  0  0999 V2000
   66.6043   77.3083   87.9008 C   0  0  0  0  0  0  0  0  0  0  0  0
   66.4113   76.7880   86.6143 C   0  0  0  0  0  0  0  0  0  0  0  0
   66.7952   77.5324   85.4960 C   0  0  0  0  0  0  0  0  0  0  0  0
   67.3989   78.7835   85.6581 C   0  0  0  0  0  0  0  0  0  0  0  0
   67.6219   79.3002   86.9438 C   0  0  0  0  0  0  0  0  0  0  0  0
   67.1917   78.5693   88.0618 C   0  0  0  0  0  0  0  0  0  0  0  0
   64.0474   75.8115   88.0391 C   0  0  0  0  0  0  0  0  0  0  0  0
   65.0203   75.8329   89.1884 C   0  0  0  0  0  0  0  0  0  0  0  0
   64.6763   75.2126   90.4011 C   0  0  0  0  0  0  0  0  0  0  0  0
   65.5391   75.2723   91.4992 C   0  0  0  0  0  0  0  0  0  0  0  0
   66.7632   75.9416   91.3980 C   0  0  0  0  0  0  0  0  0  0  0  0
   67.1293   76.5383   90.1858 C   0  0  0  0  0  0  0  0  0  0  0  0
   66.2543   76.5157   89.0902 C   0  0  0  0  0  0  0  0  0  0  0  0
   67.8024   76.0809   92.8113 S   0  0  0  0  0  0  0  0  0  0  0  0
   67.3279   77.2676   93.6014 O   0  0  0  0  0  0  0  0  0  0  0  0
   67.6623   74.8656   93.6861 O   0  0  0  0  0  0  0  0  0  0  0  0
   69.4798   76.3420   92.3921 N   0  0  0  0  0  0  0  0  0  0  0  0
   69.9892   76.5100   93.2597 H   0  0  0  0  0  0  0  0  0  0  0  0
   70.1824   75.2520   91.6672 C   0  0  0  0  0  0  0  0  0  0  0  0
   69.4979   74.9631   90.3137 C   0  0  0  0  0  0  0  0  0  0  0  0
   71.6148   75.7439   91.3631 C   0  0  0  0  0  0  0  0  0  0  0  0
   70.2889   73.9571   92.5006 C   0  0  0  0  0  0  0  0  0  0  0  0
   68.3072   80.6312   87.1255 C   0  0  0  0  0  0  0  0  0  0  0  0
   69.0113   80.6828   88.3693 O   0  0  0  0  0  0  0  0  0  0  0  0
   70.3368   80.2617   88.5676 C   0  0  0  0  0  0  0  0  0  0  0  0
   70.6943   78.9046   88.6343 C   0  0  0  0  0  0  0  0  0  0  0  0
   72.0184   78.5399   88.8774 C   0  0  0  0  0  0  0  0  0  0  0  0
   73.0076   79.5134   89.0549 C   0  0  0  0  0  0  0  0  0  0  0  0
   74.2955   79.0826   89.3902 O   0  0  0  0  0  0  0  0  0  0  0  0
   72.6721   80.8836   88.9324 C   0  0  0  0  0  0  0  0  0  0  0  0
   71.3292   81.2382   88.7087 C   0  0  0  0  0  0  0  0  0  0  0  0
   74.4792   78.1666   89.4620 H   0  0  0  0  0  0  0  0  0  0  0  0
   73.6879   81.9541   88.9992 C   0  0  0  0  0  0  0  0  0  0  0  0
   74.4919   82.1212   88.0431 O   0  0  0  0  0  0  0  0  0  0  0  0
   73.8010   82.7522   90.1342 O   0  0  0  0  0  0  0  0  0  0  0  0
   73.2079   82.6354   90.8501 H   0  0  0  0  0  0  0  0  0  0  0  0
  7  8  1  0  0  0
  8  9  2  0  0  0
  9 10  1  0  0  0
 10 11  2  0  0  0
 11 14  1  0  0  0
 14 15  2  0  0  0
 14 16  2  0  0  0
 14 17  1  0  0  0
 17 19  1  0  0  0
 19 20  1  0  0  0
 19 21  1  0  0  0
 19 22  1  0  0  0
 11 12  1  0  0  0
 12 13  2  0  0  0
 13  1  1  0  0  0
  1  2  2  0  0  0
  2  3  1  0  0  0
  3  4  2  0  0  0
  4  5  1  0  0  0
  5 23  1  0  0  0
 23 24  1  0  0  0
 24 25  1  0  0  0
 25 26  2  0  0  0
 26 27  1  0  0  0
 27 28  2  0  0  0
 28 29  1  0  0  0
 28 30  1  0  0  0
 30 33  1  0  0  0
 33 34  2  0  0  0
 33 35  1  0  0  0
 30 31  2  0  0  0
  5  6  2  0  0  0
 13  8  1  0  0  0
  6  1  1  0  0  0
 31 25  1  0  0  0
 17 18  1  0  0  0
 29 32  1  0  0  0
 35 36  1  0  0  0
M  END
> <Activity>
66.6

> <minimizedAffinity>
-8.09155

$$$$
HIPS6547


 36 38  0  0  0  0  0  0  0  0999 V2000
   67.8367   76.7532   91.9389 C   0  0  0  0  0  0  0  0  0  0  0  0
   67.1804   77.7438   92.6812 C   0  0  0  0  0  0  0  0  0  0  0  0
   67.6228   79.0678   92.6222 C   0  0  0  0  0  0  0  0  0  0  0  0
   68.7012   79.4123   91.8010 C   0  0  0  0  0  0  0  0  0  0  0  0
   69.3468   78.4315   91.0323 C   0  0  0  0  0  0  0  0  0  0  0  0
   68.9283   77.0958   91.1314 C   0  0  0  0  0  0  0  0  0  0  0  0
   69.7253   74.4781   92.1717 C   0  0  0  0  0  0  0  0  0  0  0  0
   68.2423   74.2685   92.0149 C   0  0  0  0  0  0  0  0  0  0  0  0
   67.7359   72.9656   91.8750 C   0  0  0  0  0  0  0  0  0  0  0  0
   66.3700   72.7527   91.6682 C   0  0  0  0  0  0  0  0  0  0  0  0
   65.4886   73.8374   91.6108 C   0  0  0  0  0  0  0  0  0  0  0  0
   65.9778   75.1383   91.7781 C   0  0  0  0  0  0  0  0  0  0  0  0
   67.3513   75.3641   91.9487 C   0  0  0  0  0  0  0  0  0  0  0  0
   63.7849   73.5616   91.2671 S   0  0  0  0  0  0  0  0  0  0  0  0
   63.5292   72.0891   91.4213 O   0  0  0  0  0  0  0  0  0  0  0  0
   62.9253   74.2808   92.2701 O   0  0  0  0  0  0  0  0  0  0  0  0
   63.3417   74.0233   89.6398 N   0  0  0  0  0  0  0  0  0  0  0  0
   62.4168   73.6356   89.4532 H   0  0  0  0  0  0  0  0  0  0  0  0
   63.2864   75.4754   89.3308 C   0  0  0  0  0  0  0  0  0  0  0  0
   63.1011   76.3041   90.6203 C   0  0  0  0  0  0  0  0  0  0  0  0
   64.6485   75.8727   88.7198 C   0  0  0  0  0  0  0  0  0  0  0  0
   62.1843   75.8233   88.3076 C   0  0  0  0  0  0  0  0  0  0  0  0
   70.4851   78.8039   90.1159 C   0  0  0  0  0  0  0  0  0  0  0  0
   70.2955   78.2546   88.8091 O   0  0  0  0  0  0  0  0  0  0  0  0
   69.2131   78.5399   87.9600 C   0  0  0  0  0  0  0  0  0  0  0  0
   68.3628   77.5390   87.4609 C   0  0  0  0  0  0  0  0  0  0  0  0
   67.3290   77.8704   86.5851 C   0  0  0  0  0  0  0  0  0  0  0  0
   67.1208   79.1974   86.1937 C   0  0  0  0  0  0  0  0  0  0  0  0
   66.1289   79.4492   85.2399 O   0  0  0  0  0  0  0  0  0  0  0  0
   67.9333   80.2232   86.7344 C   0  0  0  0  0  0  0  0  0  0  0  0
   68.9861   79.8729   87.5995 C   0  0  0  0  0  0  0  0  0  0  0  0
   65.6109   78.7438   84.9053 H   0  0  0  0  0  0  0  0  0  0  0  0
   67.6952   81.6527   86.4478 C   0  0  0  0  0  0  0  0  0  0  0  0
   68.1193   82.1600   85.3748 O   0  0  0  0  0  0  0  0  0  0  0  0
   67.0486   82.4624   87.3774 O   0  0  0  0  0  0  0  0  0  0  0  0
   66.7298   82.0943   88.1779 H   0  0  0  0  0  0  0  0  0  0  0  0
  7  8  1  0  0  0
  8  9  2  0  0  0
  9 10  1  0  0  0
 10 11  2  0  0  0
 11 14  1  0  0  0
 14 15  2  0  0  0
 14 16  2  0  0  0
 14 17  1  0  0  0
 17 19  1  0  0  0
 19 20  1  0  0  0
 19 21  1  0  0  0
 19 22  1  0  0  0
 11 12  1  0  0  0
 12 13  2  0  0  0
 13  1  1  0  0  0
  1  2  2  0  0  0
  2  3  1  0  0  0
  3  4  2  0  0  0
  4  5  1  0  0  0
  5 23  1  0  0  0
 23 24  1  0  0  0
 24 25  1  0  0  0
 25 26  2  0  0  0
 26 27  1  0  0  0
 27 28  2  0  0  0
 28 29  1  0  0  0
 28 30  1  0  0  0
 30 33  1  0  0  0
 33 34  2  0  0  0
 33 35  1  0  0  0
 30 31  2  0  0  0
  5  6  2  0  0  0
 13  8  1  0  0  0
  6  1  1  0  0  0
 31 25  1  0  0  0
 17 18  1  0  0  0
 29 32  1  0  0  0
 35 36  1  0  0  0
M  END
> <Activity>
66.6

> <minimizedAffinity>
-7.96046

$$$$
HIPS6547


 36 38  0  0  0  0  0  0  0  0999 V2000
   68.2260   76.8754   89.1754 C   0  0  0  0  0  0  0  0  0  0  0  0
   67.1390   77.3463   88.4273 C   0  0  0  0  0  0  0  0  0  0  0  0
   65.8974   76.7134   88.5266 C   0  0  0  0  0  0  0  0  0  0  0  0
   65.7289   75.6288   89.3933 C   0  0  0  0  0  0  0  0  0  0  0  0
   66.8049   75.1681   90.1677 C   0  0  0  0  0  0  0  0  0  0  0  0
   68.0613   75.7775   90.0290 C   0  0  0  0  0  0  0  0  0  0  0  0
   70.7473   75.4158   89.7323 C   0  0  0  0  0  0  0  0  0  0  0  0
   70.7320   76.8906   89.4283 C   0  0  0  0  0  0  0  0  0  0  0  0
   71.9256   77.6277   89.5035 C   0  0  0  0  0  0  0  0  0  0  0  0
   71.9231   79.0082   89.2841 C   0  0  0  0  0  0  0  0  0  0  0  0
   70.7304   79.6702   88.9740 C   0  0  0  0  0  0  0  0  0  0  0  0
   69.5400   78.9414   88.8676 C   0  0  0  0  0  0  0  0  0  0  0  0
   69.5262   77.5624   89.1226 C   0  0  0  0  0  0  0  0  0  0  0  0
   70.7264   81.4194   88.7821 S   0  0  0  0  0  0  0  0  0  0  0  0
   69.5938   81.7664   87.8578 O   0  0  0  0  0  0  0  0  0  0  0  0
   70.4595   82.0903   90.1014 O   0  0  0  0  0  0  0  0  0  0  0  0
   72.2081   82.0242   88.0777 N   0  0  0  0  0  0  0  0  0  0  0  0
   72.0186   82.9626   87.7258 H   0  0  0  0  0  0  0  0  0  0  0  0
   73.4002   82.1118   88.9600 C   0  0  0  0  0  0  0  0  0  0  0  0
   74.1332   80.7546   89.0282 C   0  0  0  0  0  0  0  0  0  0  0  0
   74.3739   83.1298   88.3261 C   0  0  0  0  0  0  0  0  0  0  0  0
   73.0523   82.6046   90.3809 C   0  0  0  0  0  0  0  0  0  0  0  0
   66.6190   74.0239   91.1323 C   0  0  0  0  0  0  0  0  0  0  0  0
   67.0837   74.3712   92.4395 O   0  0  0  0  0  0  0  0  0  0  0  0
   67.6893   75.5906   92.7862 C   0  0  0  0  0  0  0  0  0  0  0  0
   68.9944   75.6640   93.3012 C   0  0  0  0  0  0  0  0  0  0  0  0
   69.5332   76.8961   93.6717 C   0  0  0  0  0  0  0  0  0  0  0  0
   68.7887   78.0728   93.5346 C   0  0  0  0  0  0  0  0  0  0  0  0
   69.3508   79.2610   94.0133 O   0  0  0  0  0  0  0  0  0  0  0  0
   67.4944   78.0205   92.9630 C   0  0  0  0  0  0  0  0  0  0  0  0
   66.9545   76.7690   92.6139 C   0  0  0  0  0  0  0  0  0  0  0  0
   70.2109   79.2558   94.3852 H   0  0  0  0  0  0  0  0  0  0  0  0
   66.7021   79.2370   92.6899 C   0  0  0  0  0  0  0  0  0  0  0  0
   67.1849   80.3738   92.9414 O   0  0  0  0  0  0  0  0  0  0  0  0
   65.4016   79.1397   92.2028 O   0  0  0  0  0  0  0  0  0  0  0  0
   65.0341   78.2990   92.0129 H   0  0  0  0  0  0  0  0  0  0  0  0
  7  8  1  0  0  0
  8  9  2  0  0  0
  9 10  1  0  0  0
 10 11  2  0  0  0
 11 14  1  0  0  0
 14 15  2  0  0  0
 14 16  2  0  0  0
 14 17  1  0  0  0
 17 19  1  0  0  0
 19 20  1  0  0  0
 19 21  1  0  0  0
 19 22  1  0  0  0
 11 12  1  0  0  0
 12 13  2  0  0  0
 13  1  1  0  0  0
  1  2  2  0  0  0
  2  3  1  0  0  0
  3  4  2  0  0  0
  4  5  1  0  0  0
  5 23  1  0  0  0
 23 24  1  0  0  0
 24 25  1  0  0  0
 25 26  2  0  0  0
 26 27  1  0  0  0
 27 28  2  0  0  0
 28 29  1  0  0  0
 28 30  1  0  0  0
 30 33  1  0  0  0
 33 34  2  0  0  0
 33 35  1  0  0  0
 30 31  2  0  0  0
  5  6  2  0  0  0
 13  8  1  0  0  0
  6  1  1  0  0  0
 31 25  1  0  0  0
 17 18  1  0  0  0
 29 32  1  0  0  0
 35 36  1  0  0  0
M  END
> <Activity>
66.6

> <minimizedAffinity>
-7.94545

$$$$
HIPS6547


 36 38  0  0  0  0  0  0  0  0999 V2000
   69.8236   76.3804   90.0853 C   0  0  0  0  0  0  0  0  0  0  0  0
   71.0715   75.7837   89.8623 C   0  0  0  0  0  0  0  0  0  0  0  0
   71.4856   74.7138   90.6598 C   0  0  0  0  0  0  0  0  0  0  0  0
   70.6451   74.2176   91.6614 C   0  0  0  0  0  0  0  0  0  0  0  0
   69.3817   74.7909   91.8732 C   0  0  0  0  0  0  0  0  0  0  0  0
   68.9904   75.8951   91.1007 C   0  0  0  0  0  0  0  0  0  0  0  0
   67.7434   75.9049   88.0252 C   0  0  0  0  0  0  0  0  0  0  0  0
   68.3914   77.2523   88.2057 C   0  0  0  0  0  0  0  0  0  0  0  0
   68.0831   78.2959   87.3172 C   0  0  0  0  0  0  0  0  0  0  0  0
   68.7180   79.5360   87.4303 C   0  0  0  0  0  0  0  0  0  0  0  0
   69.6607   79.7555   88.4403 C   0  0  0  0  0  0  0  0  0  0  0  0
   69.9543   78.7322   89.3492 C   0  0  0  0  0  0  0  0  0  0  0  0
   69.3501   77.4732   89.2209 C   0  0  0  0  0  0  0  0  0  0  0  0
   70.5133   81.2928   88.5206 S   0  0  0  0  0  0  0  0  0  0  0  0
   69.7081   82.2932   87.7408 O   0  0  0  0  0  0  0  0  0  0  0  0
   70.5874   81.7768   89.9427 O   0  0  0  0  0  0  0  0  0  0  0  0
   72.1124   81.2148   87.8175 N   0  0  0  0  0  0  0  0  0  0  0  0
   72.1920   81.9845   87.1530 H   0  0  0  0  0  0  0  0  0  0  0  0
   73.2721   81.3029   88.7419 C   0  0  0  0  0  0  0  0  0  0  0  0
   74.5134   81.8613   88.0131 C   0  0  0  0  0  0  0  0  0  0  0  0
   72.9026   82.3061   89.8569 C   0  0  0  0  0  0  0  0  0  0  0  0
   73.6051   79.9505   89.4074 C   0  0  0  0  0  0  0  0  0  0  0  0
   68.4558   74.2351   92.9260 C   0  0  0  0  0  0  0  0  0  0  0  0
   67.5582   75.2401   93.4052 O   0  0  0  0  0  0  0  0  0  0  0  0
   67.0404   76.2964   92.6371 C   0  0  0  0  0  0  0  0  0  0  0  0
   67.4747   77.6236   92.7915 C   0  0  0  0  0  0  0  0  0  0  0  0
   66.8962   78.6426   92.0347 C   0  0  0  0  0  0  0  0  0  0  0  0
   65.8822   78.3615   91.1127 C   0  0  0  0  0  0  0  0  0  0  0  0
   65.2788   79.4395   90.4563 O   0  0  0  0  0  0  0  0  0  0  0  0
   65.4756   77.0211   90.9052 C   0  0  0  0  0  0  0  0  0  0  0  0
   66.0517   76.0058   91.6904 C   0  0  0  0  0  0  0  0  0  0  0  0
   65.5756   80.3130   90.6197 H   0  0  0  0  0  0  0  0  0  0  0  0
   64.4904   76.6461   89.8703 C   0  0  0  0  0  0  0  0  0  0  0  0
   64.6093   75.5539   89.2526 O   0  0  0  0  0  0  0  0  0  0  0  0
   63.4553   77.5132   89.5317 O   0  0  0  0  0  0  0  0  0  0  0  0
   63.3589   78.3274   89.9853 H   0  0  0  0  0  0  0  0  0  0  0  0
  7  8  1  0  0  0
  8  9  2  0  0  0
  9 10  1  0  0  0
 10 11  2  0  0  0
 11 14  1  0  0  0
 14 15  2  0  0  0
 14 16  2  0  0  0
 14 17  1  0  0  0
 17 19  1  0  0  0
 19 20  1  0  0  0
 19 21  1  0  0  0
 19 22  1  0  0  0
 11 12  1  0  0  0
 12 13  2  0  0  0
 13  1  1  0  0  0
  1  2  2  0  0  0
  2  3  1  0  0  0
  3  4  2  0  0  0
  4  5  1  0  0  0
  5 23  1  0  0  0
 23 24  1  0  0  0
 24 25  1  0  0  0
 25 26  2  0  0  0
 26 27  1  0  0  0
 27 28  2  0  0  0
 28 29  1  0  0  0
 28 30  1  0  0  0
 30 33  1  0  0  0
 33 34  2  0  0  0
 33 35  1  0  0  0
 30 31  2  0  0  0
  5  6  2  0  0  0
 13  8  1  0  0  0
  6  1  1  0  0  0
 31 25  1  0  0  0
 17 18  1  0  0  0
 29 32  1  0  0  0
 35 36  1  0  0  0
M  END
> <Activity>
66.6

> <minimizedAffinity>
-7.79706

$$$$
HIPS6245


 35 37  0  0  0  0  0  0  0  0999 V2000
   69.0982   76.5121   89.6183 C   0  0  0  0  0  0  0  0  0  0  0  0
   70.4908   76.6442   89.7563 C   0  0  0  0  0  0  0  0  0  0  0  0
   71.1589   76.0139   90.8085 C   0  0  0  0  0  0  0  0  0  0  0  0
   70.4496   75.2313   91.7221 C   0  0  0  0  0  0  0  0  0  0  0  0
   69.0603   75.0845   91.5981 C   0  0  0  0  0  0  0  0  0  0  0  0
   68.3872   75.7443   90.5574 C   0  0  0  0  0  0  0  0  0  0  0  0
   67.8220   79.0963   87.1519 C   0  0  0  0  0  0  0  0  0  0  0  0
   67.1737   78.2819   86.2156 C   0  0  0  0  0  0  0  0  0  0  0  0
   67.1234   76.8989   86.4045 C   0  0  0  0  0  0  0  0  0  0  0  0
   67.7332   76.3198   87.5204 C   0  0  0  0  0  0  0  0  0  0  0  0
   68.3925   77.1237   88.4669 C   0  0  0  0  0  0  0  0  0  0  0  0
   68.4220   78.5166   88.2784 C   0  0  0  0  0  0  0  0  0  0  0  0
   67.9528   80.8315   86.8707 S   0  0  0  0  0  0  0  0  0  0  0  0
   66.6575   81.5146   87.2158 O   0  0  0  0  0  0  0  0  0  0  0  0
   68.2329   81.0697   85.4137 O   0  0  0  0  0  0  0  0  0  0  0  0
   69.2283   81.4739   87.7851 O   0  0  0  0  0  0  0  0  0  0  0  0
   70.4232   80.8141   87.4293 C   0  0  0  0  0  0  0  0  0  0  0  0
   72.1896   81.9455   88.8483 C   0  0  0  0  0  0  0  0  0  0  0  0
   71.3471   80.6679   88.6610 C   0  0  0  0  0  0  0  0  0  0  0  0
   72.2827   79.4562   88.4744 C   0  0  0  0  0  0  0  0  0  0  0  0
   70.4800   80.4469   89.9167 C   0  0  0  0  0  0  0  0  0  0  0  0
   68.3166   74.1774   92.5419 C   0  0  0  0  0  0  0  0  0  0  0  0
   67.3503   73.4028   91.8293 O   0  0  0  0  0  0  0  0  0  0  0  0
   66.0555   73.8299   91.4872 C   0  0  0  0  0  0  0  0  0  0  0  0
   65.0625   72.8605   91.3258 C   0  0  0  0  0  0  0  0  0  0  0  0
   63.7661   73.2269   90.9638 C   0  0  0  0  0  0  0  0  0  0  0  0
   63.4375   74.5745   90.7613 C   0  0  0  0  0  0  0  0  0  0  0  0
   62.1387   74.9117   90.3794 O   0  0  0  0  0  0  0  0  0  0  0  0
   64.4213   75.5731   90.9387 C   0  0  0  0  0  0  0  0  0  0  0  0
   65.7253   75.1863   91.3063 C   0  0  0  0  0  0  0  0  0  0  0  0
   61.4949   74.2406   90.2649 H   0  0  0  0  0  0  0  0  0  0  0  0
   64.1118   77.0141   90.7489 C   0  0  0  0  0  0  0  0  0  0  0  0
   63.3887   77.6226   91.5844 O   0  0  0  0  0  0  0  0  0  0  0  0
   64.6049   77.7123   89.6490 O   0  0  0  0  0  0  0  0  0  0  0  0
   65.1434   77.2747   89.0193 H   0  0  0  0  0  0  0  0  0  0  0  0
 18 19  1  0  0  0
 19 20  1  0  0  0
 19 21  1  0  0  0
 19 17  1  0  0  0
 17 16  1  0  0  0
 16 13  1  0  0  0
 13 14  2  0  0  0
 13 15  2  0  0  0
 13  7  1  0  0  0
  7  8  2  0  0  0
  8  9  1  0  0  0
  9 10  2  0  0  0
 10 11  1  0  0  0
 11  1  1  0  0  0
  1  2  2  0  0  0
  2  3  1  0  0  0
  3  4  2  0  0  0
  4  5  1  0  0  0
  5 22  1  0  0  0
 22 23  1  0  0  0
 23 24  1  0  0  0
 24 25  2  0  0  0
 25 26  1  0  0  0
 26 27  2  0  0  0
 27 28  1  0  0  0
 27 29  1  0  0  0
 29 32  1  0  0  0
 32 33  2  0  0  0
 32 34  1  0  0  0
 29 30  2  0  0  0
  5  6  2  0  0  0
 11 12  2  0  0  0
 12  7  1  0  0  0
  6  1  1  0  0  0
 30 24  1  0  0  0
 28 31  1  0  0  0
 34 35  1  0  0  0
M  END
> <Activity>
91.6

> <minimizedAffinity>
-9.62286

$$$$
HIPS6245


 35 37  0  0  0  0  0  0  0  0999 V2000
   68.0466   74.1450   91.7732 C   0  0  0  0  0  0  0  0  0  0  0  0
   68.5544   73.5803   92.9561 C   0  0  0  0  0  0  0  0  0  0  0  0
   69.9248   73.6158   93.2237 C   0  0  0  0  0  0  0  0  0  0  0  0
   70.8000   74.2299   92.3252 C   0  0  0  0  0  0  0  0  0  0  0  0
   70.3113   74.8023   91.1418 C   0  0  0  0  0  0  0  0  0  0  0  0
   68.9370   74.7379   90.8609 C   0  0  0  0  0  0  0  0  0  0  0  0
   64.5758   75.4068   90.9069 C   0  0  0  0  0  0  0  0  0  0  0  0
   63.8479   74.2108   90.8898 C   0  0  0  0  0  0  0  0  0  0  0  0
   64.4782   73.0017   91.1923 C   0  0  0  0  0  0  0  0  0  0  0  0
   65.8415   72.9775   91.4982 C   0  0  0  0  0  0  0  0  0  0  0  0
   66.5871   74.1694   91.5146 C   0  0  0  0  0  0  0  0  0  0  0  0
   65.9403   75.3841   91.2271 C   0  0  0  0  0  0  0  0  0  0  0  0
   63.7968   76.9198   90.4475 S   0  0  0  0  0  0  0  0  0  0  0  0
   63.1559   77.5617   91.6478 O   0  0  0  0  0  0  0  0  0  0  0  0
   62.7186   76.6277   89.4425 O   0  0  0  0  0  0  0  0  0  0  0  0
   64.9305   77.9671   89.7449 O   0  0  0  0  0  0  0  0  0  0  0  0
   65.5529   77.3081   88.6641 C   0  0  0  0  0  0  0  0  0  0  0  0
   67.2630   78.8721   87.6426 C   0  0  0  0  0  0  0  0  0  0  0  0
   67.0529   77.6791   88.5966 C   0  0  0  0  0  0  0  0  0  0  0  0
   67.8706   76.4703   88.0981 C   0  0  0  0  0  0  0  0  0  0  0  0
   67.5385   78.0694   90.0070 C   0  0  0  0  0  0  0  0  0  0  0  0
   71.2522   75.5287   90.2179 C   0  0  0  0  0  0  0  0  0  0  0  0
   70.5946   76.6452   89.6156 O   0  0  0  0  0  0  0  0  0  0  0  0
   71.1952   77.8805   89.3170 C   0  0  0  0  0  0  0  0  0  0  0  0
   72.5699   77.9025   89.0690 C   0  0  0  0  0  0  0  0  0  0  0  0
   73.2210   79.1044   88.7908 C   0  0  0  0  0  0  0  0  0  0  0  0
   72.5053   80.3091   88.7503 C   0  0  0  0  0  0  0  0  0  0  0  0
   73.1845   81.4996   88.4904 O   0  0  0  0  0  0  0  0  0  0  0  0
   71.1108   80.3071   88.9784 C   0  0  0  0  0  0  0  0  0  0  0  0
   70.4681   79.0844   89.2561 C   0  0  0  0  0  0  0  0  0  0  0  0
   74.1094   81.4883   88.3407 H   0  0  0  0  0  0  0  0  0  0  0  0
   70.3117   81.5592   88.9300 C   0  0  0  0  0  0  0  0  0  0  0  0
   69.5451   81.7846   87.9540 O   0  0  0  0  0  0  0  0  0  0  0  0
   70.3998   82.5031   89.9506 O   0  0  0  0  0  0  0  0  0  0  0  0
   70.9647   82.3506   90.6824 H   0  0  0  0  0  0  0  0  0  0  0  0
 18 19  1  0  0  0
 19 20  1  0  0  0
 19 21  1  0  0  0
 19 17  1  0  0  0
 17 16  1  0  0  0
 16 13  1  0  0  0
 13 14  2  0  0  0
 13 15  2  0  0  0
 13  7  1  0  0  0
  7  8  2  0  0  0
  8  9  1  0  0  0
  9 10  2  0  0  0
 10 11  1  0  0  0
 11  1  1  0  0  0
  1  2  2  0  0  0
  2  3  1  0  0  0
  3  4  2  0  0  0
  4  5  1  0  0  0
  5 22  1  0  0  0
 22 23  1  0  0  0
 23 24  1  0  0  0
 24 25  2  0  0  0
 25 26  1  0  0  0
 26 27  2  0  0  0
 27 28  1  0  0  0
 27 29  1  0  0  0
 29 32  1  0  0  0
 32 33  2  0  0  0
 32 34  1  0  0  0
 29 30  2  0  0  0
  5  6  2  0  0  0
 11 12  2  0  0  0
 12  7  1  0  0  0
  6  1  1  0  0  0
 30 24  1  0  0  0
 28 31  1  0  0  0
 34 35  1  0  0  0
M  END
> <Activity>
91.6

> <minimizedAffinity>
-8.97199

$$$$
HIPS6245


 35 37  0  0  0  0  0  0  0  0999 V2000
   70.4404   77.6442   90.0918 C   0  0  0  0  0  0  0  0  0  0  0  0
   71.4632   76.7008   89.8929 C   0  0  0  0  0  0  0  0  0  0  0  0
   71.4939   75.5238   90.6444 C   0  0  0  0  0  0  0  0  0  0  0  0
   70.4967   75.2667   91.5875 C   0  0  0  0  0  0  0  0  0  0  0  0
   69.4658   76.1943   91.7969 C   0  0  0  0  0  0  0  0  0  0  0  0
   69.4547   77.3906   91.0618 C   0  0  0  0  0  0  0  0  0  0  0  0
   69.1550   80.2443   87.6471 C   0  0  0  0  0  0  0  0  0  0  0  0
   70.1413   81.2320   87.7568 C   0  0  0  0  0  0  0  0  0  0  0  0
   71.2386   81.0370   88.5986 C   0  0  0  0  0  0  0  0  0  0  0  0
   71.3495   79.8625   89.3475 C   0  0  0  0  0  0  0  0  0  0  0  0
   70.3646   78.8636   89.2521 C   0  0  0  0  0  0  0  0  0  0  0  0
   69.2732   79.0603   88.3880 C   0  0  0  0  0  0  0  0  0  0  0  0
   67.7321   80.5264   86.6455 S   0  0  0  0  0  0  0  0  0  0  0  0
   68.1368   81.0999   85.3148 O   0  0  0  0  0  0  0  0  0  0  0  0
   66.8419   81.5231   87.3326 O   0  0  0  0  0  0  0  0  0  0  0  0
   66.8734   79.0793   86.4353 O   0  0  0  0  0  0  0  0  0  0  0  0
   67.0191   78.2889   87.5945 C   0  0  0  0  0  0  0  0  0  0  0  0
   67.9080   75.9763   88.1190 C   0  0  0  0  0  0  0  0  0  0  0  0
   66.9359   76.7863   87.2379 C   0  0  0  0  0  0  0  0  0  0  0  0
   67.2924   76.5790   85.7520 C   0  0  0  0  0  0  0  0  0  0  0  0
   65.4974   76.2894   87.4855 C   0  0  0  0  0  0  0  0  0  0  0  0
   68.3543   75.8729   92.7601 C   0  0  0  0  0  0  0  0  0  0  0  0
   67.6545   74.7005   92.3386 O   0  0  0  0  0  0  0  0  0  0  0  0
   66.3663   74.6786   91.7766 C   0  0  0  0  0  0  0  0  0  0  0  0
   65.7920   73.4371   91.4922 C   0  0  0  0  0  0  0  0  0  0  0  0
   64.5258   73.3577   90.9124 C   0  0  0  0  0  0  0  0  0  0  0  0
   63.8066   74.5226   90.6106 C   0  0  0  0  0  0  0  0  0  0  0  0
   62.5511   74.4154   90.0119 O   0  0  0  0  0  0  0  0  0  0  0  0
   64.3601   75.7882   90.9082 C   0  0  0  0  0  0  0  0  0  0  0  0
   65.6393   75.8508   91.4955 C   0  0  0  0  0  0  0  0  0  0  0  0
   62.1945   73.5705   89.8194 H   0  0  0  0  0  0  0  0  0  0  0  0
   63.6256   77.0472   90.6187 C   0  0  0  0  0  0  0  0  0  0  0  0
   63.6147   77.9835   91.4639 O   0  0  0  0  0  0  0  0  0  0  0  0
   62.9346   77.2122   89.4205 O   0  0  0  0  0  0  0  0  0  0  0  0
   62.9330   76.5261   88.7823 H   0  0  0  0  0  0  0  0  0  0  0  0
 18 19  1  0  0  0
 19 20  1  0  0  0
 19 21  1  0  0  0
 19 17  1  0  0  0
 17 16  1  0  0  0
 16 13  1  0  0  0
 13 14  2  0  0  0
 13 15  2  0  0  0
 13  7  1  0  0  0
  7  8  2  0  0  0
  8  9  1  0  0  0
  9 10  2  0  0  0
 10 11  1  0  0  0
 11  1  1  0  0  0
  1  2  2  0  0  0
  2  3  1  0  0  0
  3  4  2  0  0  0
  4  5  1  0  0  0
  5 22  1  0  0  0
 22 23  1  0  0  0
 23 24  1  0  0  0
 24 25  2  0  0  0
 25 26  1  0  0  0
 26 27  2  0  0  0
 27 28  1  0  0  0
 27 29  1  0  0  0
 29 32  1  0  0  0
 32 33  2  0  0  0
 32 34  1  0  0  0
 29 30  2  0  0  0
  5  6  2  0  0  0
 11 12  2  0  0  0
 12  7  1  0  0  0
  6  1  1  0  0  0
 30 24  1  0  0  0
 28 31  1  0  0  0
 34 35  1  0  0  0
M  END
> <Activity>
91.6

> <minimizedAffinity>
-8.90920

$$$$
HIPS6245


 35 37  0  0  0  0  0  0  0  0999 V2000
   68.0842   74.2027   91.6569 C   0  0  0  0  0  0  0  0  0  0  0  0
   68.5739   73.4451   92.7350 C   0  0  0  0  0  0  0  0  0  0  0  0
   69.9484   73.3491   92.9635 C   0  0  0  0  0  0  0  0  0  0  0  0
   70.8472   74.0211   92.1324 C   0  0  0  0  0  0  0  0  0  0  0  0
   70.3771   74.7851   91.0543 C   0  0  0  0  0  0  0  0  0  0  0  0
   68.9963   74.8549   90.8086 C   0  0  0  0  0  0  0  0  0  0  0  0
   64.7052   75.8007   91.0099 C   0  0  0  0  0  0  0  0  0  0  0  0
   63.8834   74.6709   90.9169 C   0  0  0  0  0  0  0  0  0  0  0  0
   64.4219   73.3950   91.0977 C   0  0  0  0  0  0  0  0  0  0  0  0
   65.7861   73.2385   91.3567 C   0  0  0  0  0  0  0  0  0  0  0  0
   66.6253   74.3629   91.4480 C   0  0  0  0  0  0  0  0  0  0  0  0
   66.0712   75.6445   91.2832 C   0  0  0  0  0  0  0  0  0  0  0  0
   64.0391   77.4035   90.7028 S   0  0  0  0  0  0  0  0  0  0  0  0
   63.0744   77.7846   91.7926 O   0  0  0  0  0  0  0  0  0  0  0  0
   63.2878   77.3783   89.4017 O   0  0  0  0  0  0  0  0  0  0  0  0
   65.2913   78.5413   90.5897 O   0  0  0  0  0  0  0  0  0  0  0  0
   65.6366   78.9715   91.8879 C   0  0  0  0  0  0  0  0  0  0  0  0
   67.3843   77.5802   93.0810 C   0  0  0  0  0  0  0  0  0  0  0  0
   67.1505   78.7766   92.1369 C   0  0  0  0  0  0  0  0  0  0  0  0
   67.7478   80.0526   92.7642 C   0  0  0  0  0  0  0  0  0  0  0  0
   67.8503   78.5012   90.7909 C   0  0  0  0  0  0  0  0  0  0  0  0
   71.3489   75.5673   90.2115 C   0  0  0  0  0  0  0  0  0  0  0  0
   70.6846   76.6563   89.5677 O   0  0  0  0  0  0  0  0  0  0  0  0
   71.2595   77.9066   89.2811 C   0  0  0  0  0  0  0  0  0  0  0  0
   72.6397   77.9655   89.0727 C   0  0  0  0  0  0  0  0  0  0  0  0
   73.2655   79.1838   88.8082 C   0  0  0  0  0  0  0  0  0  0  0  0
   72.5185   80.3682   88.7419 C   0  0  0  0  0  0  0  0  0  0  0  0
   73.1721   81.5760   88.4965 O   0  0  0  0  0  0  0  0  0  0  0  0
   71.1186   80.3287   88.9297 C   0  0  0  0  0  0  0  0  0  0  0  0
   70.5019   79.0898   89.1941 C   0  0  0  0  0  0  0  0  0  0  0  0
   74.1009   81.5896   88.3736 H   0  0  0  0  0  0  0  0  0  0  0  0
   70.2873   81.5581   88.8529 C   0  0  0  0  0  0  0  0  0  0  0  0
   70.3910   82.4500   89.7389 O   0  0  0  0  0  0  0  0  0  0  0  0
   69.3796   81.7433   87.8125 O   0  0  0  0  0  0  0  0  0  0  0  0
   69.2907   81.0902   87.1466 H   0  0  0  0  0  0  0  0  0  0  0  0
 18 19  1  0  0  0
 19 20  1  0  0  0
 19 21  1  0  0  0
 19 17  1  0  0  0
 17 16  1  0  0  0
 16 13  1  0  0  0
 13 14  2  0  0  0
 13 15  2  0  0  0
 13  7  1  0  0  0
  7  8  2  0  0  0
  8  9  1  0  0  0
  9 10  2  0  0  0
 10 11  1  0  0  0
 11  1  1  0  0  0
  1  2  2  0  0  0
  2  3  1  0  0  0
  3  4  2  0  0  0
  4  5  1  0  0  0
  5 22  1  0  0  0
 22 23  1  0  0  0
 23 24  1  0  0  0
 24 25  2  0  0  0
 25 26  1  0  0  0
 26 27  2  0  0  0
 27 28  1  0  0  0
 27 29  1  0  0  0
 29 32  1  0  0  0
 32 33  2  0  0  0
 32 34  1  0  0  0
 29 30  2  0  0  0
  5  6  2  0  0  0
 11 12  2  0  0  0
 12  7  1  0  0  0
  6  1  1  0  0  0
 30 24  1  0  0  0
 28 31  1  0  0  0
 34 35  1  0  0  0
M  END
> <Activity>
91.6

> <minimizedAffinity>
-8.76262

$$$$
HIPS6245


 35 37  0  0  0  0  0  0  0  0999 V2000
   69.3862   76.6901   89.5107 C   0  0  0  0  0  0  0  0  0  0  0  0
   70.2233   75.5814   89.2957 C   0  0  0  0  0  0  0  0  0  0  0  0
   70.9188   75.0049   90.3609 C   0  0  0  0  0  0  0  0  0  0  0  0
   70.7731   75.5149   91.6527 C   0  0  0  0  0  0  0  0  0  0  0  0
   69.9392   76.6179   91.8873 C   0  0  0  0  0  0  0  0  0  0  0  0
   69.2653   77.2145   90.8096 C   0  0  0  0  0  0  0  0  0  0  0  0
   67.8838   79.2029   87.0986 C   0  0  0  0  0  0  0  0  0  0  0  0
   67.2082   78.3572   86.2106 C   0  0  0  0  0  0  0  0  0  0  0  0
   67.2139   76.9757   86.4160 C   0  0  0  0  0  0  0  0  0  0  0  0
   67.9069   76.4295   87.4995 C   0  0  0  0  0  0  0  0  0  0  0  0
   68.5944   77.2652   88.3971 C   0  0  0  0  0  0  0  0  0  0  0  0
   68.5677   78.6560   88.1932 C   0  0  0  0  0  0  0  0  0  0  0  0
   67.9416   80.9379   86.7928 S   0  0  0  0  0  0  0  0  0  0  0  0
   66.6218   81.5723   87.1383 O   0  0  0  0  0  0  0  0  0  0  0  0
   68.2014   81.1670   85.3306 O   0  0  0  0  0  0  0  0  0  0  0  0
   69.1960   81.6445   87.6888 O   0  0  0  0  0  0  0  0  0  0  0  0
   70.3843   80.9189   87.4622 C   0  0  0  0  0  0  0  0  0  0  0  0
   72.4278   81.9018   88.5898 C   0  0  0  0  0  0  0  0  0  0  0  0
   71.2604   80.9053   88.7366 C   0  0  0  0  0  0  0  0  0  0  0  0
   71.8195   79.4879   88.9742 C   0  0  0  0  0  0  0  0  0  0  0  0
   70.3960   81.3157   89.9457 C   0  0  0  0  0  0  0  0  0  0  0  0
   69.7294   77.1114   93.2941 C   0  0  0  0  0  0  0  0  0  0  0  0
   68.3342   77.2517   93.5690 O   0  0  0  0  0  0  0  0  0  0  0  0
   67.3150   77.3082   92.6026 C   0  0  0  0  0  0  0  0  0  0  0  0
   66.8518   78.5651   92.2056 C   0  0  0  0  0  0  0  0  0  0  0  0
   65.8259   78.6787   91.2673 C   0  0  0  0  0  0  0  0  0  0  0  0
   65.2468   77.5334   90.7034 C   0  0  0  0  0  0  0  0  0  0  0  0
   64.2081   77.6748   89.7828 O   0  0  0  0  0  0  0  0  0  0  0  0
   65.7136   76.2527   91.0757 C   0  0  0  0  0  0  0  0  0  0  0  0
   66.7518   76.1555   92.0232 C   0  0  0  0  0  0  0  0  0  0  0  0
   63.9071   78.5293   89.5437 H   0  0  0  0  0  0  0  0  0  0  0  0
   65.1381   75.0135   90.4913 C   0  0  0  0  0  0  0  0  0  0  0  0
   65.7103   73.9035   90.6693 O   0  0  0  0  0  0  0  0  0  0  0  0
   63.9687   75.0559   89.7356 O   0  0  0  0  0  0  0  0  0  0  0  0
   63.5316   75.8726   89.5941 H   0  0  0  0  0  0  0  0  0  0  0  0
 18 19  1  0  0  0
 19 20  1  0  0  0
 19 21  1  0  0  0
 19 17  1  0  0  0
 17 16  1  0  0  0
 16 13  1  0  0  0
 13 14  2  0  0  0
 13 15  2  0  0  0
 13  7  1  0  0  0
  7  8  2  0  0  0
  8  9  1  0  0  0
  9 10  2  0  0  0
 10 11  1  0  0  0
 11  1  1  0  0  0
  1  2  2  0  0  0
  2  3  1  0  0  0
  3  4  2  0  0  0
  4  5  1  0  0  0
  5 22  1  0  0  0
 22 23  1  0  0  0
 23 24  1  0  0  0
 24 25  2  0  0  0
 25 26  1  0  0  0
 26 27  2  0  0  0
 27 28  1  0  0  0
 27 29  1  0  0  0
 29 32  1  0  0  0
 32 33  2  0  0  0
 32 34  1  0  0  0
 29 30  2  0  0  0
  5  6  2  0  0  0
 11 12  2  0  0  0
 12  7  1  0  0  0
  6  1  1  0  0  0
 30 24  1  0  0  0
 28 31  1  0  0  0
 34 35  1  0  0  0
M  END
> <Activity>
91.6

> <minimizedAffinity>
-8.75300

$$$$
HIPS6245


 35 37  0  0  0  0  0  0  0  0999 V2000
   71.2620   78.1645   89.6097 C   0  0  0  0  0  0  0  0  0  0  0  0
   72.5764   78.1316   89.1126 C   0  0  0  0  0  0  0  0  0  0  0  0
   73.1230   79.2545   88.4872 C   0  0  0  0  0  0  0  0  0  0  0  0
   72.3728   80.4263   88.3673 C   0  0  0  0  0  0  0  0  0  0  0  0
   71.0611   80.4793   88.8609 C   0  0  0  0  0  0  0  0  0  0  0  0
   70.5036   79.3392   89.4617 C   0  0  0  0  0  0  0  0  0  0  0  0
   68.8092   75.9058   91.4185 C   0  0  0  0  0  0  0  0  0  0  0  0
   69.5780   74.7475   91.5850 C   0  0  0  0  0  0  0  0  0  0  0  0
   70.9014   74.7139   91.1398 C   0  0  0  0  0  0  0  0  0  0  0  0
   71.4598   75.8305   90.5121 C   0  0  0  0  0  0  0  0  0  0  0  0
   70.6991   76.9992   90.3329 C   0  0  0  0  0  0  0  0  0  0  0  0
   69.3737   77.0304   90.8009 C   0  0  0  0  0  0  0  0  0  0  0  0
   67.1163   75.9186   91.9091 S   0  0  0  0  0  0  0  0  0  0  0  0
   66.6899   77.3144   92.2743 O   0  0  0  0  0  0  0  0  0  0  0  0
   66.9535   75.0478   93.1228 O   0  0  0  0  0  0  0  0  0  0  0  0
   66.1451   75.3054   90.6615 O   0  0  0  0  0  0  0  0  0  0  0  0
   64.9724   74.7578   91.2224 C   0  0  0  0  0  0  0  0  0  0  0  0
   63.9292   75.3636   88.9956 C   0  0  0  0  0  0  0  0  0  0  0  0
   63.7190   75.3336   90.5228 C   0  0  0  0  0  0  0  0  0  0  0  0
   63.4428   76.7624   91.0333 C   0  0  0  0  0  0  0  0  0  0  0  0
   62.5060   74.4388   90.8475 C   0  0  0  0  0  0  0  0  0  0  0  0
   70.2887   81.7700   88.7955 C   0  0  0  0  0  0  0  0  0  0  0  0
   69.5543   81.8486   87.5724 O   0  0  0  0  0  0  0  0  0  0  0  0
   68.7245   80.8394   87.0539 C   0  0  0  0  0  0  0  0  0  0  0  0
   68.3774   80.9008   85.7020 C   0  0  0  0  0  0  0  0  0  0  0  0
   67.5378   79.9383   85.1412 C   0  0  0  0  0  0  0  0  0  0  0  0
   67.0329   78.8908   85.9240 C   0  0  0  0  0  0  0  0  0  0  0  0
   66.1785   77.9534   85.3430 O   0  0  0  0  0  0  0  0  0  0  0  0
   67.3872   78.7982   87.2887 C   0  0  0  0  0  0  0  0  0  0  0  0
   68.2378   79.7773   87.8392 C   0  0  0  0  0  0  0  0  0  0  0  0
   65.9507   78.0252   84.4370 H   0  0  0  0  0  0  0  0  0  0  0  0
   66.8866   77.6957   88.1505 C   0  0  0  0  0  0  0  0  0  0  0  0
   67.1386   76.4957   87.8549 O   0  0  0  0  0  0  0  0  0  0  0  0
   66.1292   77.9654   89.2880 O   0  0  0  0  0  0  0  0  0  0  0  0
   65.9334   78.8515   89.5213 H   0  0  0  0  0  0  0  0  0  0  0  0
 18 19  1  0  0  0
 19 20  1  0  0  0
 19 21  1  0  0  0
 19 17  1  0  0  0
 17 16  1  0  0  0
 16 13  1  0  0  0
 13 14  2  0  0  0
 13 15  2  0  0  0
 13  7  1  0  0  0
  7  8  2  0  0  0
  8  9  1  0  0  0
  9 10  2  0  0  0
 10 11  1  0  0  0
 11  1  1  0  0  0
  1  2  2  0  0  0
  2  3  1  0  0  0
  3  4  2  0  0  0
  4  5  1  0  0  0
  5 22  1  0  0  0
 22 23  1  0  0  0
 23 24  1  0  0  0
 24 25  2  0  0  0
 25 26  1  0  0  0
 26 27  2  0  0  0
 27 28  1  0  0  0
 27 29  1  0  0  0
 29 32  1  0  0  0
 32 33  2  0  0  0
 32 34  1  0  0  0
 29 30  2  0  0  0
  5  6  2  0  0  0
 11 12  2  0  0  0
 12  7  1  0  0  0
  6  1  1  0  0  0
 30 24  1  0  0  0
 28 31  1  0  0  0
 34 35  1  0  0  0
M  END
> <Activity>
91.6

> <minimizedAffinity>
-8.65044

$$$$
HIPS6245


 35 37  0  0  0  0  0  0  0  0999 V2000
   69.3848   77.1509   91.4344 C   0  0  0  0  0  0  0  0  0  0  0  0
   68.8198   77.8568   92.5108 C   0  0  0  0  0  0  0  0  0  0  0  0
   68.0864   77.1826   93.4898 C   0  0  0  0  0  0  0  0  0  0  0  0
   67.9243   75.7975   93.4163 C   0  0  0  0  0  0  0  0  0  0  0  0
   68.4842   75.0758   92.3520 C   0  0  0  0  0  0  0  0  0  0  0  0
   69.1949   75.7602   91.3529 C   0  0  0  0  0  0  0  0  0  0  0  0
   70.8233   79.8963   89.2473 C   0  0  0  0  0  0  0  0  0  0  0  0
   71.8803   79.2219   88.6242 C   0  0  0  0  0  0  0  0  0  0  0  0
   72.1028   77.8689   88.8899 C   0  0  0  0  0  0  0  0  0  0  0  0
   71.2817   77.1856   89.7907 C   0  0  0  0  0  0  0  0  0  0  0  0
   70.2195   77.8502   90.4284 C   0  0  0  0  0  0  0  0  0  0  0  0
   69.9913   79.2074   90.1407 C   0  0  0  0  0  0  0  0  0  0  0  0
   70.5936   81.6220   88.9713 S   0  0  0  0  0  0  0  0  0  0  0  0
   71.8858   82.2566   88.5344 O   0  0  0  0  0  0  0  0  0  0  0  0
   70.1670   82.2693   90.2585 O   0  0  0  0  0  0  0  0  0  0  0  0
   69.3845   81.8685   87.8080 O   0  0  0  0  0  0  0  0  0  0  0  0
   69.2825   80.7144   87.0034 C   0  0  0  0  0  0  0  0  0  0  0  0
   67.5163   79.9524   85.3561 C   0  0  0  0  0  0  0  0  0  0  0  0
   67.8009   80.3062   86.8296 C   0  0  0  0  0  0  0  0  0  0  0  0
   66.8824   81.4647   87.2682 C   0  0  0  0  0  0  0  0  0  0  0  0
   67.5124   79.0731   87.7092 C   0  0  0  0  0  0  0  0  0  0  0  0
   68.3691   73.5750   92.3232 C   0  0  0  0  0  0  0  0  0  0  0  0
   67.4134   73.1682   91.3418 O   0  0  0  0  0  0  0  0  0  0  0  0
   66.1104   73.6794   91.2126 C   0  0  0  0  0  0  0  0  0  0  0  0
   65.0386   72.7916   91.3349 C   0  0  0  0  0  0  0  0  0  0  0  0
   63.7258   73.2410   91.1922 C   0  0  0  0  0  0  0  0  0  0  0  0
   63.4605   74.5921   90.9290 C   0  0  0  0  0  0  0  0  0  0  0  0
   62.1394   75.0113   90.7701 O   0  0  0  0  0  0  0  0  0  0  0  0
   64.5285   75.5110   90.8213 C   0  0  0  0  0  0  0  0  0  0  0  0
   65.8485   75.0411   90.9700 C   0  0  0  0  0  0  0  0  0  0  0  0
   61.4395   74.3926   90.8438 H   0  0  0  0  0  0  0  0  0  0  0  0
   64.2910   76.9542   90.5582 C   0  0  0  0  0  0  0  0  0  0  0  0
   63.5788   77.6336   91.3470 O   0  0  0  0  0  0  0  0  0  0  0  0
   64.8406   77.5767   89.4398 O   0  0  0  0  0  0  0  0  0  0  0  0
   65.3719   77.0859   88.8442 H   0  0  0  0  0  0  0  0  0  0  0  0
 18 19  1  0  0  0
 19 20  1  0  0  0
 19 21  1  0  0  0
 19 17  1  0  0  0
 17 16  1  0  0  0
 16 13  1  0  0  0
 13 14  2  0  0  0
 13 15  2  0  0  0
 13  7  1  0  0  0
  7  8  2  0  0  0
  8  9  1  0  0  0
  9 10  2  0  0  0
 10 11  1  0  0  0
 11  1  1  0  0  0
  1  2  2  0  0  0
  2  3  1  0  0  0
  3  4  2  0  0  0
  4  5  1  0  0  0
  5 22  1  0  0  0
 22 23  1  0  0  0
 23 24  1  0  0  0
 24 25  2  0  0  0
 25 26  1  0  0  0
 26 27  2  0  0  0
 27 28  1  0  0  0
 27 29  1  0  0  0
 29 32  1  0  0  0
 32 33  2  0  0  0
 32 34  1  0  0  0
 29 30  2  0  0  0
  5  6  2  0  0  0
 11 12  2  0  0  0
 12  7  1  0  0  0
  6  1  1  0  0  0
 30 24  1  0  0  0
 28 31  1  0  0  0
 34 35  1  0  0  0
M  END
> <Activity>
91.6

> <minimizedAffinity>
-8.46186

$$$$
HIPS6245


 35 37  0  0  0  0  0  0  0  0999 V2000
   66.2304   73.5659   91.8110 C   0  0  0  0  0  0  0  0  0  0  0  0
   66.4018   72.2764   91.2785 C   0  0  0  0  0  0  0  0  0  0  0  0
   65.2933   71.5173   90.8965 C   0  0  0  0  0  0  0  0  0  0  0  0
   64.0054   72.0418   91.0239 C   0  0  0  0  0  0  0  0  0  0  0  0
   63.8149   73.3282   91.5492 C   0  0  0  0  0  0  0  0  0  0  0  0
   64.9292   74.0770   91.9609 C   0  0  0  0  0  0  0  0  0  0  0  0
   68.3820   76.6006   92.5530 C   0  0  0  0  0  0  0  0  0  0  0  0
   69.5833   75.9944   92.9399 C   0  0  0  0  0  0  0  0  0  0  0  0
   69.7028   74.6029   92.9268 C   0  0  0  0  0  0  0  0  0  0  0  0
   68.6193   73.8084   92.5427 C   0  0  0  0  0  0  0  0  0  0  0  0
   67.4048   74.4021   92.1564 C   0  0  0  0  0  0  0  0  0  0  0  0
   67.2995   75.8041   92.1547 C   0  0  0  0  0  0  0  0  0  0  0  0
   68.2081   78.3522   92.6464 S   0  0  0  0  0  0  0  0  0  0  0  0
   68.9812   78.8910   93.8193 O   0  0  0  0  0  0  0  0  0  0  0  0
   66.7576   78.6883   92.8490 O   0  0  0  0  0  0  0  0  0  0  0  0
   68.7389   79.0667   91.2030 O   0  0  0  0  0  0  0  0  0  0  0  0
   69.3234   78.0735   90.3895 C   0  0  0  0  0  0  0  0  0  0  0  0
   70.2075   80.2387   89.4180 C   0  0  0  0  0  0  0  0  0  0  0  0
   70.0633   78.7199   89.1951 C   0  0  0  0  0  0  0  0  0  0  0  0
   69.2808   78.4623   87.8914 C   0  0  0  0  0  0  0  0  0  0  0  0
   71.4665   78.0925   89.0734 C   0  0  0  0  0  0  0  0  0  0  0  0
   62.4293   73.9136   91.6107 C   0  0  0  0  0  0  0  0  0  0  0  0
   62.3155   75.0177   90.7108 O   0  0  0  0  0  0  0  0  0  0  0  0
   63.3377   75.9359   90.4144 C   0  0  0  0  0  0  0  0  0  0  0  0
   63.3937   77.1210   91.1521 C   0  0  0  0  0  0  0  0  0  0  0  0
   64.3731   78.0775   90.8839 C   0  0  0  0  0  0  0  0  0  0  0  0
   65.3204   77.8624   89.8732 C   0  0  0  0  0  0  0  0  0  0  0  0
   66.2762   78.8444   89.6116 O   0  0  0  0  0  0  0  0  0  0  0  0
   65.2944   76.6619   89.1283 C   0  0  0  0  0  0  0  0  0  0  0  0
   64.2999   75.7054   89.4131 C   0  0  0  0  0  0  0  0  0  0  0  0
   66.2834   79.6363   90.1123 H   0  0  0  0  0  0  0  0  0  0  0  0
   66.2888   76.3872   88.0586 C   0  0  0  0  0  0  0  0  0  0  0  0
   67.3746   75.8082   88.3359 O   0  0  0  0  0  0  0  0  0  0  0  0
   66.0449   76.7680   86.7411 O   0  0  0  0  0  0  0  0  0  0  0  0
   65.2432   77.1991   86.5188 H   0  0  0  0  0  0  0  0  0  0  0  0
 18 19  1  0  0  0
 19 20  1  0  0  0
 19 21  1  0  0  0
 19 17  1  0  0  0
 17 16  1  0  0  0
 16 13  1  0  0  0
 13 14  2  0  0  0
 13 15  2  0  0  0
 13  7  1  0  0  0
  7  8  2  0  0  0
  8  9  1  0  0  0
  9 10  2  0  0  0
 10 11  1  0  0  0
 11  1  1  0  0  0
  1  2  2  0  0  0
  2  3  1  0  0  0
  3  4  2  0  0  0
  4  5  1  0  0  0
  5 22  1  0  0  0
 22 23  1  0  0  0
 23 24  1  0  0  0
 24 25  2  0  0  0
 25 26  1  0  0  0
 26 27  2  0  0  0
 27 28  1  0  0  0
 27 29  1  0  0  0
 29 32  1  0  0  0
 32 33  2  0  0  0
 32 34  1  0  0  0
 29 30  2  0  0  0
  5  6  2  0  0  0
 11 12  2  0  0  0
 12  7  1  0  0  0
  6  1  1  0  0  0
 30 24  1  0  0  0
 28 31  1  0  0  0
 34 35  1  0  0  0
M  END
> <Activity>
91.6

> <minimizedAffinity>
-8.37458

$$$$
HIPS6245


 35 37  0  0  0  0  0  0  0  0999 V2000
   68.1446   74.3145   91.5831 C   0  0  0  0  0  0  0  0  0  0  0  0
   68.7013   73.6810   92.7077 C   0  0  0  0  0  0  0  0  0  0  0  0
   70.0875   73.6035   92.8602 C   0  0  0  0  0  0  0  0  0  0  0  0
   70.9320   74.1719   91.9042 C   0  0  0  0  0  0  0  0  0  0  0  0
   70.3949   74.8116   90.7776 C   0  0  0  0  0  0  0  0  0  0  0  0
   69.0014   74.8610   90.6115 C   0  0  0  0  0  0  0  0  0  0  0  0
   64.7218   75.8711   91.0828 C   0  0  0  0  0  0  0  0  0  0  0  0
   63.9067   74.7330   91.0558 C   0  0  0  0  0  0  0  0  0  0  0  0
   64.4656   73.4655   91.2338 C   0  0  0  0  0  0  0  0  0  0  0  0
   65.8429   73.3256   91.4237 C   0  0  0  0  0  0  0  0  0  0  0  0
   66.6753   74.4583   91.4481 C   0  0  0  0  0  0  0  0  0  0  0  0
   66.1015   75.7317   91.2869 C   0  0  0  0  0  0  0  0  0  0  0  0
   64.0257   77.4617   90.7789 S   0  0  0  0  0  0  0  0  0  0  0  0
   63.0169   77.8011   91.8423 O   0  0  0  0  0  0  0  0  0  0  0  0
   63.3177   77.4393   89.4536 O   0  0  0  0  0  0  0  0  0  0  0  0
   65.2518   78.6319   90.7245 O   0  0  0  0  0  0  0  0  0  0  0  0
   65.5604   79.0320   92.0415 C   0  0  0  0  0  0  0  0  0  0  0  0
   67.6052   80.1340   93.0504 C   0  0  0  0  0  0  0  0  0  0  0  0
   67.0772   78.8901   92.3079 C   0  0  0  0  0  0  0  0  0  0  0  0
   67.8317   78.7279   90.9728 C   0  0  0  0  0  0  0  0  0  0  0  0
   67.3201   77.6416   93.1795 C   0  0  0  0  0  0  0  0  0  0  0  0
   71.3115   75.4876   89.7930 C   0  0  0  0  0  0  0  0  0  0  0  0
   71.4139   76.8824   90.0856 O   0  0  0  0  0  0  0  0  0  0  0  0
   70.7968   77.9149   89.3582 C   0  0  0  0  0  0  0  0  0  0  0  0
   71.4029   79.1737   89.3565 C   0  0  0  0  0  0  0  0  0  0  0  0
   70.8210   80.2399   88.6706 C   0  0  0  0  0  0  0  0  0  0  0  0
   69.6211   80.0641   87.9674 C   0  0  0  0  0  0  0  0  0  0  0  0
   69.0496   81.1521   87.3072 O   0  0  0  0  0  0  0  0  0  0  0  0
   69.0014   78.7944   87.9393 C   0  0  0  0  0  0  0  0  0  0  0  0
   69.6033   77.7277   88.6357 C   0  0  0  0  0  0  0  0  0  0  0  0
   69.4698   81.9892   87.3330 H   0  0  0  0  0  0  0  0  0  0  0  0
   67.7372   78.5609   87.1939 C   0  0  0  0  0  0  0  0  0  0  0  0
   67.4289   77.3971   86.8175 O   0  0  0  0  0  0  0  0  0  0  0  0
   66.8795   79.6165   86.8931 O   0  0  0  0  0  0  0  0  0  0  0  0
   67.0942   80.4869   87.1656 H   0  0  0  0  0  0  0  0  0  0  0  0
 18 19  1  0  0  0
 19 20  1  0  0  0
 19 21  1  0  0  0
 19 17  1  0  0  0
 17 16  1  0  0  0
 16 13  1  0  0  0
 13 14  2  0  0  0
 13 15  2  0  0  0
 13  7  1  0  0  0
  7  8  2  0  0  0
  8  9  1  0  0  0
  9 10  2  0  0  0
 10 11  1  0  0  0
 11  1  1  0  0  0
  1  2  2  0  0  0
  2  3  1  0  0  0
  3  4  2  0  0  0
  4  5  1  0  0  0
  5 22  1  0  0  0
 22 23  1  0  0  0
 23 24  1  0  0  0
 24 25  2  0  0  0
 25 26  1  0  0  0
 26 27  2  0  0  0
 27 28  1  0  0  0
 27 29  1  0  0  0
 29 32  1  0  0  0
 32 33  2  0  0  0
 32 34  1  0  0  0
 29 30  2  0  0  0
  5  6  2  0  0  0
 11 12  2  0  0  0
 12  7  1  0  0  0
  6  1  1  0  0  0
 30 24  1  0  0  0
 28 31  1  0  0  0
 34 35  1  0  0  0
M  END
> <Activity>
91.6

> <minimizedAffinity>
-8.32770

$$$$
HIPS6245


 35 37  0  0  0  0  0  0  0  0999 V2000
   69.3242   76.3967   89.3443 C   0  0  0  0  0  0  0  0  0  0  0  0
   70.7279   76.4121   89.2706 C   0  0  0  0  0  0  0  0  0  0  0  0
   71.4926   75.7480   90.2323 C   0  0  0  0  0  0  0  0  0  0  0  0
   70.8670   75.0471   91.2655 C   0  0  0  0  0  0  0  0  0  0  0  0
   69.4675   75.0170   91.3530 C   0  0  0  0  0  0  0  0  0  0  0  0
   68.7020   75.7111   90.4024 C   0  0  0  0  0  0  0  0  0  0  0  0
   67.8146   79.0546   87.0978 C   0  0  0  0  0  0  0  0  0  0  0  0
   67.0661   78.2695   86.2126 C   0  0  0  0  0  0  0  0  0  0  0  0
   67.0262   76.8820   86.3674 C   0  0  0  0  0  0  0  0  0  0  0  0
   67.7455   76.2691   87.3968 C   0  0  0  0  0  0  0  0  0  0  0  0
   68.5060   77.0433   88.2906 C   0  0  0  0  0  0  0  0  0  0  0  0
   68.5253   78.4409   88.1386 C   0  0  0  0  0  0  0  0  0  0  0  0
   67.9273   80.7964   86.8524 S   0  0  0  0  0  0  0  0  0  0  0  0
   66.6042   81.4506   87.1439 O   0  0  0  0  0  0  0  0  0  0  0  0
   68.2748   81.0651   85.4154 O   0  0  0  0  0  0  0  0  0  0  0  0
   69.1439   81.4449   87.8400 O   0  0  0  0  0  0  0  0  0  0  0  0
   70.3936   80.9538   87.4077 C   0  0  0  0  0  0  0  0  0  0  0  0
   72.1295   82.0087   88.9201 C   0  0  0  0  0  0  0  0  0  0  0  0
   71.3315   80.7249   88.6160 C   0  0  0  0  0  0  0  0  0  0  0  0
   72.3081   79.5710   88.3111 C   0  0  0  0  0  0  0  0  0  0  0  0
   70.4825   80.3548   89.8487 C   0  0  0  0  0  0  0  0  0  0  0  0
   68.8024   74.1955   92.4252 C   0  0  0  0  0  0  0  0  0  0  0  0
   68.1381   75.0452   93.3624 O   0  0  0  0  0  0  0  0  0  0  0  0
   67.9049   76.4210   93.1921 C   0  0  0  0  0  0  0  0  0  0  0  0
   68.7705   77.3193   93.8211 C   0  0  0  0  0  0  0  0  0  0  0  0
   68.5716   78.6951   93.7048 C   0  0  0  0  0  0  0  0  0  0  0  0
   67.5028   79.1986   92.9502 C   0  0  0  0  0  0  0  0  0  0  0  0
   67.3144   80.5784   92.8674 O   0  0  0  0  0  0  0  0  0  0  0  0
   66.6270   78.3082   92.2893 C   0  0  0  0  0  0  0  0  0  0  0  0
   66.8430   76.9217   92.4154 C   0  0  0  0  0  0  0  0  0  0  0  0
   67.9018   81.1589   93.3101 H   0  0  0  0  0  0  0  0  0  0  0  0
   65.4908   78.7999   91.4671 C   0  0  0  0  0  0  0  0  0  0  0  0
   65.7075   79.3748   90.3655 O   0  0  0  0  0  0  0  0  0  0  0  0
   64.1757   78.6424   91.8986 O   0  0  0  0  0  0  0  0  0  0  0  0
   63.9980   78.2175   92.7146 H   0  0  0  0  0  0  0  0  0  0  0  0
 18 19  1  0  0  0
 19 20  1  0  0  0
 19 21  1  0  0  0
 19 17  1  0  0  0
 17 16  1  0  0  0
 16 13  1  0  0  0
 13 14  2  0  0  0
 13 15  2  0  0  0
 13  7  1  0  0  0
  7  8  2  0  0  0
  8  9  1  0  0  0
  9 10  2  0  0  0
 10 11  1  0  0  0
 11  1  1  0  0  0
  1  2  2  0  0  0
  2  3  1  0  0  0
  3  4  2  0  0  0
  4  5  1  0  0  0
  5 22  1  0  0  0
 22 23  1  0  0  0
 23 24  1  0  0  0
 24 25  2  0  0  0
 25 26  1  0  0  0
 26 27  2  0  0  0
 27 28  1  0  0  0
 27 29  1  0  0  0
 29 32  1  0  0  0
 32 33  2  0  0  0
 32 34  1  0  0  0
 29 30  2  0  0  0
  5  6  2  0  0  0
 11 12  2  0  0  0
 12  7  1  0  0  0
  6  1  1  0  0  0
 30 24  1  0  0  0
 28 31  1  0  0  0
 34 35  1  0  0  0
M  END
> <Activity>
91.6

> <minimizedAffinity>
-8.30536

$$$$
HIPS6247


 35 37  0  0  0  0  0  0  0  0999 V2000
   68.0550   74.4365   91.5331 C   0  0  0  0  0  0  0  0  0  0  0  0
   68.8042   73.8379   92.5622 C   0  0  0  0  0  0  0  0  0  0  0  0
   70.1563   74.1478   92.7252 C   0  0  0  0  0  0  0  0  0  0  0  0
   70.7763   75.0597   91.8691 C   0  0  0  0  0  0  0  0  0  0  0  0
   70.0428   75.6796   90.8472 C   0  0  0  0  0  0  0  0  0  0  0  0
   68.6880   75.3540   90.6738 C   0  0  0  0  0  0  0  0  0  0  0  0
   64.3199   74.7991   90.9381 C   0  0  0  0  0  0  0  0  0  0  0  0
   63.9003   73.4651   91.0245 C   0  0  0  0  0  0  0  0  0  0  0  0
   64.8296   72.4542   91.2759 C   0  0  0  0  0  0  0  0  0  0  0  0
   66.1812   72.7670   91.4413 C   0  0  0  0  0  0  0  0  0  0  0  0
   66.6200   74.1006   91.3522 C   0  0  0  0  0  0  0  0  0  0  0  0
   65.6767   75.1121   91.0946 C   0  0  0  0  0  0  0  0  0  0  0  0
   63.1589   76.0904   90.6477 S   0  0  0  0  0  0  0  0  0  0  0  0
   62.8054   76.6849   91.9818 O   0  0  0  0  0  0  0  0  0  0  0  0
   63.7783   77.1775   89.8134 O   0  0  0  0  0  0  0  0  0  0  0  0
   61.6851   75.5180   89.8980 N   0  0  0  0  0  0  0  0  0  0  0  0
   61.4979   74.5843   90.2635 H   0  0  0  0  0  0  0  0  0  0  0  0
   61.2059   76.7431   87.7458 C   0  0  0  0  0  0  0  0  0  0  0  0
   61.6655   75.4289   88.4144 C   0  0  0  0  0  0  0  0  0  0  0  0
   60.6640   74.3179   88.0275 C   0  0  0  0  0  0  0  0  0  0  0  0
   63.0490   75.0141   87.8715 C   0  0  0  0  0  0  0  0  0  0  0  0
   70.7212   76.6255   89.9002 C   0  0  0  0  0  0  0  0  0  0  0  0
   69.9002   77.7757   89.7202 O   0  0  0  0  0  0  0  0  0  0  0  0
   69.0301   77.9707   88.6372 C   0  0  0  0  0  0  0  0  0  0  0  0
   68.4783   76.8452   88.0220 C   0  0  0  0  0  0  0  0  0  0  0  0
   67.5987   76.9848   86.9485 C   0  0  0  0  0  0  0  0  0  0  0  0
   67.2512   78.2527   86.4709 C   0  0  0  0  0  0  0  0  0  0  0  0
   66.3044   78.3251   85.4470 O   0  0  0  0  0  0  0  0  0  0  0  0
   67.8325   79.4047   87.0548 C   0  0  0  0  0  0  0  0  0  0  0  0
   68.7031   79.2500   88.1502 C   0  0  0  0  0  0  0  0  0  0  0  0
   65.9430   77.5392   85.0866 H   0  0  0  0  0  0  0  0  0  0  0  0
   67.5888   80.7659   86.5291 C   0  0  0  0  0  0  0  0  0  0  0  0
   68.0249   81.0901   85.3914 O   0  0  0  0  0  0  0  0  0  0  0  0
   66.8275   81.6791   87.2530 O   0  0  0  0  0  0  0  0  0  0  0  0
   66.4986   81.4480   88.0994 H   0  0  0  0  0  0  0  0  0  0  0  0
 18 19  1  0  0  0
 19 20  1  0  0  0
 19 21  1  0  0  0
 19 16  1  0  0  0
 16 13  1  0  0  0
 13 14  2  0  0  0
 13 15  2  0  0  0
 13  7  1  0  0  0
  7  8  2  0  0  0
  8  9  1  0  0  0
  9 10  2  0  0  0
 10 11  1  0  0  0
 11  1  1  0  0  0
  1  2  2  0  0  0
  2  3  1  0  0  0
  3  4  2  0  0  0
  4  5  1  0  0  0
  5 22  1  0  0  0
 22 23  1  0  0  0
 23 24  1  0  0  0
 24 25  2  0  0  0
 25 26  1  0  0  0
 26 27  2  0  0  0
 27 28  1  0  0  0
 27 29  1  0  0  0
 29 32  1  0  0  0
 32 33  2  0  0  0
 32 34  1  0  0  0
 29 30  2  0  0  0
  5  6  2  0  0  0
 11 12  2  0  0  0
 12  7  1  0  0  0
  6  1  1  0  0  0
 30 24  1  0  0  0
 16 17  1  0  0  0
 28 31  1  0  0  0
 34 35  1  0  0  0
M  END
> <Activity>
95.2

> <minimizedAffinity>
-10.30434

$$$$
HIPS6247


 35 37  0  0  0  0  0  0  0  0999 V2000
   68.3063   74.8195   91.3744 C   0  0  0  0  0  0  0  0  0  0  0  0
   69.1060   74.2846   92.4005 C   0  0  0  0  0  0  0  0  0  0  0  0
   70.4580   74.6229   92.4931 C   0  0  0  0  0  0  0  0  0  0  0  0
   71.0276   75.5002   91.5687 C   0  0  0  0  0  0  0  0  0  0  0  0
   70.2436   76.0571   90.5480 C   0  0  0  0  0  0  0  0  0  0  0  0
   68.8887   75.7026   90.4460 C   0  0  0  0  0  0  0  0  0  0  0  0
   64.5453   75.0942   90.9096 C   0  0  0  0  0  0  0  0  0  0  0  0
   64.1520   73.7607   91.0832 C   0  0  0  0  0  0  0  0  0  0  0  0
   65.1074   72.7786   91.3508 C   0  0  0  0  0  0  0  0  0  0  0  0
   66.4590   73.1199   91.4456 C   0  0  0  0  0  0  0  0  0  0  0  0
   66.8713   74.4531   91.2686 C   0  0  0  0  0  0  0  0  0  0  0  0
   65.9017   75.4352   90.9954 C   0  0  0  0  0  0  0  0  0  0  0  0
   63.3523   76.3507   90.5975 S   0  0  0  0  0  0  0  0  0  0  0  0
   63.0280   76.9991   91.9138 O   0  0  0  0  0  0  0  0  0  0  0  0
   63.9258   77.4092   89.6964 O   0  0  0  0  0  0  0  0  0  0  0  0
   61.8675   75.7193   89.9202 N   0  0  0  0  0  0  0  0  0  0  0  0
   61.6766   74.8280   90.3778 H   0  0  0  0  0  0  0  0  0  0  0  0
   63.2325   75.1972   87.8644 C   0  0  0  0  0  0  0  0  0  0  0  0
   61.8338   75.4843   88.4529 C   0  0  0  0  0  0  0  0  0  0  0  0
   61.2875   76.7674   87.7879 C   0  0  0  0  0  0  0  0  0  0  0  0
   60.8661   74.3342   88.1038 C   0  0  0  0  0  0  0  0  0  0  0  0
   70.8674   76.9647   89.5288 C   0  0  0  0  0  0  0  0  0  0  0  0
   70.4527   78.3044   89.7798 O   0  0  0  0  0  0  0  0  0  0  0  0
   69.8596   79.1456   88.8267 C   0  0  0  0  0  0  0  0  0  0  0  0
   70.3083   80.4649   88.7393 C   0  0  0  0  0  0  0  0  0  0  0  0
   69.7595   81.3389   87.8010 C   0  0  0  0  0  0  0  0  0  0  0  0
   68.7531   80.9099   86.9293 C   0  0  0  0  0  0  0  0  0  0  0  0
   68.3038   81.8104   85.9612 O   0  0  0  0  0  0  0  0  0  0  0  0
   68.2558   79.5876   87.0304 C   0  0  0  0  0  0  0  0  0  0  0  0
   68.8325   78.7106   87.9683 C   0  0  0  0  0  0  0  0  0  0  0  0
   68.6580   82.6771   85.9272 H   0  0  0  0  0  0  0  0  0  0  0  0
   67.1223   79.1048   86.2112 C   0  0  0  0  0  0  0  0  0  0  0  0
   66.5648   79.8792   85.3871 O   0  0  0  0  0  0  0  0  0  0  0  0
   66.7006   77.7810   86.2957 O   0  0  0  0  0  0  0  0  0  0  0  0
   67.1083   77.1974   86.9048 H   0  0  0  0  0  0  0  0  0  0  0  0
 18 19  1  0  0  0
 19 20  1  0  0  0
 19 21  1  0  0  0
 19 16  1  0  0  0
 16 13  1  0  0  0
 13 14  2  0  0  0
 13 15  2  0  0  0
 13  7  1  0  0  0
  7  8  2  0  0  0
  8  9  1  0  0  0
  9 10  2  0  0  0
 10 11  1  0  0  0
 11  1  1  0  0  0
  1  2  2  0  0  0
  2  3  1  0  0  0
  3  4  2  0  0  0
  4  5  1  0  0  0
  5 22  1  0  0  0
 22 23  1  0  0  0
 23 24  1  0  0  0
 24 25  2  0  0  0
 25 26  1  0  0  0
 26 27  2  0  0  0
 27 28  1  0  0  0
 27 29  1  0  0  0
 29 32  1  0  0  0
 32 33  2  0  0  0
 32 34  1  0  0  0
 29 30  2  0  0  0
  5  6  2  0  0  0
 11 12  2  0  0  0
 12  7  1  0  0  0
  6  1  1  0  0  0
 30 24  1  0  0  0
 16 17  1  0  0  0
 28 31  1  0  0  0
 34 35  1  0  0  0
M  END
> <Activity>
95.2

> <minimizedAffinity>
-9.95124

$$$$
HIPS6247


 35 37  0  0  0  0  0  0  0  0999 V2000
   67.9585   74.2398   91.5188 C   0  0  0  0  0  0  0  0  0  0  0  0
   68.5926   73.9344   92.7367 C   0  0  0  0  0  0  0  0  0  0  0  0
   69.9466   74.2233   92.9214 C   0  0  0  0  0  0  0  0  0  0  0  0
   70.6829   74.8231   91.8982 C   0  0  0  0  0  0  0  0  0  0  0  0
   70.0653   75.1503   90.6825 C   0  0  0  0  0  0  0  0  0  0  0  0
   68.7084   74.8435   90.4921 C   0  0  0  0  0  0  0  0  0  0  0  0
   64.2374   74.6553   90.8731 C   0  0  0  0  0  0  0  0  0  0  0  0
   63.7982   73.3271   90.9504 C   0  0  0  0  0  0  0  0  0  0  0  0
   64.7100   72.3028   91.2121 C   0  0  0  0  0  0  0  0  0  0  0  0
   66.0634   72.5966   91.3969 C   0  0  0  0  0  0  0  0  0  0  0  0
   66.5217   73.9241   91.3172 C   0  0  0  0  0  0  0  0  0  0  0  0
   65.5961   74.9492   91.0492 C   0  0  0  0  0  0  0  0  0  0  0  0
   63.0984   75.9632   90.5700 S   0  0  0  0  0  0  0  0  0  0  0  0
   62.7642   76.5843   91.8969 O   0  0  0  0  0  0  0  0  0  0  0  0
   63.7323   77.0259   89.7154 O   0  0  0  0  0  0  0  0  0  0  0  0
   61.6097   75.4067   89.8380 N   0  0  0  0  0  0  0  0  0  0  0  0
   61.4222   74.4709   90.1981 H   0  0  0  0  0  0  0  0  0  0  0  0
   61.1676   76.6727   87.7016 C   0  0  0  0  0  0  0  0  0  0  0  0
   61.5667   75.3311   88.3542 C   0  0  0  0  0  0  0  0  0  0  0  0
   60.5041   74.2767   87.9719 C   0  0  0  0  0  0  0  0  0  0  0  0
   62.9199   74.8496   87.7901 C   0  0  0  0  0  0  0  0  0  0  0  0
   70.8685   75.7540   89.5679 C   0  0  0  0  0  0  0  0  0  0  0  0
   70.5455   77.1369   89.4548 O   0  0  0  0  0  0  0  0  0  0  0  0
   69.2825   77.6838   89.7261 C   0  0  0  0  0  0  0  0  0  0  0  0
   68.3918   77.8490   88.6636 C   0  0  0  0  0  0  0  0  0  0  0  0
   67.1197   78.3779   88.8816 C   0  0  0  0  0  0  0  0  0  0  0  0
   66.7120   78.7492   90.1671 C   0  0  0  0  0  0  0  0  0  0  0  0
   65.3990   79.1961   90.3293 O   0  0  0  0  0  0  0  0  0  0  0  0
   67.6157   78.6280   91.2508 C   0  0  0  0  0  0  0  0  0  0  0  0
   68.8892   78.0743   91.0198 C   0  0  0  0  0  0  0  0  0  0  0  0
   64.8315   79.2625   89.5866 H   0  0  0  0  0  0  0  0  0  0  0  0
   67.2840   79.1000   92.6132 C   0  0  0  0  0  0  0  0  0  0  0  0
   66.9329   80.2968   92.7980 O   0  0  0  0  0  0  0  0  0  0  0  0
   67.2958   78.2188   93.6906 O   0  0  0  0  0  0  0  0  0  0  0  0
   67.5551   77.3274   93.5639 H   0  0  0  0  0  0  0  0  0  0  0  0
 18 19  1  0  0  0
 19 20  1  0  0  0
 19 21  1  0  0  0
 19 16  1  0  0  0
 16 13  1  0  0  0
 13 14  2  0  0  0
 13 15  2  0  0  0
 13  7  1  0  0  0
  7  8  2  0  0  0
  8  9  1  0  0  0
  9 10  2  0  0  0
 10 11  1  0  0  0
 11  1  1  0  0  0
  1  2  2  0  0  0
  2  3  1  0  0  0
  3  4  2  0  0  0
  4  5  1  0  0  0
  5 22  1  0  0  0
 22 23  1  0  0  0
 23 24  1  0  0  0
 24 25  2  0  0  0
 25 26  1  0  0  0
 26 27  2  0  0  0
 27 28  1  0  0  0
 27 29  1  0  0  0
 29 32  1  0  0  0
 32 33  2  0  0  0
 32 34  1  0  0  0
 29 30  2  0  0  0
  5  6  2  0  0  0
 11 12  2  0  0  0
 12  7  1  0  0  0
  6  1  1  0  0  0
 30 24  1  0  0  0
 16 17  1  0  0  0
 28 31  1  0  0  0
 34 35  1  0  0  0
M  END
> <Activity>
95.2

> <minimizedAffinity>
-9.72745

$$$$
HIPS6247


 35 37  0  0  0  0  0  0  0  0999 V2000
   67.6707   75.3895   91.7388 C   0  0  0  0  0  0  0  0  0  0  0  0
   67.7866   74.2629   92.5729 C   0  0  0  0  0  0  0  0  0  0  0  0
   69.0449   73.7622   92.9150 C   0  0  0  0  0  0  0  0  0  0  0  0
   70.2010   74.3797   92.4347 C   0  0  0  0  0  0  0  0  0  0  0  0
   70.1072   75.5138   91.6152 C   0  0  0  0  0  0  0  0  0  0  0  0
   68.8413   76.0055   91.2581 C   0  0  0  0  0  0  0  0  0  0  0  0
   63.9528   75.5596   90.9739 C   0  0  0  0  0  0  0  0  0  0  0  0
   63.8047   76.9136   90.6455 C   0  0  0  0  0  0  0  0  0  0  0  0
   64.9105   77.7652   90.6728 C   0  0  0  0  0  0  0  0  0  0  0  0
   66.1687   77.2725   91.0283 C   0  0  0  0  0  0  0  0  0  0  0  0
   66.3337   75.9170   91.3661 C   0  0  0  0  0  0  0  0  0  0  0  0
   65.2127   75.0672   91.3395 C   0  0  0  0  0  0  0  0  0  0  0  0
   62.5751   74.4648   90.9198 S   0  0  0  0  0  0  0  0  0  0  0  0
   63.0561   73.1661   90.3363 O   0  0  0  0  0  0  0  0  0  0  0  0
   62.0720   74.1825   92.3085 O   0  0  0  0  0  0  0  0  0  0  0  0
   61.2740   75.0651   89.9155 N   0  0  0  0  0  0  0  0  0  0  0  0
   60.4529   74.4891   90.1010 H   0  0  0  0  0  0  0  0  0  0  0  0
   62.9505   74.7277   88.0614 C   0  0  0  0  0  0  0  0  0  0  0  0
   61.4941   75.0689   88.4455 C   0  0  0  0  0  0  0  0  0  0  0  0
   61.1832   76.4924   87.9315 C   0  0  0  0  0  0  0  0  0  0  0  0
   60.5201   74.1003   87.7426 C   0  0  0  0  0  0  0  0  0  0  0  0
   71.3494   76.1495   91.0634 C   0  0  0  0  0  0  0  0  0  0  0  0
   71.1489   76.4483   89.6849 O   0  0  0  0  0  0  0  0  0  0  0  0
   70.6718   77.6741   89.1976 C   0  0  0  0  0  0  0  0  0  0  0  0
   71.4924   78.7975   89.3177 C   0  0  0  0  0  0  0  0  0  0  0  0
   71.0698   80.0376   88.8392 C   0  0  0  0  0  0  0  0  0  0  0  0
   69.8194   80.1783   88.2283 C   0  0  0  0  0  0  0  0  0  0  0  0
   69.4909   81.4283   87.6994 O   0  0  0  0  0  0  0  0  0  0  0  0
   68.9558   79.0596   88.1345 C   0  0  0  0  0  0  0  0  0  0  0  0
   69.4031   77.8101   88.6036 C   0  0  0  0  0  0  0  0  0  0  0  0
   70.0898   82.1441   87.7821 H   0  0  0  0  0  0  0  0  0  0  0  0
   67.5818   79.1648   87.5962 C   0  0  0  0  0  0  0  0  0  0  0  0
   67.0280   80.2931   87.4970 O   0  0  0  0  0  0  0  0  0  0  0  0
   66.9118   78.0338   87.1386 O   0  0  0  0  0  0  0  0  0  0  0  0
   67.3146   77.1907   87.2077 H   0  0  0  0  0  0  0  0  0  0  0  0
 18 19  1  0  0  0
 19 20  1  0  0  0
 19 21  1  0  0  0
 19 16  1  0  0  0
 16 13  1  0  0  0
 13 14  2  0  0  0
 13 15  2  0  0  0
 13  7  1  0  0  0
  7  8  2  0  0  0
  8  9  1  0  0  0
  9 10  2  0  0  0
 10 11  1  0  0  0
 11  1  1  0  0  0
  1  2  2  0  0  0
  2  3  1  0  0  0
  3  4  2  0  0  0
  4  5  1  0  0  0
  5 22  1  0  0  0
 22 23  1  0  0  0
 23 24  1  0  0  0
 24 25  2  0  0  0
 25 26  1  0  0  0
 26 27  2  0  0  0
 27 28  1  0  0  0
 27 29  1  0  0  0
 29 32  1  0  0  0
 32 33  2  0  0  0
 32 34  1  0  0  0
 29 30  2  0  0  0
  5  6  2  0  0  0
 11 12  2  0  0  0
 12  7  1  0  0  0
  6  1  1  0  0  0
 30 24  1  0  0  0
 16 17  1  0  0  0
 28 31  1  0  0  0
 34 35  1  0  0  0
M  END
> <Activity>
95.2

> <minimizedAffinity>
-9.68567

$$$$
HIPS6247


 35 37  0  0  0  0  0  0  0  0999 V2000
   67.6788   75.3802   91.7433 C   0  0  0  0  0  0  0  0  0  0  0  0
   67.8375   74.4909   92.8215 C   0  0  0  0  0  0  0  0  0  0  0  0
   69.1007   73.9910   93.1464 C   0  0  0  0  0  0  0  0  0  0  0  0
   70.2198   74.3739   92.4049 C   0  0  0  0  0  0  0  0  0  0  0  0
   70.0851   75.2722   91.3365 C   0  0  0  0  0  0  0  0  0  0  0  0
   68.8121   75.7603   91.0004 C   0  0  0  0  0  0  0  0  0  0  0  0
   63.9541   75.5373   91.0098 C   0  0  0  0  0  0  0  0  0  0  0  0
   63.7938   76.8959   90.7073 C   0  0  0  0  0  0  0  0  0  0  0  0
   64.8938   77.7549   90.7418 C   0  0  0  0  0  0  0  0  0  0  0  0
   66.1581   77.2649   91.0787 C   0  0  0  0  0  0  0  0  0  0  0  0
   66.3353   75.9046   91.3904 C   0  0  0  0  0  0  0  0  0  0  0  0
   65.2202   75.0474   91.3568 C   0  0  0  0  0  0  0  0  0  0  0  0
   62.5838   74.4337   90.9461 S   0  0  0  0  0  0  0  0  0  0  0  0
   63.0733   73.1437   90.3507 O   0  0  0  0  0  0  0  0  0  0  0  0
   62.0831   74.1354   92.3324 O   0  0  0  0  0  0  0  0  0  0  0  0
   61.2783   75.0344   89.9477 N   0  0  0  0  0  0  0  0  0  0  0  0
   60.4638   74.4454   90.1213 H   0  0  0  0  0  0  0  0  0  0  0  0
   62.9484   74.6862   88.0899 C   0  0  0  0  0  0  0  0  0  0  0  0
   61.5025   75.0648   88.4787 C   0  0  0  0  0  0  0  0  0  0  0  0
   61.2386   76.5089   87.9969 C   0  0  0  0  0  0  0  0  0  0  0  0
   60.5001   74.1441   87.7517 C   0  0  0  0  0  0  0  0  0  0  0  0
   71.2817   75.6479   90.5127 C   0  0  0  0  0  0  0  0  0  0  0  0
   70.8488   76.3599   89.3571 O   0  0  0  0  0  0  0  0  0  0  0  0
   71.0088   77.7405   89.1667 C   0  0  0  0  0  0  0  0  0  0  0  0
   69.8814   78.4979   88.8425 C   0  0  0  0  0  0  0  0  0  0  0  0
   69.9844   79.8760   88.6539 C   0  0  0  0  0  0  0  0  0  0  0  0
   71.2164   80.5246   88.7887 C   0  0  0  0  0  0  0  0  0  0  0  0
   71.2361   81.9155   88.6662 O   0  0  0  0  0  0  0  0  0  0  0  0
   72.3786   79.7678   89.0761 C   0  0  0  0  0  0  0  0  0  0  0  0
   72.2566   78.3808   89.2836 C   0  0  0  0  0  0  0  0  0  0  0  0
   70.4452   82.3802   88.4751 H   0  0  0  0  0  0  0  0  0  0  0  0
   73.7258   80.3770   89.1274 C   0  0  0  0  0  0  0  0  0  0  0  0
   73.8614   81.5788   89.4837 O   0  0  0  0  0  0  0  0  0  0  0  0
   74.8577   79.6180   88.8443 O   0  0  0  0  0  0  0  0  0  0  0  0
   74.7679   78.7239   88.5787 H   0  0  0  0  0  0  0  0  0  0  0  0
 18 19  1  0  0  0
 19 20  1  0  0  0
 19 21  1  0  0  0
 19 16  1  0  0  0
 16 13  1  0  0  0
 13 14  2  0  0  0
 13 15  2  0  0  0
 13  7  1  0  0  0
  7  8  2  0  0  0
  8  9  1  0  0  0
  9 10  2  0  0  0
 10 11  1  0  0  0
 11  1  1  0  0  0
  1  2  2  0  0  0
  2  3  1  0  0  0
  3  4  2  0  0  0
  4  5  1  0  0  0
  5 22  1  0  0  0
 22 23  1  0  0  0
 23 24  1  0  0  0
 24 25  2  0  0  0
 25 26  1  0  0  0
 26 27  2  0  0  0
 27 28  1  0  0  0
 27 29  1  0  0  0
 29 32  1  0  0  0
 32 33  2  0  0  0
 32 34  1  0  0  0
 29 30  2  0  0  0
  5  6  2  0  0  0
 11 12  2  0  0  0
 12  7  1  0  0  0
  6  1  1  0  0  0
 30 24  1  0  0  0
 16 17  1  0  0  0
 28 31  1  0  0  0
 34 35  1  0  0  0
M  END
> <Activity>
95.2

> <minimizedAffinity>
-9.57215

$$$$
HIPS6247


 35 37  0  0  0  0  0  0  0  0999 V2000
   67.3710   77.1434   88.4460 C   0  0  0  0  0  0  0  0  0  0  0  0
   66.7643   76.7094   87.2535 C   0  0  0  0  0  0  0  0  0  0  0  0
   66.8173   77.5009   86.1038 C   0  0  0  0  0  0  0  0  0  0  0  0
   67.4782   78.7302   86.1271 C   0  0  0  0  0  0  0  0  0  0  0  0
   68.1035   79.1734   87.3014 C   0  0  0  0  0  0  0  0  0  0  0  0
   68.0345   78.3846   88.4610 C   0  0  0  0  0  0  0  0  0  0  0  0
   66.2157   74.5733   90.9947 C   0  0  0  0  0  0  0  0  0  0  0  0
   67.1777   74.7363   92.0002 C   0  0  0  0  0  0  0  0  0  0  0  0
   68.1961   75.6790   91.8479 C   0  0  0  0  0  0  0  0  0  0  0  0
   68.2617   76.4627   90.6932 C   0  0  0  0  0  0  0  0  0  0  0  0
   67.3070   76.3079   89.6717 C   0  0  0  0  0  0  0  0  0  0  0  0
   66.2867   75.3526   89.8324 C   0  0  0  0  0  0  0  0  0  0  0  0
   64.9090   73.4081   91.1802 S   0  0  0  0  0  0  0  0  0  0  0  0
   65.4721   72.0490   90.8736 O   0  0  0  0  0  0  0  0  0  0  0  0
   64.4185   73.3889   92.6016 O   0  0  0  0  0  0  0  0  0  0  0  0
   63.5773   73.7063   90.0849 N   0  0  0  0  0  0  0  0  0  0  0  0
   63.9652   74.1162   89.2352 H   0  0  0  0  0  0  0  0  0  0  0  0
   61.7008   74.0081   91.7432 C   0  0  0  0  0  0  0  0  0  0  0  0
   62.4929   74.6053   90.5596 C   0  0  0  0  0  0  0  0  0  0  0  0
   61.5131   74.8149   89.3835 C   0  0  0  0  0  0  0  0  0  0  0  0
   63.0568   75.9893   90.9441 C   0  0  0  0  0  0  0  0  0  0  0  0
   68.7750   80.5149   87.3373 C   0  0  0  0  0  0  0  0  0  0  0  0
   69.5055   80.6396   88.5541 O   0  0  0  0  0  0  0  0  0  0  0  0
   70.8858   80.4229   88.6793 C   0  0  0  0  0  0  0  0  0  0  0  0
   71.3268   79.1359   88.9939 C   0  0  0  0  0  0  0  0  0  0  0  0
   72.6893   78.8650   89.1187 C   0  0  0  0  0  0  0  0  0  0  0  0
   73.6381   79.8751   88.9284 C   0  0  0  0  0  0  0  0  0  0  0  0
   74.9872   79.5199   88.9884 O   0  0  0  0  0  0  0  0  0  0  0  0
   73.2088   81.1957   88.6497 C   0  0  0  0  0  0  0  0  0  0  0  0
   71.8318   81.4506   88.5069 C   0  0  0  0  0  0  0  0  0  0  0  0
   75.2308   78.6347   89.1758 H   0  0  0  0  0  0  0  0  0  0  0  0
   74.1547   82.3281   88.5420 C   0  0  0  0  0  0  0  0  0  0  0  0
   75.3713   82.1119   88.2911 O   0  0  0  0  0  0  0  0  0  0  0  0
   73.7046   83.6404   88.6546 O   0  0  0  0  0  0  0  0  0  0  0  0
   72.8024   83.8118   88.8409 H   0  0  0  0  0  0  0  0  0  0  0  0
 18 19  1  0  0  0
 19 20  1  0  0  0
 19 21  1  0  0  0
 19 16  1  0  0  0
 16 13  1  0  0  0
 13 14  2  0  0  0
 13 15  2  0  0  0
 13  7  1  0  0  0
  7  8  2  0  0  0
  8  9  1  0  0  0
  9 10  2  0  0  0
 10 11  1  0  0  0
 11  1  1  0  0  0
  1  2  2  0  0  0
  2  3  1  0  0  0
  3  4  2  0  0  0
  4  5  1  0  0  0
  5 22  1  0  0  0
 22 23  1  0  0  0
 23 24  1  0  0  0
 24 25  2  0  0  0
 25 26  1  0  0  0
 26 27  2  0  0  0
 27 28  1  0  0  0
 27 29  1  0  0  0
 29 32  1  0  0  0
 32 33  2  0  0  0
 32 34  1  0  0  0
 29 30  2  0  0  0
  5  6  2  0  0  0
 11 12  2  0  0  0
 12  7  1  0  0  0
  6  1  1  0  0  0
 30 24  1  0  0  0
 16 17  1  0  0  0
 28 31  1  0  0  0
 34 35  1  0  0  0
M  END
> <Activity>
95.2

> <minimizedAffinity>
-9.36801

$$$$
HIPS6247


 35 37  0  0  0  0  0  0  0  0999 V2000
   68.2131   75.1893   91.5055 C   0  0  0  0  0  0  0  0  0  0  0  0
   68.8301   75.1796   92.7696 C   0  0  0  0  0  0  0  0  0  0  0  0
   70.1367   75.6487   92.9228 C   0  0  0  0  0  0  0  0  0  0  0  0
   70.8417   76.1366   91.8211 C   0  0  0  0  0  0  0  0  0  0  0  0
   70.2387   76.1700   90.5555 C   0  0  0  0  0  0  0  0  0  0  0  0
   68.9312   75.6820   90.3999 C   0  0  0  0  0  0  0  0  0  0  0  0
   64.4572   75.0947   90.9389 C   0  0  0  0  0  0  0  0  0  0  0  0
   64.2019   73.7207   91.0390 C   0  0  0  0  0  0  0  0  0  0  0  0
   65.2480   72.8312   91.2902 C   0  0  0  0  0  0  0  0  0  0  0  0
   66.5533   73.3058   91.4420 C   0  0  0  0  0  0  0  0  0  0  0  0
   66.8277   74.6816   91.3391 C   0  0  0  0  0  0  0  0  0  0  0  0
   65.7676   75.5700   91.0818 C   0  0  0  0  0  0  0  0  0  0  0  0
   63.1471   76.2344   90.6485 S   0  0  0  0  0  0  0  0  0  0  0  0
   62.7418   76.8016   91.9798 O   0  0  0  0  0  0  0  0  0  0  0  0
   63.6221   77.3755   89.7919 O   0  0  0  0  0  0  0  0  0  0  0  0
   61.7428   75.4801   89.9268 N   0  0  0  0  0  0  0  0  0  0  0  0
   61.6879   74.5272   90.2867 H   0  0  0  0  0  0  0  0  0  0  0  0
   61.2307   76.7192   87.7904 C   0  0  0  0  0  0  0  0  0  0  0  0
   61.6992   75.4004   88.4433 C   0  0  0  0  0  0  0  0  0  0  0  0
   60.6899   74.2931   88.0656 C   0  0  0  0  0  0  0  0  0  0  0  0
   63.0732   74.9871   87.8755 C   0  0  0  0  0  0  0  0  0  0  0  0
   71.0131   76.6530   89.3644 C   0  0  0  0  0  0  0  0  0  0  0  0
   70.4296   77.8616   88.8862 O   0  0  0  0  0  0  0  0  0  0  0  0
   71.0804   79.1040   88.8617 C   0  0  0  0  0  0  0  0  0  0  0  0
   70.2976   80.2591   88.8098 C   0  0  0  0  0  0  0  0  0  0  0  0
   70.8951   81.5194   88.7949 C   0  0  0  0  0  0  0  0  0  0  0  0
   72.2872   81.6496   88.8347 C   0  0  0  0  0  0  0  0  0  0  0  0
   72.8183   82.9396   88.8985 O   0  0  0  0  0  0  0  0  0  0  0  0
   73.0992   80.4892   88.8457 C   0  0  0  0  0  0  0  0  0  0  0  0
   72.4826   79.2242   88.8805 C   0  0  0  0  0  0  0  0  0  0  0  0
   72.2471   83.6823   88.8888 H   0  0  0  0  0  0  0  0  0  0  0  0
   74.5757   80.5571   88.7816 C   0  0  0  0  0  0  0  0  0  0  0  0
   75.2644   79.5223   88.9932 O   0  0  0  0  0  0  0  0  0  0  0  0
   75.2158   81.7417   88.4289 O   0  0  0  0  0  0  0  0  0  0  0  0
   74.7132   82.5162   88.2695 H   0  0  0  0  0  0  0  0  0  0  0  0
 18 19  1  0  0  0
 19 20  1  0  0  0
 19 21  1  0  0  0
 19 16  1  0  0  0
 16 13  1  0  0  0
 13 14  2  0  0  0
 13 15  2  0  0  0
 13  7  1  0  0  0
  7  8  2  0  0  0
  8  9  1  0  0  0
  9 10  2  0  0  0
 10 11  1  0  0  0
 11  1  1  0  0  0
  1  2  2  0  0  0
  2  3  1  0  0  0
  3  4  2  0  0  0
  4  5  1  0  0  0
  5 22  1  0  0  0
 22 23  1  0  0  0
 23 24  1  0  0  0
 24 25  2  0  0  0
 25 26  1  0  0  0
 26 27  2  0  0  0
 27 28  1  0  0  0
 27 29  1  0  0  0
 29 32  1  0  0  0
 32 33  2  0  0  0
 32 34  1  0  0  0
 29 30  2  0  0  0
  5  6  2  0  0  0
 11 12  2  0  0  0
 12  7  1  0  0  0
  6  1  1  0  0  0
 30 24  1  0  0  0
 16 17  1  0  0  0
 28 31  1  0  0  0
 34 35  1  0  0  0
M  END
> <Activity>
95.2

> <minimizedAffinity>
-9.07861

$$$$
HIPS6247


 35 37  0  0  0  0  0  0  0  0999 V2000
   67.6482   78.6833   87.4847 C   0  0  0  0  0  0  0  0  0  0  0  0
   67.0846   78.8093   86.2021 C   0  0  0  0  0  0  0  0  0  0  0  0
   67.4154   79.8945   85.3873 C   0  0  0  0  0  0  0  0  0  0  0  0
   68.3138   80.8632   85.8379 C   0  0  0  0  0  0  0  0  0  0  0  0
   68.8992   80.7473   87.1069 C   0  0  0  0  0  0  0  0  0  0  0  0
   68.5524   79.6650   87.9316 C   0  0  0  0  0  0  0  0  0  0  0  0
   65.7109   76.4227   89.8453 C   0  0  0  0  0  0  0  0  0  0  0  0
   66.6181   75.3690   90.0180 C   0  0  0  0  0  0  0  0  0  0  0  0
   67.8538   75.3962   89.3692 C   0  0  0  0  0  0  0  0  0  0  0  0
   68.1913   76.4724   88.5445 C   0  0  0  0  0  0  0  0  0  0  0  0
   67.2899   77.5358   88.3560 C   0  0  0  0  0  0  0  0  0  0  0  0
   66.0453   77.4976   89.0109 C   0  0  0  0  0  0  0  0  0  0  0  0
   64.1585   76.4187   90.6758 S   0  0  0  0  0  0  0  0  0  0  0  0
   64.0383   77.7245   91.4096 O   0  0  0  0  0  0  0  0  0  0  0  0
   63.0308   76.3472   89.6837 O   0  0  0  0  0  0  0  0  0  0  0  0
   64.0202   75.1225   91.8432 N   0  0  0  0  0  0  0  0  0  0  0  0
   64.9540   74.9403   92.2110 H   0  0  0  0  0  0  0  0  0  0  0  0
   62.8442   73.9347   89.9542 C   0  0  0  0  0  0  0  0  0  0  0  0
   63.4693   73.8284   91.3624 C   0  0  0  0  0  0  0  0  0  0  0  0
   62.3602   73.3990   92.3486 C   0  0  0  0  0  0  0  0  0  0  0  0
   64.5536   72.7306   91.3791 C   0  0  0  0  0  0  0  0  0  0  0  0
   69.8301   81.8125   87.6074 C   0  0  0  0  0  0  0  0  0  0  0  0
   70.5278   81.3245   88.7497 O   0  0  0  0  0  0  0  0  0  0  0  0
   71.8808   80.9541   88.7575 C   0  0  0  0  0  0  0  0  0  0  0  0
   72.1993   79.6202   89.0202 C   0  0  0  0  0  0  0  0  0  0  0  0
   73.5286   79.1980   89.0285 C   0  0  0  0  0  0  0  0  0  0  0  0
   74.5657   80.1006   88.7713 C   0  0  0  0  0  0  0  0  0  0  0  0
   75.8671   79.5974   88.7152 O   0  0  0  0  0  0  0  0  0  0  0  0
   74.2655   81.4660   88.5438 C   0  0  0  0  0  0  0  0  0  0  0  0
   72.9186   81.8743   88.5186 C   0  0  0  0  0  0  0  0  0  0  0  0
   76.0245   78.6871   88.8719 H   0  0  0  0  0  0  0  0  0  0  0  0
   75.3202   82.4889   88.3706 C   0  0  0  0  0  0  0  0  0  0  0  0
   75.1045   83.6820   88.7165 O   0  0  0  0  0  0  0  0  0  0  0  0
   76.5758   82.1365   87.8841 O   0  0  0  0  0  0  0  0  0  0  0  0
   76.7464   81.2525   87.6244 H   0  0  0  0  0  0  0  0  0  0  0  0
 18 19  1  0  0  0
 19 20  1  0  0  0
 19 21  1  0  0  0
 19 16  1  0  0  0
 16 13  1  0  0  0
 13 14  2  0  0  0
 13 15  2  0  0  0
 13  7  1  0  0  0
  7  8  2  0  0  0
  8  9  1  0  0  0
  9 10  2  0  0  0
 10 11  1  0  0  0
 11  1  1  0  0  0
  1  2  2  0  0  0
  2  3  1  0  0  0
  3  4  2  0  0  0
  4  5  1  0  0  0
  5 22  1  0  0  0
 22 23  1  0  0  0
 23 24  1  0  0  0
 24 25  2  0  0  0
 25 26  1  0  0  0
 26 27  2  0  0  0
 27 28  1  0  0  0
 27 29  1  0  0  0
 29 32  1  0  0  0
 32 33  2  0  0  0
 32 34  1  0  0  0
 29 30  2  0  0  0
  5  6  2  0  0  0
 11 12  2  0  0  0
 12  7  1  0  0  0
  6  1  1  0  0  0
 30 24  1  0  0  0
 16 17  1  0  0  0
 28 31  1  0  0  0
 34 35  1  0  0  0
M  END
> <Activity>
95.2

> <minimizedAffinity>
-9.00529

$$$$
HIPS6247


 35 37  0  0  0  0  0  0  0  0999 V2000
   68.1511   78.2628   87.9781 C   0  0  0  0  0  0  0  0  0  0  0  0
   67.2531   78.3544   86.8993 C   0  0  0  0  0  0  0  0  0  0  0  0
   67.2454   79.4850   86.0791 C   0  0  0  0  0  0  0  0  0  0  0  0
   68.1339   80.5342   86.3207 C   0  0  0  0  0  0  0  0  0  0  0  0
   69.0481   80.4551   87.3811 C   0  0  0  0  0  0  0  0  0  0  0  0
   69.0428   79.3256   88.2152 C   0  0  0  0  0  0  0  0  0  0  0  0
   66.9428   75.3692   90.1237 C   0  0  0  0  0  0  0  0  0  0  0  0
   68.1596   74.8085   90.5338 C   0  0  0  0  0  0  0  0  0  0  0  0
   69.3661   75.3711   90.1136 C   0  0  0  0  0  0  0  0  0  0  0  0
   69.3664   76.4940   89.2823 C   0  0  0  0  0  0  0  0  0  0  0  0
   68.1537   77.0661   88.8570 C   0  0  0  0  0  0  0  0  0  0  0  0
   66.9428   76.4898   89.2824 C   0  0  0  0  0  0  0  0  0  0  0  0
   65.4114   74.6896   90.6645 S   0  0  0  0  0  0  0  0  0  0  0  0
   65.6722   73.2693   91.0802 O   0  0  0  0  0  0  0  0  0  0  0  0
   64.9022   75.4315   91.8693 O   0  0  0  0  0  0  0  0  0  0  0  0
   64.1965   74.6749   89.4052 N   0  0  0  0  0  0  0  0  0  0  0  0
   64.6321   75.0323   88.5549 H   0  0  0  0  0  0  0  0  0  0  0  0
   62.0288   75.4954   88.4102 C   0  0  0  0  0  0  0  0  0  0  0  0
   62.9612   75.4671   89.6410 C   0  0  0  0  0  0  0  0  0  0  0  0
   63.3905   76.9186   89.9511 C   0  0  0  0  0  0  0  0  0  0  0  0
   62.1968   74.9377   90.8725 C   0  0  0  0  0  0  0  0  0  0  0  0
   69.9719   81.6027   87.6667 C   0  0  0  0  0  0  0  0  0  0  0  0
   70.7606   81.2939   88.8123 O   0  0  0  0  0  0  0  0  0  0  0  0
   72.1252   80.9709   88.7753 C   0  0  0  0  0  0  0  0  0  0  0  0
   72.4966   79.6441   89.0020 C   0  0  0  0  0  0  0  0  0  0  0  0
   73.8393   79.2684   88.9651 C   0  0  0  0  0  0  0  0  0  0  0  0
   74.8371   80.2116   88.6978 C   0  0  0  0  0  0  0  0  0  0  0  0
   76.1529   79.7553   88.5956 O   0  0  0  0  0  0  0  0  0  0  0  0
   74.4839   81.5697   88.5064 C   0  0  0  0  0  0  0  0  0  0  0  0
   73.1236   81.9312   88.5266 C   0  0  0  0  0  0  0  0  0  0  0  0
   76.3459   78.8482   88.7294 H   0  0  0  0  0  0  0  0  0  0  0  0
   75.4975   82.6320   88.3248 C   0  0  0  0  0  0  0  0  0  0  0  0
   76.5673   82.3837   87.7054 O   0  0  0  0  0  0  0  0  0  0  0  0
   75.2571   83.9256   88.7789 O   0  0  0  0  0  0  0  0  0  0  0  0
   74.4653   84.1206   89.2403 H   0  0  0  0  0  0  0  0  0  0  0  0
 18 19  1  0  0  0
 19 20  1  0  0  0
 19 21  1  0  0  0
 19 16  1  0  0  0
 16 13  1  0  0  0
 13 14  2  0  0  0
 13 15  2  0  0  0
 13  7  1  0  0  0
  7  8  2  0  0  0
  8  9  1  0  0  0
  9 10  2  0  0  0
 10 11  1  0  0  0
 11  1  1  0  0  0
  1  2  2  0  0  0
  2  3  1  0  0  0
  3  4  2  0  0  0
  4  5  1  0  0  0
  5 22  1  0  0  0
 22 23  1  0  0  0
 23 24  1  0  0  0
 24 25  2  0  0  0
 25 26  1  0  0  0
 26 27  2  0  0  0
 27 28  1  0  0  0
 27 29  1  0  0  0
 29 32  1  0  0  0
 32 33  2  0  0  0
 32 34  1  0  0  0
 29 30  2  0  0  0
  5  6  2  0  0  0
 11 12  2  0  0  0
 12  7  1  0  0  0
  6  1  1  0  0  0
 30 24  1  0  0  0
 16 17  1  0  0  0
 28 31  1  0  0  0
 34 35  1  0  0  0
M  END
> <Activity>
95.2

> <minimizedAffinity>
-8.97424

$$$$
HIPS6247


 35 37  0  0  0  0  0  0  0  0999 V2000
   67.1872   77.1609   88.4098 C   0  0  0  0  0  0  0  0  0  0  0  0
   67.0328   76.4846   87.1861 C   0  0  0  0  0  0  0  0  0  0  0  0
   67.2014   77.1626   85.9767 C   0  0  0  0  0  0  0  0  0  0  0  0
   67.5298   78.5194   85.9718 C   0  0  0  0  0  0  0  0  0  0  0  0
   67.7042   79.2079   87.1810 C   0  0  0  0  0  0  0  0  0  0  0  0
   67.5174   78.5290   88.3958 C   0  0  0  0  0  0  0  0  0  0  0  0
   65.8556   74.7467   91.0242 C   0  0  0  0  0  0  0  0  0  0  0  0
   66.6313   75.0967   92.1372 C   0  0  0  0  0  0  0  0  0  0  0  0
   67.5820   76.1139   92.0356 C   0  0  0  0  0  0  0  0  0  0  0  0
   67.7652   76.7865   90.8248 C   0  0  0  0  0  0  0  0  0  0  0  0
   66.9985   76.4439   89.6962 C   0  0  0  0  0  0  0  0  0  0  0  0
   66.0457   75.4148   89.8072 C   0  0  0  0  0  0  0  0  0  0  0  0
   64.6337   73.4846   91.1401 S   0  0  0  0  0  0  0  0  0  0  0  0
   65.3353   72.1647   90.9857 O   0  0  0  0  0  0  0  0  0  0  0  0
   63.9865   73.5013   92.4974 O   0  0  0  0  0  0  0  0  0  0  0  0
   63.4169   73.6051   89.8883 N   0  0  0  0  0  0  0  0  0  0  0  0
   63.8716   73.4011   88.9983 H   0  0  0  0  0  0  0  0  0  0  0  0
   63.4389   75.8678   88.7739 C   0  0  0  0  0  0  0  0  0  0  0  0
   62.7155   74.9075   89.7432 C   0  0  0  0  0  0  0  0  0  0  0  0
   62.6752   75.5729   91.1370 C   0  0  0  0  0  0  0  0  0  0  0  0
   61.2559   74.6967   89.2889 C   0  0  0  0  0  0  0  0  0  0  0  0
   68.0131   80.6763   87.1742 C   0  0  0  0  0  0  0  0  0  0  0  0
   68.9127   80.9697   88.2393 O   0  0  0  0  0  0  0  0  0  0  0  0
   70.0916   80.2570   88.5042 C   0  0  0  0  0  0  0  0  0  0  0  0
   71.3102   80.8419   88.1541 C   0  0  0  0  0  0  0  0  0  0  0  0
   72.5117   80.1799   88.4062 C   0  0  0  0  0  0  0  0  0  0  0  0
   72.5186   78.9212   89.0162 C   0  0  0  0  0  0  0  0  0  0  0  0
   73.7574   78.3491   89.3133 O   0  0  0  0  0  0  0  0  0  0  0  0
   71.2912   78.2935   89.3408 C   0  0  0  0  0  0  0  0  0  0  0  0
   70.0871   78.9814   89.0990 C   0  0  0  0  0  0  0  0  0  0  0  0
   74.5476   78.7964   89.0820 H   0  0  0  0  0  0  0  0  0  0  0  0
   71.2261   76.9211   89.8898 C   0  0  0  0  0  0  0  0  0  0  0  0
   71.3613   76.7304   91.1288 O   0  0  0  0  0  0  0  0  0  0  0  0
   70.9554   75.8379   89.0588 O   0  0  0  0  0  0  0  0  0  0  0  0
   70.8532   75.9689   88.1366 H   0  0  0  0  0  0  0  0  0  0  0  0
 18 19  1  0  0  0
 19 20  1  0  0  0
 19 21  1  0  0  0
 19 16  1  0  0  0
 16 13  1  0  0  0
 13 14  2  0  0  0
 13 15  2  0  0  0
 13  7  1  0  0  0
  7  8  2  0  0  0
  8  9  1  0  0  0
  9 10  2  0  0  0
 10 11  1  0  0  0
 11  1  1  0  0  0
  1  2  2  0  0  0
  2  3  1  0  0  0
  3  4  2  0  0  0
  4  5  1  0  0  0
  5 22  1  0  0  0
 22 23  1  0  0  0
 23 24  1  0  0  0
 24 25  2  0  0  0
 25 26  1  0  0  0
 26 27  2  0  0  0
 27 28  1  0  0  0
 27 29  1  0  0  0
 29 32  1  0  0  0
 32 33  2  0  0  0
 32 34  1  0  0  0
 29 30  2  0  0  0
  5  6  2  0  0  0
 11 12  2  0  0  0
 12  7  1  0  0  0
  6  1  1  0  0  0
 30 24  1  0  0  0
 16 17  1  0  0  0
 28 31  1  0  0  0
 34 35  1  0  0  0
M  END
> <Activity>
95.2

> <minimizedAffinity>
-8.85586

$$$$
HIPS6897


 30 33  0  0  0  0  0  0  0  0999 V2000
   69.9251   77.8080   88.8901 C   0  0  0  0  0  0  0  0  0  0  0  0
   68.8441   77.7567   89.5481 N   0  0  0  0  0  0  0  0  0  0  0  0
   72.8133   80.1857   88.8684 C   0  0  0  0  0  0  0  0  0  0  0  0
   72.0548   79.0161   88.8994 C   0  0  0  0  0  0  0  0  0  0  0  0
   70.6856   79.0358   88.8565 C   0  0  0  0  0  0  0  0  0  0  0  0
   70.0438   80.2490   88.7806 C   0  0  0  0  0  0  0  0  0  0  0  0
   70.7744   81.4451   88.7475 C   0  0  0  0  0  0  0  0  0  0  0  0
   72.1459   81.3850   88.7923 C   0  0  0  0  0  0  0  0  0  0  0  0
   72.9374   82.5418   88.7629 O   0  0  0  0  0  0  0  0  0  0  0  0
   72.5325   83.3853   88.7113 H   0  0  0  0  0  0  0  0  0  0  0  0
   74.8618   78.8429   89.1384 N   0  0  0  0  0  0  0  0  0  0  0  0
   74.2560   80.1001   88.9165 C   0  0  0  0  0  0  0  0  0  0  0  0
   74.9487   81.1253   88.7633 O   0  0  0  0  0  0  0  0  0  0  0  0
   75.8428   78.7686   89.1737 H   0  0  0  0  0  0  0  0  0  0  0  0
   74.3027   78.0413   89.2576 H   0  0  0  0  0  0  0  0  0  0  0  0
   68.0018   76.6770   89.6862 N   0  0  0  0  0  0  0  0  0  0  0  0
   67.5852   76.1393   90.9415 C   0  0  0  0  0  0  0  0  0  0  0  0
   68.0518   76.7339   91.9450 O   0  0  0  0  0  0  0  0  0  0  0  0
   67.6649   76.2479   88.8667 H   0  0  0  0  0  0  0  0  0  0  0  0
   66.6928   74.9952   91.0755 C   0  0  0  0  0  0  0  0  0  0  0  0
   65.3048   75.1496   90.5717 C   0  0  0  0  0  0  0  0  0  0  0  0
   64.5197   73.8452   90.8331 C   0  0  0  0  0  0  0  0  0  0  0  0
   63.0825   74.0077   90.4780 C   0  0  0  0  0  0  0  0  0  0  0  0
   62.9577   74.3400   89.0258 C   0  0  0  0  0  0  0  0  0  0  0  0
   63.7214   75.6138   88.7685 C   0  0  0  0  0  0  0  0  0  0  0  0
   63.0579   76.7088   89.5581 C   0  0  0  0  0  0  0  0  0  0  0  0
   63.1480   76.3759   91.0341 C   0  0  0  0  0  0  0  0  0  0  0  0
   62.5087   75.0752   91.3885 C   0  0  0  0  0  0  0  0  0  0  0  0
   64.6386   76.2827   91.3490 C   0  0  0  0  0  0  0  0  0  0  0  0
   65.1885   75.4425   89.1222 C   0  0  0  0  0  0  0  0  0  0  0  0
 11 12  1  0  0  0
 12 13  2  0  0  0
 12  3  1  0  0  0
  3  4  2  0  0  0
  4  5  1  0  0  0
  5  1  1  0  0  0
  1  2  2  0  0  0
  2 16  1  0  0  0
 16 17  1  0  0  0
 17 18  2  0  0  0
 17 20  1  0  0  0
 21 20  1  0  0  0
 21 22  1  0  0  0
 23 22  1  0  0  0
 23 24  1  0  0  0
 25 24  1  0  0  0
 25 26  1  0  0  0
 27 26  1  0  0  0
 27 28  1  0  0  0
 27 29  1  0  0  0
 25 30  1  0  0  0
  5  6  2  0  0  0
  6  7  1  0  0  0
  7  8  2  0  0  0
  8  9  1  0  0  0
  8  3  1  0  0  0
 29 21  1  0  0  0
 30 21  1  0  0  0
 28 23  1  0  0  0
 11 14  1  0  0  0
 11 15  1  0  0  0
 16 19  1  0  0  0
  9 10  1  0  0  0
M  END
> <Activity>
116.0

> <minimizedAffinity>
-8.20360

$$$$
HIPS6897


 30 33  0  0  0  0  0  0  0  0999 V2000
   69.0682   77.2284   89.1403 C   0  0  0  0  0  0  0  0  0  0  0  0
   69.1304   76.0640   89.6347 N   0  0  0  0  0  0  0  0  0  0  0  0
   71.3191   80.2087   88.9221 C   0  0  0  0  0  0  0  0  0  0  0  0
   70.1831   79.4039   88.9993 C   0  0  0  0  0  0  0  0  0  0  0  0
   70.2624   78.0376   89.0608 C   0  0  0  0  0  0  0  0  0  0  0  0
   71.5031   77.4459   89.0454 C   0  0  0  0  0  0  0  0  0  0  0  0
   72.6668   78.2239   88.9686 C   0  0  0  0  0  0  0  0  0  0  0  0
   72.5470   79.5909   88.9086 C   0  0  0  0  0  0  0  0  0  0  0  0
   73.6689   80.4280   88.8303 O   0  0  0  0  0  0  0  0  0  0  0  0
   74.5296   80.0580   88.8179 H   0  0  0  0  0  0  0  0  0  0  0  0
   72.2654   82.4647   89.2175 N   0  0  0  0  0  0  0  0  0  0  0  0
   71.1708   81.6457   88.8599 C   0  0  0  0  0  0  0  0  0  0  0  0
   70.0894   82.1474   88.4949 O   0  0  0  0  0  0  0  0  0  0  0  0
   72.1798   83.4447   89.1803 H   0  0  0  0  0  0  0  0  0  0  0  0
   73.1136   82.0552   89.5039 H   0  0  0  0  0  0  0  0  0  0  0  0
   68.0988   75.1656   89.7857 N   0  0  0  0  0  0  0  0  0  0  0  0
   67.2995   75.0517   90.9633 C   0  0  0  0  0  0  0  0  0  0  0  0
   67.6078   75.8500   91.8830 O   0  0  0  0  0  0  0  0  0  0  0  0
   67.8992   74.5626   89.0335 H   0  0  0  0  0  0  0  0  0  0  0  0
   66.2094   74.0962   91.1119 C   0  0  0  0  0  0  0  0  0  0  0  0
   64.8654   74.5153   90.6406 C   0  0  0  0  0  0  0  0  0  0  0  0
   64.2619   75.5185   91.6485 C   0  0  0  0  0  0  0  0  0  0  0  0
   62.9783   76.0776   91.1406 C   0  0  0  0  0  0  0  0  0  0  0  0
   61.9922   74.9720   90.9410 C   0  0  0  0  0  0  0  0  0  0  0  0
   62.5780   73.9926   89.9561 C   0  0  0  0  0  0  0  0  0  0  0  0
   62.7467   74.7119   88.6458 C   0  0  0  0  0  0  0  0  0  0  0  0
   63.7222   75.8566   88.8341 C   0  0  0  0  0  0  0  0  0  0  0  0
   63.2887   76.8409   89.8681 C   0  0  0  0  0  0  0  0  0  0  0  0
   65.0295   75.2172   89.2944 C   0  0  0  0  0  0  0  0  0  0  0  0
   63.8817   73.4167   90.4808 C   0  0  0  0  0  0  0  0  0  0  0  0
 11 12  1  0  0  0
 12 13  2  0  0  0
 12  3  1  0  0  0
  3  4  2  0  0  0
  4  5  1  0  0  0
  5  1  1  0  0  0
  1  2  2  0  0  0
  2 16  1  0  0  0
 16 17  1  0  0  0
 17 18  2  0  0  0
 17 20  1  0  0  0
 21 20  1  0  0  0
 21 22  1  0  0  0
 23 22  1  0  0  0
 23 24  1  0  0  0
 25 24  1  0  0  0
 25 26  1  0  0  0
 27 26  1  0  0  0
 27 28  1  0  0  0
 27 29  1  0  0  0
 25 30  1  0  0  0
  5  6  2  0  0  0
  6  7  1  0  0  0
  7  8  2  0  0  0
  8  9  1  0  0  0
  8  3  1  0  0  0
 29 21  1  0  0  0
 30 21  1  0  0  0
 28 23  1  0  0  0
 11 14  1  0  0  0
 11 15  1  0  0  0
 16 19  1  0  0  0
  9 10  1  0  0  0
M  END
> <Activity>
116.0

> <minimizedAffinity>
-8.17342

$$$$
HIPS6897


 30 33  0  0  0  0  0  0  0  0999 V2000
   69.9224   77.8534   88.7745 C   0  0  0  0  0  0  0  0  0  0  0  0
   68.7604   77.8345   89.2779 N   0  0  0  0  0  0  0  0  0  0  0  0
   72.8270   80.2094   88.8695 C   0  0  0  0  0  0  0  0  0  0  0  0
   72.0602   79.0449   88.8496 C   0  0  0  0  0  0  0  0  0  0  0  0
   70.6917   79.0760   88.7940 C   0  0  0  0  0  0  0  0  0  0  0  0
   70.0590   80.2959   88.7569 C   0  0  0  0  0  0  0  0  0  0  0  0
   70.7981   81.4870   88.7754 C   0  0  0  0  0  0  0  0  0  0  0  0
   72.1686   81.4154   88.8314 C   0  0  0  0  0  0  0  0  0  0  0  0
   72.9683   82.5668   88.8528 O   0  0  0  0  0  0  0  0  0  0  0  0
   72.5697   83.4145   88.8287 H   0  0  0  0  0  0  0  0  0  0  0  0
   74.8624   78.8469   89.1392 N   0  0  0  0  0  0  0  0  0  0  0  0
   74.2685   80.1116   88.9286 C   0  0  0  0  0  0  0  0  0  0  0  0
   74.9705   81.1332   88.7945 O   0  0  0  0  0  0  0  0  0  0  0  0
   75.8425   78.7642   89.1818 H   0  0  0  0  0  0  0  0  0  0  0  0
   74.2961   78.0483   89.2433 H   0  0  0  0  0  0  0  0  0  0  0  0
   67.8971   76.7646   89.3441 N   0  0  0  0  0  0  0  0  0  0  0  0
   67.6396   76.0131   90.5305 C   0  0  0  0  0  0  0  0  0  0  0  0
   68.2720   76.4034   91.5434 O   0  0  0  0  0  0  0  0  0  0  0  0
   67.4270   76.5005   88.5204 H   0  0  0  0  0  0  0  0  0  0  0  0
   66.7232   74.8817   90.5885 C   0  0  0  0  0  0  0  0  0  0  0  0
   65.2738   75.1693   90.4444 C   0  0  0  0  0  0  0  0  0  0  0  0
   64.9590   75.4703   88.9622 C   0  0  0  0  0  0  0  0  0  0  0  0
   63.4926   75.6185   88.7482 C   0  0  0  0  0  0  0  0  0  0  0  0
   62.9765   76.7548   89.5711 C   0  0  0  0  0  0  0  0  0  0  0  0
   63.2808   76.4625   91.0182 C   0  0  0  0  0  0  0  0  0  0  0  0
   62.5191   75.2231   91.4012 C   0  0  0  0  0  0  0  0  0  0  0  0
   63.0079   74.0636   90.5562 C   0  0  0  0  0  0  0  0  0  0  0  0
   62.8482   74.2897   89.0902 C   0  0  0  0  0  0  0  0  0  0  0  0
   64.4964   73.9236   90.8637 C   0  0  0  0  0  0  0  0  0  0  0  0
   64.7773   76.3214   91.2356 C   0  0  0  0  0  0  0  0  0  0  0  0
 11 12  1  0  0  0
 12 13  2  0  0  0
 12  3  1  0  0  0
  3  4  2  0  0  0
  4  5  1  0  0  0
  5  1  1  0  0  0
  1  2  2  0  0  0
  2 16  1  0  0  0
 16 17  1  0  0  0
 17 18  2  0  0  0
 17 20  1  0  0  0
 21 20  1  0  0  0
 21 22  1  0  0  0
 23 22  1  0  0  0
 23 24  1  0  0  0
 25 24  1  0  0  0
 25 26  1  0  0  0
 27 26  1  0  0  0
 27 28  1  0  0  0
 27 29  1  0  0  0
 25 30  1  0  0  0
  5  6  2  0  0  0
  6  7  1  0  0  0
  7  8  2  0  0  0
  8  9  1  0  0  0
  8  3  1  0  0  0
 29 21  1  0  0  0
 30 21  1  0  0  0
 28 23  1  0  0  0
 11 14  1  0  0  0
 11 15  1  0  0  0
 16 19  1  0  0  0
  9 10  1  0  0  0
M  END
> <Activity>
116.0

> <minimizedAffinity>
-8.11242

$$$$
HIPS6897


 30 33  0  0  0  0  0  0  0  0999 V2000
   69.1568   77.4754   89.6056 C   0  0  0  0  0  0  0  0  0  0  0  0
   68.9943   76.8957   90.7199 N   0  0  0  0  0  0  0  0  0  0  0  0
   71.5192   80.3037   88.9606 C   0  0  0  0  0  0  0  0  0  0  0  0
   70.3586   79.5712   89.2069 C   0  0  0  0  0  0  0  0  0  0  0  0
   70.3751   78.2088   89.3508 C   0  0  0  0  0  0  0  0  0  0  0  0
   71.5759   77.5476   89.2482 C   0  0  0  0  0  0  0  0  0  0  0  0
   72.7626   78.2519   89.0012 C   0  0  0  0  0  0  0  0  0  0  0  0
   72.7061   79.6173   88.8629 C   0  0  0  0  0  0  0  0  0  0  0  0
   73.8541   80.3829   88.6148 O   0  0  0  0  0  0  0  0  0  0  0  0
   74.6890   79.9643   88.5391 H   0  0  0  0  0  0  0  0  0  0  0  0
   72.4216   82.5477   89.4320 N   0  0  0  0  0  0  0  0  0  0  0  0
   71.4375   81.7404   88.8184 C   0  0  0  0  0  0  0  0  0  0  0  0
   70.5092   82.2520   88.1620 O   0  0  0  0  0  0  0  0  0  0  0  0
   72.3796   83.5274   89.3441 H   0  0  0  0  0  0  0  0  0  0  0  0
   73.1493   82.1305   89.9474 H   0  0  0  0  0  0  0  0  0  0  0  0
   67.9044   76.1599   91.1264 N   0  0  0  0  0  0  0  0  0  0  0  0
   67.4863   74.9396   90.5144 C   0  0  0  0  0  0  0  0  0  0  0  0
   68.1998   74.5679   89.5496 O   0  0  0  0  0  0  0  0  0  0  0  0
   67.3794   76.4967   91.8881 H   0  0  0  0  0  0  0  0  0  0  0  0
   66.3301   74.1689   90.9536 C   0  0  0  0  0  0  0  0  0  0  0  0
   64.9862   74.7108   90.6309 C   0  0  0  0  0  0  0  0  0  0  0  0
   64.9979   75.2811   89.1953 C   0  0  0  0  0  0  0  0  0  0  0  0
   63.6313   75.7006   88.7771 C   0  0  0  0  0  0  0  0  0  0  0  0
   63.1300   76.7684   89.6954 C   0  0  0  0  0  0  0  0  0  0  0  0
   63.1157   76.2136   91.0969 C   0  0  0  0  0  0  0  0  0  0  0  0
   62.1345   75.0738   91.1243 C   0  0  0  0  0  0  0  0  0  0  0  0
   62.6103   73.9912   90.1761 C   0  0  0  0  0  0  0  0  0  0  0  0
   62.7597   74.4604   88.7678 C   0  0  0  0  0  0  0  0  0  0  0  0
   63.9819   73.5618   90.6900 C   0  0  0  0  0  0  0  0  0  0  0  0
   64.5119   75.7957   91.5244 C   0  0  0  0  0  0  0  0  0  0  0  0
 11 12  1  0  0  0
 12 13  2  0  0  0
 12  3  1  0  0  0
  3  4  2  0  0  0
  4  5  1  0  0  0
  5  1  1  0  0  0
  1  2  2  0  0  0
  2 16  1  0  0  0
 16 17  1  0  0  0
 17 18  2  0  0  0
 17 20  1  0  0  0
 21 20  1  0  0  0
 21 22  1  0  0  0
 23 22  1  0  0  0
 23 24  1  0  0  0
 25 24  1  0  0  0
 25 26  1  0  0  0
 27 26  1  0  0  0
 27 28  1  0  0  0
 27 29  1  0  0  0
 25 30  1  0  0  0
  5  6  2  0  0  0
  6  7  1  0  0  0
  7  8  2  0  0  0
  8  9  1  0  0  0
  8  3  1  0  0  0
 29 21  1  0  0  0
 30 21  1  0  0  0
 28 23  1  0  0  0
 11 14  1  0  0  0
 11 15  1  0  0  0
 16 19  1  0  0  0
  9 10  1  0  0  0
M  END
> <Activity>
116.0

> <minimizedAffinity>
-7.91689

$$$$
HIPS6897


 30 33  0  0  0  0  0  0  0  0999 V2000
   69.2233   79.3556   88.3661 C   0  0  0  0  0  0  0  0  0  0  0  0
   68.6214   78.2502   88.5069 N   0  0  0  0  0  0  0  0  0  0  0  0
   72.6511   80.7476   88.9213 C   0  0  0  0  0  0  0  0  0  0  0  0
   71.2803   80.6442   88.6883 C   0  0  0  0  0  0  0  0  0  0  0  0
   70.6453   79.4328   88.6084 C   0  0  0  0  0  0  0  0  0  0  0  0
   71.3872   78.2859   88.7633 C   0  0  0  0  0  0  0  0  0  0  0  0
   72.7676   78.3521   88.9988 C   0  0  0  0  0  0  0  0  0  0  0  0
   73.3687   79.5850   89.0725 C   0  0  0  0  0  0  0  0  0  0  0  0
   74.7443   79.7234   89.3054 O   0  0  0  0  0  0  0  0  0  0  0  0
   75.2797   78.9624   89.4156 H   0  0  0  0  0  0  0  0  0  0  0  0
   74.4299   82.3102   88.2386 N   0  0  0  0  0  0  0  0  0  0  0  0
   73.2641   82.0552   88.9953 C   0  0  0  0  0  0  0  0  0  0  0  0
   72.7651   82.9396   89.7185 O   0  0  0  0  0  0  0  0  0  0  0  0
   74.8588   83.1955   88.2785 H   0  0  0  0  0  0  0  0  0  0  0  0
   74.8133   81.6027   87.6716 H   0  0  0  0  0  0  0  0  0  0  0  0
   67.2811   78.0001   88.3187 N   0  0  0  0  0  0  0  0  0  0  0  0
   66.7365   76.7099   88.0406 C   0  0  0  0  0  0  0  0  0  0  0  0
   67.5865   75.7871   87.9765 O   0  0  0  0  0  0  0  0  0  0  0  0
   66.6578   78.7598   88.3798 H   0  0  0  0  0  0  0  0  0  0  0  0
   65.3151   76.4571   87.8431 C   0  0  0  0  0  0  0  0  0  0  0  0
   64.5453   75.9440   89.0043 C   0  0  0  0  0  0  0  0  0  0  0  0
   63.3896   75.0538   88.4962 C   0  0  0  0  0  0  0  0  0  0  0  0
   62.6822   74.3991   89.6317 C   0  0  0  0  0  0  0  0  0  0  0  0
   62.1019   75.4424   90.5314 C   0  0  0  0  0  0  0  0  0  0  0  0
   63.2281   76.3113   91.0301 C   0  0  0  0  0  0  0  0  0  0  0  0
   64.1434   75.4429   91.8493 C   0  0  0  0  0  0  0  0  0  0  0  0
   64.7204   74.3591   90.9605 C   0  0  0  0  0  0  0  0  0  0  0  0
   63.6812   73.4959   90.3275 C   0  0  0  0  0  0  0  0  0  0  0  0
   65.4805   75.0883   89.8559 C   0  0  0  0  0  0  0  0  0  0  0  0
   63.9416   76.9853   89.8711 C   0  0  0  0  0  0  0  0  0  0  0  0
 11 12  1  0  0  0
 12 13  2  0  0  0
 12  3  1  0  0  0
  3  4  2  0  0  0
  4  5  1  0  0  0
  5  1  1  0  0  0
  1  2  2  0  0  0
  2 16  1  0  0  0
 16 17  1  0  0  0
 17 18  2  0  0  0
 17 20  1  0  0  0
 21 20  1  0  0  0
 21 22  1  0  0  0
 23 22  1  0  0  0
 23 24  1  0  0  0
 25 24  1  0  0  0
 25 26  1  0  0  0
 27 26  1  0  0  0
 27 28  1  0  0  0
 27 29  1  0  0  0
 25 30  1  0  0  0
  5  6  2  0  0  0
  6  7  1  0  0  0
  7  8  2  0  0  0
  8  9  1  0  0  0
  8  3  1  0  0  0
 29 21  1  0  0  0
 30 21  1  0  0  0
 28 23  1  0  0  0
 11 14  1  0  0  0
 11 15  1  0  0  0
 16 19  1  0  0  0
  9 10  1  0  0  0
M  END
> <Activity>
116.0

> <minimizedAffinity>
-6.97417

$$$$
HIPS6897


 30 33  0  0  0  0  0  0  0  0999 V2000
   68.9372   79.1274   88.7705 C   0  0  0  0  0  0  0  0  0  0  0  0
   68.2868   78.0946   89.1090 N   0  0  0  0  0  0  0  0  0  0  0  0
   72.4783   80.3263   88.9089 C   0  0  0  0  0  0  0  0  0  0  0  0
   71.0866   80.2989   88.8274 C   0  0  0  0  0  0  0  0  0  0  0  0
   70.3792   79.1259   88.8567 C   0  0  0  0  0  0  0  0  0  0  0  0
   71.0675   77.9413   88.9699 C   0  0  0  0  0  0  0  0  0  0  0  0
   72.4669   77.9312   89.0541 C   0  0  0  0  0  0  0  0  0  0  0  0
   73.1412   79.1274   89.0216 C   0  0  0  0  0  0  0  0  0  0  0  0
   74.5395   79.1896   89.1013 O   0  0  0  0  0  0  0  0  0  0  0  0
   75.0398   78.4012   89.1792 H   0  0  0  0  0  0  0  0  0  0  0  0
   72.6326   82.6893   89.5905 N   0  0  0  0  0  0  0  0  0  0  0  0
   73.1686   81.5964   88.8728 C   0  0  0  0  0  0  0  0  0  0  0  0
   74.2212   81.7175   88.2158 O   0  0  0  0  0  0  0  0  0  0  0  0
   73.0911   83.5604   89.5757 H   0  0  0  0  0  0  0  0  0  0  0  0
   71.8007   82.5796   90.1053 H   0  0  0  0  0  0  0  0  0  0  0  0
   66.9211   77.9252   89.0898 N   0  0  0  0  0  0  0  0  0  0  0  0
   66.1048   77.8516   90.2589 C   0  0  0  0  0  0  0  0  0  0  0  0
   66.7331   77.9548   91.3419 O   0  0  0  0  0  0  0  0  0  0  0  0
   66.4785   77.8499   88.2136 H   0  0  0  0  0  0  0  0  0  0  0  0
   64.6591   77.6719   90.2263 C   0  0  0  0  0  0  0  0  0  0  0  0
   64.1365   76.3011   90.4533 C   0  0  0  0  0  0  0  0  0  0  0  0
   62.9040   76.3729   91.3820 C   0  0  0  0  0  0  0  0  0  0  0  0
   62.2595   75.0369   91.5168 C   0  0  0  0  0  0  0  0  0  0  0  0
   63.2305   74.0677   92.1103 C   0  0  0  0  0  0  0  0  0  0  0  0
   64.4334   73.9943   91.2048 C   0  0  0  0  0  0  0  0  0  0  0  0
   63.9734   73.4456   89.8819 C   0  0  0  0  0  0  0  0  0  0  0  0
   62.9646   74.4010   89.2761 C   0  0  0  0  0  0  0  0  0  0  0  0
   61.7705   74.6290   90.1411 C   0  0  0  0  0  0  0  0  0  0  0  0
   63.6987   75.7285   89.1070 C   0  0  0  0  0  0  0  0  0  0  0  0
   65.0944   75.3557   91.0768 C   0  0  0  0  0  0  0  0  0  0  0  0
 11 12  1  0  0  0
 12 13  2  0  0  0
 12  3  1  0  0  0
  3  4  2  0  0  0
  4  5  1  0  0  0
  5  1  1  0  0  0
  1  2  2  0  0  0
  2 16  1  0  0  0
 16 17  1  0  0  0
 17 18  2  0  0  0
 17 20  1  0  0  0
 21 20  1  0  0  0
 21 22  1  0  0  0
 23 22  1  0  0  0
 23 24  1  0  0  0
 25 24  1  0  0  0
 25 26  1  0  0  0
 27 26  1  0  0  0
 27 28  1  0  0  0
 27 29  1  0  0  0
 25 30  1  0  0  0
  5  6  2  0  0  0
  6  7  1  0  0  0
  7  8  2  0  0  0
  8  9  1  0  0  0
  8  3  1  0  0  0
 29 21  1  0  0  0
 30 21  1  0  0  0
 28 23  1  0  0  0
 11 14  1  0  0  0
 11 15  1  0  0  0
 16 19  1  0  0  0
  9 10  1  0  0  0
M  END
> <Activity>
116.0

> <minimizedAffinity>
-6.93645

$$$$
HIPS6897


 30 33  0  0  0  0  0  0  0  0999 V2000
   68.6447   78.9601   88.7422 C   0  0  0  0  0  0  0  0  0  0  0  0
   67.9561   78.5478   89.7220 N   0  0  0  0  0  0  0  0  0  0  0  0
   72.1524   80.2494   88.9145 C   0  0  0  0  0  0  0  0  0  0  0  0
   70.7628   80.1862   88.8184 C   0  0  0  0  0  0  0  0  0  0  0  0
   70.0853   78.9956   88.8437 C   0  0  0  0  0  0  0  0  0  0  0  0
   70.8023   77.8294   88.9679 C   0  0  0  0  0  0  0  0  0  0  0  0
   72.2005   77.8552   89.0670 C   0  0  0  0  0  0  0  0  0  0  0  0
   72.8444   79.0681   89.0379 C   0  0  0  0  0  0  0  0  0  0  0  0
   74.2398   79.1662   89.1323 O   0  0  0  0  0  0  0  0  0  0  0  0
   74.7592   78.3910   89.2180 H   0  0  0  0  0  0  0  0  0  0  0  0
   72.2601   82.6075   89.6214 N   0  0  0  0  0  0  0  0  0  0  0  0
   72.8105   81.5365   88.8819 C   0  0  0  0  0  0  0  0  0  0  0  0
   73.8484   81.6913   88.2088 O   0  0  0  0  0  0  0  0  0  0  0  0
   72.6966   83.4898   89.6092 H   0  0  0  0  0  0  0  0  0  0  0  0
   71.4400   82.4713   90.1489 H   0  0  0  0  0  0  0  0  0  0  0  0
   66.5853   78.4487   89.7955 N   0  0  0  0  0  0  0  0  0  0  0  0
   65.8646   78.1568   90.9929 C   0  0  0  0  0  0  0  0  0  0  0  0
   66.5850   77.9908   92.0087 O   0  0  0  0  0  0  0  0  0  0  0  0
   66.0685   78.5880   88.9692 H   0  0  0  0  0  0  0  0  0  0  0  0
   64.4125   78.0542   91.0586 C   0  0  0  0  0  0  0  0  0  0  0  0
   63.7981   76.7761   90.6195 C   0  0  0  0  0  0  0  0  0  0  0  0
   62.9617   77.0242   89.3447 C   0  0  0  0  0  0  0  0  0  0  0  0
   62.4485   75.7425   88.7859 C   0  0  0  0  0  0  0  0  0  0  0  0
   61.5704   75.0709   89.7922 C   0  0  0  0  0  0  0  0  0  0  0  0
   62.3850   74.8259   91.0367 C   0  0  0  0  0  0  0  0  0  0  0  0
   63.4936   73.8758   90.6744 C   0  0  0  0  0  0  0  0  0  0  0  0
   64.3800   74.5276   89.6319 C   0  0  0  0  0  0  0  0  0  0  0  0
   63.6501   74.9086   88.3876 C   0  0  0  0  0  0  0  0  0  0  0  0
   64.9213   75.7981   90.2820 C   0  0  0  0  0  0  0  0  0  0  0  0
   62.8989   76.1351   91.6099 C   0  0  0  0  0  0  0  0  0  0  0  0
 11 12  1  0  0  0
 12 13  2  0  0  0
 12  3  1  0  0  0
  3  4  2  0  0  0
  4  5  1  0  0  0
  5  1  1  0  0  0
  1  2  2  0  0  0
  2 16  1  0  0  0
 16 17  1  0  0  0
 17 18  2  0  0  0
 17 20  1  0  0  0
 21 20  1  0  0  0
 21 22  1  0  0  0
 23 22  1  0  0  0
 23 24  1  0  0  0
 25 24  1  0  0  0
 25 26  1  0  0  0
 27 26  1  0  0  0
 27 28  1  0  0  0
 27 29  1  0  0  0
 25 30  1  0  0  0
  5  6  2  0  0  0
  6  7  1  0  0  0
  7  8  2  0  0  0
  8  9  1  0  0  0
  8  3  1  0  0  0
 29 21  1  0  0  0
 30 21  1  0  0  0
 28 23  1  0  0  0
 11 14  1  0  0  0
 11 15  1  0  0  0
 16 19  1  0  0  0
  9 10  1  0  0  0
M  END
> <Activity>
116.0

> <minimizedAffinity>
-6.92019

$$$$
HIPS6897


 30 33  0  0  0  0  0  0  0  0999 V2000
   68.6009   78.8207   88.7243 C   0  0  0  0  0  0  0  0  0  0  0  0
   67.8961   78.6387   89.7607 N   0  0  0  0  0  0  0  0  0  0  0  0
   72.0842   80.1740   88.9007 C   0  0  0  0  0  0  0  0  0  0  0  0
   70.6969   80.0847   88.7930 C   0  0  0  0  0  0  0  0  0  0  0  0
   70.0397   78.8834   88.8385 C   0  0  0  0  0  0  0  0  0  0  0  0
   70.7753   77.7328   88.9953 C   0  0  0  0  0  0  0  0  0  0  0  0
   72.1718   77.7850   89.1069 C   0  0  0  0  0  0  0  0  0  0  0  0
   72.7951   79.0079   89.0569 C   0  0  0  0  0  0  0  0  0  0  0  0
   74.1876   79.1322   89.1621 O   0  0  0  0  0  0  0  0  0  0  0  0
   74.7193   78.3682   89.2699 H   0  0  0  0  0  0  0  0  0  0  0  0
   72.1932   82.5277   89.6221 N   0  0  0  0  0  0  0  0  0  0  0  0
   72.7205   81.4714   88.8456 C   0  0  0  0  0  0  0  0  0  0  0  0
   73.7197   81.6475   88.1211 O   0  0  0  0  0  0  0  0  0  0  0  0
   72.6154   83.4167   89.5952 H   0  0  0  0  0  0  0  0  0  0  0  0
   71.4037   82.3747   90.1900 H   0  0  0  0  0  0  0  0  0  0  0  0
   66.5242   78.5539   89.8324 N   0  0  0  0  0  0  0  0  0  0  0  0
   65.8112   77.9913   90.9341 C   0  0  0  0  0  0  0  0  0  0  0  0
   66.5397   77.5646   91.8644 O   0  0  0  0  0  0  0  0  0  0  0  0
   66.0009   78.9036   89.0754 H   0  0  0  0  0  0  0  0  0  0  0  0
   64.3579   77.9068   90.9989 C   0  0  0  0  0  0  0  0  0  0  0  0
   63.7180   76.6991   90.4194 C   0  0  0  0  0  0  0  0  0  0  0  0
   64.8139   75.7044   89.9767 C   0  0  0  0  0  0  0  0  0  0  0  0
   64.2151   74.4173   89.5260 C   0  0  0  0  0  0  0  0  0  0  0  0
   63.3142   74.6631   88.3588 C   0  0  0  0  0  0  0  0  0  0  0  0
   62.2425   75.6320   88.7889 C   0  0  0  0  0  0  0  0  0  0  0  0
   61.4363   74.9669   89.8709 C   0  0  0  0  0  0  0  0  0  0  0  0
   62.3399   74.6823   91.0541 C   0  0  0  0  0  0  0  0  0  0  0  0
   63.5011   73.8085   90.7165 C   0  0  0  0  0  0  0  0  0  0  0  0
   62.8724   76.0393   91.5065 C   0  0  0  0  0  0  0  0  0  0  0  0
   62.8551   76.9470   89.2387 C   0  0  0  0  0  0  0  0  0  0  0  0
 11 12  1  0  0  0
 12 13  2  0  0  0
 12  3  1  0  0  0
  3  4  2  0  0  0
  4  5  1  0  0  0
  5  1  1  0  0  0
  1  2  2  0  0  0
  2 16  1  0  0  0
 16 17  1  0  0  0
 17 18  2  0  0  0
 17 20  1  0  0  0
 21 20  1  0  0  0
 21 22  1  0  0  0
 23 22  1  0  0  0
 23 24  1  0  0  0
 25 24  1  0  0  0
 25 26  1  0  0  0
 27 26  1  0  0  0
 27 28  1  0  0  0
 27 29  1  0  0  0
 25 30  1  0  0  0
  5  6  2  0  0  0
  6  7  1  0  0  0
  7  8  2  0  0  0
  8  9  1  0  0  0
  8  3  1  0  0  0
 29 21  1  0  0  0
 30 21  1  0  0  0
 28 23  1  0  0  0
 11 14  1  0  0  0
 11 15  1  0  0  0
 16 19  1  0  0  0
  9 10  1  0  0  0
M  END
> <Activity>
116.0

> <minimizedAffinity>
-6.87337

$$$$
HIPS6897


 30 33  0  0  0  0  0  0  0  0999 V2000
   71.1962   77.7577   89.0384 C   0  0  0  0  0  0  0  0  0  0  0  0
   70.1233   77.9423   88.3911 N   0  0  0  0  0  0  0  0  0  0  0  0
   72.9859   81.0428   89.0109 C   0  0  0  0  0  0  0  0  0  0  0  0
   71.9836   80.0759   89.0785 C   0  0  0  0  0  0  0  0  0  0  0  0
   72.2549   78.7378   88.9645 C   0  0  0  0  0  0  0  0  0  0  0  0
   73.5577   78.3409   88.7777 C   0  0  0  0  0  0  0  0  0  0  0  0
   74.5909   79.2856   88.7049 C   0  0  0  0  0  0  0  0  0  0  0  0
   74.2797   80.6181   88.8236 C   0  0  0  0  0  0  0  0  0  0  0  0
   75.2635   81.6150   88.7602 O   0  0  0  0  0  0  0  0  0  0  0  0
   76.1616   81.3796   88.6337 H   0  0  0  0  0  0  0  0  0  0  0  0
   73.3838   83.4023   88.4220 N   0  0  0  0  0  0  0  0  0  0  0  0
   72.6367   82.4403   89.1383 C   0  0  0  0  0  0  0  0  0  0  0  0
   71.6886   82.7835   89.8715 O   0  0  0  0  0  0  0  0  0  0  0  0
   73.1581   84.3575   88.4985 H   0  0  0  0  0  0  0  0  0  0  0  0
   74.1299   83.1173   87.8465 H   0  0  0  0  0  0  0  0  0  0  0  0
   69.0222   77.1176   88.3485 N   0  0  0  0  0  0  0  0  0  0  0  0
   67.8051   77.4378   87.6743 C   0  0  0  0  0  0  0  0  0  0  0  0
   67.8030   78.5570   87.1038 O   0  0  0  0  0  0  0  0  0  0  0  0
   69.0774   76.2512   88.8127 H   0  0  0  0  0  0  0  0  0  0  0  0
   66.6453   76.5564   87.6361 C   0  0  0  0  0  0  0  0  0  0  0  0
   65.9077   76.3435   88.9068 C   0  0  0  0  0  0  0  0  0  0  0  0
   66.6979   75.3574   89.7955 C   0  0  0  0  0  0  0  0  0  0  0  0
   66.0693   75.2300   91.1397 C   0  0  0  0  0  0  0  0  0  0  0  0
   64.6756   74.7088   90.9958 C   0  0  0  0  0  0  0  0  0  0  0  0
   63.9018   75.6704   90.1305 C   0  0  0  0  0  0  0  0  0  0  0  0
   63.8372   76.9854   90.8582 C   0  0  0  0  0  0  0  0  0  0  0  0
   65.2448   77.5174   91.0403 C   0  0  0  0  0  0  0  0  0  0  0  0
   66.1343   76.5924   91.8012 C   0  0  0  0  0  0  0  0  0  0  0  0
   65.8118   77.6834   89.6329 C   0  0  0  0  0  0  0  0  0  0  0  0
   64.5393   75.7911   88.7573 C   0  0  0  0  0  0  0  0  0  0  0  0
 11 12  1  0  0  0
 12 13  2  0  0  0
 12  3  1  0  0  0
  3  4  2  0  0  0
  4  5  1  0  0  0
  5  1  1  0  0  0
  1  2  2  0  0  0
  2 16  1  0  0  0
 16 17  1  0  0  0
 17 18  2  0  0  0
 17 20  1  0  0  0
 21 20  1  0  0  0
 21 22  1  0  0  0
 23 22  1  0  0  0
 23 24  1  0  0  0
 25 24  1  0  0  0
 25 26  1  0  0  0
 27 26  1  0  0  0
 27 28  1  0  0  0
 27 29  1  0  0  0
 25 30  1  0  0  0
  5  6  2  0  0  0
  6  7  1  0  0  0
  7  8  2  0  0  0
  8  9  1  0  0  0
  8  3  1  0  0  0
 29 21  1  0  0  0
 30 21  1  0  0  0
 28 23  1  0  0  0
 11 14  1  0  0  0
 11 15  1  0  0  0
 16 19  1  0  0  0
  9 10  1  0  0  0
M  END
> <Activity>
116.0

> <minimizedAffinity>
-6.70931

$$$$
HIPS6897


 30 33  0  0  0  0  0  0  0  0999 V2000
   69.8019   78.5479   88.6270 C   0  0  0  0  0  0  0  0  0  0  0  0
   68.5782   78.7396   88.8915 N   0  0  0  0  0  0  0  0  0  0  0  0
   73.0098   80.4576   88.8681 C   0  0  0  0  0  0  0  0  0  0  0  0
   72.0862   79.4173   88.7740 C   0  0  0  0  0  0  0  0  0  0  0  0
   70.7362   79.6454   88.7245 C   0  0  0  0  0  0  0  0  0  0  0  0
   70.2827   80.9423   88.7694 C   0  0  0  0  0  0  0  0  0  0  0  0
   71.1827   82.0130   88.8639 C   0  0  0  0  0  0  0  0  0  0  0  0
   72.5290   81.7446   88.9111 C   0  0  0  0  0  0  0  0  0  0  0  0
   73.4833   82.7673   89.0057 O   0  0  0  0  0  0  0  0  0  0  0  0
   73.2088   83.6626   89.0384 H   0  0  0  0  0  0  0  0  0  0  0  0
   74.8296   78.8143   89.1128 N   0  0  0  0  0  0  0  0  0  0  0  0
   74.4226   80.1531   88.9164 C   0  0  0  0  0  0  0  0  0  0  0  0
   75.2634   81.0643   88.7858 O   0  0  0  0  0  0  0  0  0  0  0  0
   75.7879   78.5912   89.1480 H   0  0  0  0  0  0  0  0  0  0  0  0
   74.1550   78.1045   89.2144 H   0  0  0  0  0  0  0  0  0  0  0  0
   67.5607   77.8136   88.8501 N   0  0  0  0  0  0  0  0  0  0  0  0
   66.8706   77.4320   87.6599 C   0  0  0  0  0  0  0  0  0  0  0  0
   67.2640   78.0143   86.6186 O   0  0  0  0  0  0  0  0  0  0  0  0
   67.2915   77.3870   89.6956 H   0  0  0  0  0  0  0  0  0  0  0  0
   65.7943   76.4501   87.6283 C   0  0  0  0  0  0  0  0  0  0  0  0
   65.1970   76.0501   88.9273 C   0  0  0  0  0  0  0  0  0  0  0  0
   66.1919   75.1463   89.6888 C   0  0  0  0  0  0  0  0  0  0  0  0
   65.6948   74.8431   91.0597 C   0  0  0  0  0  0  0  0  0  0  0  0
   64.3879   74.1226   90.9729 C   0  0  0  0  0  0  0  0  0  0  0  0
   63.4147   75.0035   90.2318 C   0  0  0  0  0  0  0  0  0  0  0  0
   63.2104   76.2467   91.0537 C   0  0  0  0  0  0  0  0  0  0  0  0
   64.5324   76.9777   91.1784 C   0  0  0  0  0  0  0  0  0  0  0  0
   65.6062   76.1571   91.8104 C   0  0  0  0  0  0  0  0  0  0  0  0
   64.9580   77.3133   89.7515 C   0  0  0  0  0  0  0  0  0  0  0  0
   63.9191   75.3032   88.8310 C   0  0  0  0  0  0  0  0  0  0  0  0
 11 12  1  0  0  0
 12 13  2  0  0  0
 12  3  1  0  0  0
  3  4  2  0  0  0
  4  5  1  0  0  0
  5  1  1  0  0  0
  1  2  2  0  0  0
  2 16  1  0  0  0
 16 17  1  0  0  0
 17 18  2  0  0  0
 17 20  1  0  0  0
 21 20  1  0  0  0
 21 22  1  0  0  0
 23 22  1  0  0  0
 23 24  1  0  0  0
 25 24  1  0  0  0
 25 26  1  0  0  0
 27 26  1  0  0  0
 27 28  1  0  0  0
 27 29  1  0  0  0
 25 30  1  0  0  0
  5  6  2  0  0  0
  6  7  1  0  0  0
  7  8  2  0  0  0
  8  9  1  0  0  0
  8  3  1  0  0  0
 29 21  1  0  0  0
 30 21  1  0  0  0
 28 23  1  0  0  0
 11 14  1  0  0  0
 11 15  1  0  0  0
 16 19  1  0  0  0
  9 10  1  0  0  0
M  END
> <Activity>
116.0

> <minimizedAffinity>
-6.68260

$$$$
HIPS6706


 25 27  0  0  0  0  0  0  0  0999 V2000
   68.4379   75.7180   93.3438 N   0  0  0  0  0  0  0  0  0  0  0  0
   69.6383   76.1465   93.0754 C   0  0  0  0  0  0  0  0  0  0  0  0
   70.0748   76.6143   91.7455 C   0  0  0  0  0  0  0  0  0  0  0  0
   71.2054   76.2264   91.0488 C   0  0  0  0  0  0  0  0  0  0  0  0
   71.1983   76.9580   89.8812 C   0  0  0  0  0  0  0  0  0  0  0  0
   70.0683   77.7588   89.9396 C   0  0  0  0  0  0  0  0  0  0  0  0
   69.4283   77.5321   91.0657 O   0  0  0  0  0  0  0  0  0  0  0  0
   69.6119   78.7354   88.9233 C   0  0  0  0  0  0  0  0  0  0  0  0
   70.2943   79.9567   88.7791 C   0  0  0  0  0  0  0  0  0  0  0  0
   69.8801   80.8931   87.8270 C   0  0  0  0  0  0  0  0  0  0  0  0
   68.7804   80.6220   87.0086 C   0  0  0  0  0  0  0  0  0  0  0  0
   68.2622   81.7983   85.8149 Cl  0  0  0  0  0  0  0  0  0  0  0  0
   68.0939   79.4120   87.1429 C   0  0  0  0  0  0  0  0  0  0  0  0
   68.5047   78.4724   88.0938 C   0  0  0  0  0  0  0  0  0  0  0  0
   67.5754   73.5707   91.7644 O   0  0  0  0  0  0  0  0  0  0  0  0
   66.8827   74.6249   91.7489 C   0  0  0  0  0  0  0  0  0  0  0  0
   67.3480   75.7849   92.4580 N   0  0  0  0  0  0  0  0  0  0  0  0
   66.8929   76.6470   92.3203 H   0  0  0  0  0  0  0  0  0  0  0  0
   65.6072   74.6514   90.9927 C   0  0  0  0  0  0  0  0  0  0  0  0
   64.5356   73.8111   91.3497 C   0  0  0  0  0  0  0  0  0  0  0  0
   63.3428   73.8353   90.6203 C   0  0  0  0  0  0  0  0  0  0  0  0
   63.2062   74.6927   89.5254 C   0  0  0  0  0  0  0  0  0  0  0  0
   61.5762   74.7218   88.5307 Br  0  0  0  0  0  0  0  0  0  0  0  0
   64.2663   75.5247   89.1562 C   0  0  0  0  0  0  0  0  0  0  0  0
   65.4613   75.5032   89.8817 C   0  0  0  0  0  0  0  0  0  0  0  0
 15 16  2  0  0  0
 16 17  1  0  0  0
 17  1  1  0  0  0
  1  2  2  0  0  0
  2  3  1  0  0  0
  3  4  2  0  0  0
  4  5  1  0  0  0
  5  6  2  0  0  0
  6  8  1  0  0  0
  8  9  2  0  0  0
  9 10  1  0  0  0
 10 11  2  0  0  0
 11 12  1  0  0  0
 11 13  1  0  0  0
 13 14  2  0  0  0
  6  7  1  0  0  0
 16 19  1  0  0  0
 19 20  2  0  0  0
 20 21  1  0  0  0
 21 22  2  0  0  0
 22 23  1  0  0  0
 22 24  1  0  0  0
 24 25  2  0  0  0
  7  3  1  0  0  0
 25 19  1  0  0  0
 14  8  1  0  0  0
 17 18  1  0  0  0
M  END
> <Activity>
122.3

> <minimizedAffinity>
-9.11611

$$$$
HIPS6706


 25 27  0  0  0  0  0  0  0  0999 V2000
   68.8252   73.9368   93.1772 N   0  0  0  0  0  0  0  0  0  0  0  0
   69.8991   74.5445   92.7601 C   0  0  0  0  0  0  0  0  0  0  0  0
   70.0892   75.0438   91.3845 C   0  0  0  0  0  0  0  0  0  0  0  0
   71.1575   74.7949   90.5414 C   0  0  0  0  0  0  0  0  0  0  0  0
   70.8990   75.5008   89.3867 C   0  0  0  0  0  0  0  0  0  0  0  0
   69.6922   76.1492   89.5979 C   0  0  0  0  0  0  0  0  0  0  0  0
   69.2435   75.8593   90.7994 O   0  0  0  0  0  0  0  0  0  0  0  0
   68.9805   77.0422   88.6540 C   0  0  0  0  0  0  0  0  0  0  0  0
   69.3015   78.4110   88.6180 C   0  0  0  0  0  0  0  0  0  0  0  0
   68.6418   79.2718   87.7357 C   0  0  0  0  0  0  0  0  0  0  0  0
   67.6542   78.7771   86.8797 C   0  0  0  0  0  0  0  0  0  0  0  0
   66.8275   79.8589   85.7736 Cl  0  0  0  0  0  0  0  0  0  0  0  0
   67.3262   77.4188   86.9066 C   0  0  0  0  0  0  0  0  0  0  0  0
   67.9835   76.5540   87.7875 C   0  0  0  0  0  0  0  0  0  0  0  0
   66.8784   75.9422   92.9838 O   0  0  0  0  0  0  0  0  0  0  0  0
   66.7230   74.9051   92.2825 C   0  0  0  0  0  0  0  0  0  0  0  0
   67.6390   73.8082   92.4333 N   0  0  0  0  0  0  0  0  0  0  0  0
   67.4310   72.9461   92.0057 H   0  0  0  0  0  0  0  0  0  0  0  0
   65.5944   74.8326   91.3232 C   0  0  0  0  0  0  0  0  0  0  0  0
   65.5075   75.7249   90.2377 C   0  0  0  0  0  0  0  0  0  0  0  0
   64.4311   75.6557   89.3479 C   0  0  0  0  0  0  0  0  0  0  0  0
   63.4278   74.7005   89.5321 C   0  0  0  0  0  0  0  0  0  0  0  0
   61.9584   74.6100   88.3156 Br  0  0  0  0  0  0  0  0  0  0  0  0
   63.4987   73.8156   90.6110 C   0  0  0  0  0  0  0  0  0  0  0  0
   64.5724   73.8819   91.5041 C   0  0  0  0  0  0  0  0  0  0  0  0
 15 16  2  0  0  0
 16 17  1  0  0  0
 17  1  1  0  0  0
  1  2  2  0  0  0
  2  3  1  0  0  0
  3  4  2  0  0  0
  4  5  1  0  0  0
  5  6  2  0  0  0
  6  8  1  0  0  0
  8  9  2  0  0  0
  9 10  1  0  0  0
 10 11  2  0  0  0
 11 12  1  0  0  0
 11 13  1  0  0  0
 13 14  2  0  0  0
  6  7  1  0  0  0
 16 19  1  0  0  0
 19 20  2  0  0  0
 20 21  1  0  0  0
 21 22  2  0  0  0
 22 23  1  0  0  0
 22 24  1  0  0  0
 24 25  2  0  0  0
  7  3  1  0  0  0
 25 19  1  0  0  0
 14  8  1  0  0  0
 17 18  1  0  0  0
M  END
> <Activity>
122.3

> <minimizedAffinity>
-8.62338

$$$$
HIPS6706


 25 27  0  0  0  0  0  0  0  0999 V2000
   71.1376   75.1988   90.3777 N   0  0  0  0  0  0  0  0  0  0  0  0
   70.5558   74.4980   91.3088 C   0  0  0  0  0  0  0  0  0  0  0  0
   69.1426   74.6537   91.7042 C   0  0  0  0  0  0  0  0  0  0  0  0
   68.6411   74.8042   92.9849 C   0  0  0  0  0  0  0  0  0  0  0  0
   67.2720   74.8765   92.8476 C   0  0  0  0  0  0  0  0  0  0  0  0
   67.0176   74.7541   91.4904 C   0  0  0  0  0  0  0  0  0  0  0  0
   68.1534   74.6165   90.8424 O   0  0  0  0  0  0  0  0  0  0  0  0
   65.6940   74.7651   90.8250 C   0  0  0  0  0  0  0  0  0  0  0  0
   64.6762   73.9134   91.2906 C   0  0  0  0  0  0  0  0  0  0  0  0
   63.4200   73.9069   90.6768 C   0  0  0  0  0  0  0  0  0  0  0  0
   63.1651   74.7495   89.5916 C   0  0  0  0  0  0  0  0  0  0  0  0
   61.5883   74.7397   88.8229 Cl  0  0  0  0  0  0  0  0  0  0  0  0
   64.1686   75.6001   89.1197 C   0  0  0  0  0  0  0  0  0  0  0  0
   65.4267   75.6099   89.7305 C   0  0  0  0  0  0  0  0  0  0  0  0
   70.1994   77.7232   91.1499 O   0  0  0  0  0  0  0  0  0  0  0  0
   70.1060   77.4109   89.9311 C   0  0  0  0  0  0  0  0  0  0  0  0
   70.4742   76.0865   89.5123 N   0  0  0  0  0  0  0  0  0  0  0  0
   70.2567   75.7938   88.5979 H   0  0  0  0  0  0  0  0  0  0  0  0
   69.6097   78.4113   88.9552 C   0  0  0  0  0  0  0  0  0  0  0  0
   68.5132   78.1264   88.1195 C   0  0  0  0  0  0  0  0  0  0  0  0
   68.0634   79.0726   87.1936 C   0  0  0  0  0  0  0  0  0  0  0  0
   68.7032   80.3104   87.0868 C   0  0  0  0  0  0  0  0  0  0  0  0
   68.0868   81.5996   85.8198 Br  0  0  0  0  0  0  0  0  0  0  0  0
   69.7982   80.6009   87.9047 C   0  0  0  0  0  0  0  0  0  0  0  0
   70.2523   79.6574   88.8311 C   0  0  0  0  0  0  0  0  0  0  0  0
 15 16  2  0  0  0
 16 17  1  0  0  0
 17  1  1  0  0  0
  1  2  2  0  0  0
  2  3  1  0  0  0
  3  4  2  0  0  0
  4  5  1  0  0  0
  5  6  2  0  0  0
  6  8  1  0  0  0
  8  9  2  0  0  0
  9 10  1  0  0  0
 10 11  2  0  0  0
 11 12  1  0  0  0
 11 13  1  0  0  0
 13 14  2  0  0  0
  6  7  1  0  0  0
 16 19  1  0  0  0
 19 20  2  0  0  0
 20 21  1  0  0  0
 21 22  2  0  0  0
 22 23  1  0  0  0
 22 24  1  0  0  0
 24 25  2  0  0  0
  7  3  1  0  0  0
 25 19  1  0  0  0
 14  8  1  0  0  0
 17 18  1  0  0  0
M  END
> <Activity>
122.3

> <minimizedAffinity>
-8.52846

$$$$
HIPS6706


 25 27  0  0  0  0  0  0  0  0999 V2000
   68.9763   73.8560   92.4431 N   0  0  0  0  0  0  0  0  0  0  0  0
   69.9238   74.7094   92.1776 C   0  0  0  0  0  0  0  0  0  0  0  0
   69.9216   75.6169   91.0138 C   0  0  0  0  0  0  0  0  0  0  0  0
   69.2400   75.4508   89.8214 C   0  0  0  0  0  0  0  0  0  0  0  0
   69.5771   76.5346   89.0402 C   0  0  0  0  0  0  0  0  0  0  0  0
   70.4549   77.2933   89.7987 C   0  0  0  0  0  0  0  0  0  0  0  0
   70.6415   76.7131   90.9639 O   0  0  0  0  0  0  0  0  0  0  0  0
   71.1106   78.5618   89.4038 C   0  0  0  0  0  0  0  0  0  0  0  0
   72.5048   78.5946   89.2213 C   0  0  0  0  0  0  0  0  0  0  0  0
   73.1442   79.7810   88.8496 C   0  0  0  0  0  0  0  0  0  0  0  0
   72.4004   80.9481   88.6563 C   0  0  0  0  0  0  0  0  0  0  0  0
   73.2047   82.4357   88.1902 Cl  0  0  0  0  0  0  0  0  0  0  0  0
   71.0144   80.9281   88.8352 C   0  0  0  0  0  0  0  0  0  0  0  0
   70.3705   79.7435   89.2069 C   0  0  0  0  0  0  0  0  0  0  0  0
   66.7960   75.5373   92.9614 O   0  0  0  0  0  0  0  0  0  0  0  0
   66.7009   74.7368   91.9910 C   0  0  0  0  0  0  0  0  0  0  0  0
   67.7504   73.7832   91.7582 N   0  0  0  0  0  0  0  0  0  0  0  0
   67.6077   73.0617   91.1037 H   0  0  0  0  0  0  0  0  0  0  0  0
   65.5056   74.7876   91.1147 C   0  0  0  0  0  0  0  0  0  0  0  0
   65.4720   75.6240   89.9828 C   0  0  0  0  0  0  0  0  0  0  0  0
   64.3338   75.6737   89.1721 C   0  0  0  0  0  0  0  0  0  0  0  0
   63.2158   74.8949   89.4823 C   0  0  0  0  0  0  0  0  0  0  0  0
   61.6626   74.9665   88.3734 Br  0  0  0  0  0  0  0  0  0  0  0  0
   63.2343   74.0678   90.6083 C   0  0  0  0  0  0  0  0  0  0  0  0
   64.3696   74.0157   91.4226 C   0  0  0  0  0  0  0  0  0  0  0  0
 15 16  2  0  0  0
 16 17  1  0  0  0
 17  1  1  0  0  0
  1  2  2  0  0  0
  2  3  1  0  0  0
  3  4  2  0  0  0
  4  5  1  0  0  0
  5  6  2  0  0  0
  6  8  1  0  0  0
  8  9  2  0  0  0
  9 10  1  0  0  0
 10 11  2  0  0  0
 11 12  1  0  0  0
 11 13  1  0  0  0
 13 14  2  0  0  0
  6  7  1  0  0  0
 16 19  1  0  0  0
 19 20  2  0  0  0
 20 21  1  0  0  0
 21 22  2  0  0  0
 22 23  1  0  0  0
 22 24  1  0  0  0
 24 25  2  0  0  0
  7  3  1  0  0  0
 25 19  1  0  0  0
 14  8  1  0  0  0
 17 18  1  0  0  0
M  END
> <Activity>
122.3

> <minimizedAffinity>
-8.44967

$$$$
HIPS6706


 25 27  0  0  0  0  0  0  0  0999 V2000
   67.3752   79.9419   87.3027 N   0  0  0  0  0  0  0  0  0  0  0  0
   68.6607   80.1511   87.3186 C   0  0  0  0  0  0  0  0  0  0  0  0
   69.5926   79.5208   88.2737 C   0  0  0  0  0  0  0  0  0  0  0  0
   70.8656   79.9464   88.6093 C   0  0  0  0  0  0  0  0  0  0  0  0
   71.3479   79.0203   89.5083 C   0  0  0  0  0  0  0  0  0  0  0  0
   70.3440   78.0765   89.6596 C   0  0  0  0  0  0  0  0  0  0  0  0
   69.3180   78.4034   88.9049 O   0  0  0  0  0  0  0  0  0  0  0  0
   70.3741   76.8700   90.5188 C   0  0  0  0  0  0  0  0  0  0  0  0
   70.9460   75.6826   90.0278 C   0  0  0  0  0  0  0  0  0  0  0  0
   70.9842   74.5321   90.8212 C   0  0  0  0  0  0  0  0  0  0  0  0
   70.4520   74.5529   92.1131 C   0  0  0  0  0  0  0  0  0  0  0  0
   70.5007   73.1082   93.1070 Cl  0  0  0  0  0  0  0  0  0  0  0  0
   69.8807   75.7268   92.6120 C   0  0  0  0  0  0  0  0  0  0  0  0
   69.8403   76.8800   91.8219 C   0  0  0  0  0  0  0  0  0  0  0  0
   67.0952   77.2575   86.5513 O   0  0  0  0  0  0  0  0  0  0  0  0
   66.6874   77.5907   87.6977 C   0  0  0  0  0  0  0  0  0  0  0  0
   66.7124   78.9757   88.0800 N   0  0  0  0  0  0  0  0  0  0  0  0
   66.2545   79.2547   88.9057 H   0  0  0  0  0  0  0  0  0  0  0  0
   66.1817   76.5502   88.6256 C   0  0  0  0  0  0  0  0  0  0  0  0
   64.8140   76.2190   88.6669 C   0  0  0  0  0  0  0  0  0  0  0  0
   64.3472   75.2461   89.5560 C   0  0  0  0  0  0  0  0  0  0  0  0
   65.2361   74.5961   90.4163 C   0  0  0  0  0  0  0  0  0  0  0  0
   64.5944   73.2688   91.6303 Br  0  0  0  0  0  0  0  0  0  0  0  0
   66.5944   74.9229   90.3906 C   0  0  0  0  0  0  0  0  0  0  0  0
   67.0656   75.8960   89.5041 C   0  0  0  0  0  0  0  0  0  0  0  0
 15 16  2  0  0  0
 16 17  1  0  0  0
 17  1  1  0  0  0
  1  2  2  0  0  0
  2  3  1  0  0  0
  3  4  2  0  0  0
  4  5  1  0  0  0
  5  6  2  0  0  0
  6  8  1  0  0  0
  8  9  2  0  0  0
  9 10  1  0  0  0
 10 11  2  0  0  0
 11 12  1  0  0  0
 11 13  1  0  0  0
 13 14  2  0  0  0
  6  7  1  0  0  0
 16 19  1  0  0  0
 19 20  2  0  0  0
 20 21  1  0  0  0
 21 22  2  0  0  0
 22 23  1  0  0  0
 22 24  1  0  0  0
 24 25  2  0  0  0
  7  3  1  0  0  0
 25 19  1  0  0  0
 14  8  1  0  0  0
 17 18  1  0  0  0
M  END
> <Activity>
122.3

> <minimizedAffinity>
-8.06214

$$$$
HIPS6706


 25 27  0  0  0  0  0  0  0  0999 V2000
   69.6907   76.7728   93.1700 N   0  0  0  0  0  0  0  0  0  0  0  0
   69.3968   75.5347   93.4478 C   0  0  0  0  0  0  0  0  0  0  0  0
   68.3972   74.7341   92.7144 C   0  0  0  0  0  0  0  0  0  0  0  0
   68.4166   73.3692   92.4890 C   0  0  0  0  0  0  0  0  0  0  0  0
   67.2966   73.0957   91.7345 C   0  0  0  0  0  0  0  0  0  0  0  0
   66.6650   74.3132   91.5338 C   0  0  0  0  0  0  0  0  0  0  0  0
   67.3519   75.2658   92.1253 O   0  0  0  0  0  0  0  0  0  0  0  0
   65.4153   74.5573   90.7765 C   0  0  0  0  0  0  0  0  0  0  0  0
   65.3773   75.5798   89.8116 C   0  0  0  0  0  0  0  0  0  0  0  0
   64.2082   75.8280   89.0861 C   0  0  0  0  0  0  0  0  0  0  0  0
   63.0638   75.0594   89.3153 C   0  0  0  0  0  0  0  0  0  0  0  0
   61.5979   75.3726   88.4041 Cl  0  0  0  0  0  0  0  0  0  0  0  0
   63.0893   74.0408   90.2719 C   0  0  0  0  0  0  0  0  0  0  0  0
   64.2565   73.7890   90.9999 C   0  0  0  0  0  0  0  0  0  0  0  0
   70.9942   76.7967   90.6901 O   0  0  0  0  0  0  0  0  0  0  0  0
   69.8721   77.3680   90.7678 C   0  0  0  0  0  0  0  0  0  0  0  0
   69.2214   77.4733   92.0448 N   0  0  0  0  0  0  0  0  0  0  0  0
   68.4281   78.0495   92.1339 H   0  0  0  0  0  0  0  0  0  0  0  0
   69.2496   77.9281   89.5438 C   0  0  0  0  0  0  0  0  0  0  0  0
   69.6503   79.1777   89.0340 C   0  0  0  0  0  0  0  0  0  0  0  0
   69.0461   79.7017   87.8870 C   0  0  0  0  0  0  0  0  0  0  0  0
   68.0338   78.9894   87.2384 C   0  0  0  0  0  0  0  0  0  0  0  0
   67.2099   79.7090   85.6730 Br  0  0  0  0  0  0  0  0  0  0  0  0
   67.6216   77.7523   87.7405 C   0  0  0  0  0  0  0  0  0  0  0  0
   68.2219   77.2249   88.8878 C   0  0  0  0  0  0  0  0  0  0  0  0
 15 16  2  0  0  0
 16 17  1  0  0  0
 17  1  1  0  0  0
  1  2  2  0  0  0
  2  3  1  0  0  0
  3  4  2  0  0  0
  4  5  1  0  0  0
  5  6  2  0  0  0
  6  8  1  0  0  0
  8  9  2  0  0  0
  9 10  1  0  0  0
 10 11  2  0  0  0
 11 12  1  0  0  0
 11 13  1  0  0  0
 13 14  2  0  0  0
  6  7  1  0  0  0
 16 19  1  0  0  0
 19 20  2  0  0  0
 20 21  1  0  0  0
 21 22  2  0  0  0
 22 23  1  0  0  0
 22 24  1  0  0  0
 24 25  2  0  0  0
  7  3  1  0  0  0
 25 19  1  0  0  0
 14  8  1  0  0  0
 17 18  1  0  0  0
M  END
> <Activity>
122.3

> <minimizedAffinity>
-8.05882

$$$$
HIPS6706


 25 27  0  0  0  0  0  0  0  0999 V2000
   66.9524   79.3500   87.5723 N   0  0  0  0  0  0  0  0  0  0  0  0
   68.1949   79.7388   87.6116 C   0  0  0  0  0  0  0  0  0  0  0  0
   69.2322   79.1190   88.4589 C   0  0  0  0  0  0  0  0  0  0  0  0
   70.5342   79.5497   88.6417 C   0  0  0  0  0  0  0  0  0  0  0  0
   71.1193   78.6330   89.4878 C   0  0  0  0  0  0  0  0  0  0  0  0
   70.1419   77.6892   89.7625 C   0  0  0  0  0  0  0  0  0  0  0  0
   69.0350   78.0073   89.1280 O   0  0  0  0  0  0  0  0  0  0  0  0
   70.2739   76.4910   90.6238 C   0  0  0  0  0  0  0  0  0  0  0  0
   71.0566   75.4065   90.1886 C   0  0  0  0  0  0  0  0  0  0  0  0
   71.1941   74.2656   90.9849 C   0  0  0  0  0  0  0  0  0  0  0  0
   70.5520   74.1934   92.2240 C   0  0  0  0  0  0  0  0  0  0  0  0
   70.7256   72.7610   93.2215 Cl  0  0  0  0  0  0  0  0  0  0  0  0
   69.7711   75.2645   92.6670 C   0  0  0  0  0  0  0  0  0  0  0  0
   69.6308   76.4078   91.8738 C   0  0  0  0  0  0  0  0  0  0  0  0
   66.1082   79.2710   90.2425 O   0  0  0  0  0  0  0  0  0  0  0  0
   65.9383   78.2348   89.5434 C   0  0  0  0  0  0  0  0  0  0  0  0
   66.4550   78.1959   88.2030 N   0  0  0  0  0  0  0  0  0  0  0  0
   66.4609   77.3410   87.7148 H   0  0  0  0  0  0  0  0  0  0  0  0
   65.2177   77.0735   90.1191 C   0  0  0  0  0  0  0  0  0  0  0  0
   63.8161   77.0829   90.2504 C   0  0  0  0  0  0  0  0  0  0  0  0
   63.1493   75.9875   90.8078 C   0  0  0  0  0  0  0  0  0  0  0  0
   63.8712   74.8734   91.2443 C   0  0  0  0  0  0  0  0  0  0  0  0
   62.9570   73.3798   92.0064 Br  0  0  0  0  0  0  0  0  0  0  0  0
   65.2634   74.8565   91.1274 C   0  0  0  0  0  0  0  0  0  0  0  0
   65.9346   75.9500   90.5719 C   0  0  0  0  0  0  0  0  0  0  0  0
 15 16  2  0  0  0
 16 17  1  0  0  0
 17  1  1  0  0  0
  1  2  2  0  0  0
  2  3  1  0  0  0
  3  4  2  0  0  0
  4  5  1  0  0  0
  5  6  2  0  0  0
  6  8  1  0  0  0
  8  9  2  0  0  0
  9 10  1  0  0  0
 10 11  2  0  0  0
 11 12  1  0  0  0
 11 13  1  0  0  0
 13 14  2  0  0  0
  6  7  1  0  0  0
 16 19  1  0  0  0
 19 20  2  0  0  0
 20 21  1  0  0  0
 21 22  2  0  0  0
 22 23  1  0  0  0
 22 24  1  0  0  0
 24 25  2  0  0  0
  7  3  1  0  0  0
 25 19  1  0  0  0
 14  8  1  0  0  0
 17 18  1  0  0  0
M  END
> <Activity>
122.3

> <minimizedAffinity>
-7.92920

$$$$
HIPS6706


 25 27  0  0  0  0  0  0  0  0999 V2000
   67.0795   76.6588   87.2751 N   0  0  0  0  0  0  0  0  0  0  0  0
   66.4194   76.1639   88.2831 C   0  0  0  0  0  0  0  0  0  0  0  0
   66.9086   76.1624   89.6754 C   0  0  0  0  0  0  0  0  0  0  0  0
   67.1023   75.0652   90.4958 C   0  0  0  0  0  0  0  0  0  0  0  0
   67.5331   75.5691   91.7037 C   0  0  0  0  0  0  0  0  0  0  0  0
   67.5659   76.9466   91.5527 C   0  0  0  0  0  0  0  0  0  0  0  0
   67.1815   77.2633   90.3357 O   0  0  0  0  0  0  0  0  0  0  0  0
   67.9591   77.9479   92.5714 C   0  0  0  0  0  0  0  0  0  0  0  0
   67.4311   79.2497   92.5046 C   0  0  0  0  0  0  0  0  0  0  0  0
   67.7894   80.2106   93.4549 C   0  0  0  0  0  0  0  0  0  0  0  0
   68.6786   79.8840   94.4821 C   0  0  0  0  0  0  0  0  0  0  0  0
   69.1270   81.0911   95.6733 Cl  0  0  0  0  0  0  0  0  0  0  0  0
   69.2103   78.5937   94.5587 C   0  0  0  0  0  0  0  0  0  0  0  0
   68.8548   77.6293   93.6103 C   0  0  0  0  0  0  0  0  0  0  0  0
   67.1700   79.3918   87.8847 O   0  0  0  0  0  0  0  0  0  0  0  0
   68.2665   78.7733   87.8016 C   0  0  0  0  0  0  0  0  0  0  0  0
   68.2705   77.3982   87.3844 N   0  0  0  0  0  0  0  0  0  0  0  0
   69.1274   76.9634   87.1702 H   0  0  0  0  0  0  0  0  0  0  0  0
   69.5305   79.4777   88.1261 C   0  0  0  0  0  0  0  0  0  0  0  0
   69.6955   80.8440   87.8293 C   0  0  0  0  0  0  0  0  0  0  0  0
   70.8972   81.4937   88.1274 C   0  0  0  0  0  0  0  0  0  0  0  0
   71.9486   80.7891   88.7197 C   0  0  0  0  0  0  0  0  0  0  0  0
   73.5890   81.6797   89.1240 Br  0  0  0  0  0  0  0  0  0  0  0  0
   71.7997   79.4306   89.0105 C   0  0  0  0  0  0  0  0  0  0  0  0
   70.6004   78.7764   88.7131 C   0  0  0  0  0  0  0  0  0  0  0  0
 15 16  2  0  0  0
 16 17  1  0  0  0
 17  1  1  0  0  0
  1  2  2  0  0  0
  2  3  1  0  0  0
  3  4  2  0  0  0
  4  5  1  0  0  0
  5  6  2  0  0  0
  6  8  1  0  0  0
  8  9  2  0  0  0
  9 10  1  0  0  0
 10 11  2  0  0  0
 11 12  1  0  0  0
 11 13  1  0  0  0
 13 14  2  0  0  0
  6  7  1  0  0  0
 16 19  1  0  0  0
 19 20  2  0  0  0
 20 21  1  0  0  0
 21 22  2  0  0  0
 22 23  1  0  0  0
 22 24  1  0  0  0
 24 25  2  0  0  0
  7  3  1  0  0  0
 25 19  1  0  0  0
 14  8  1  0  0  0
 17 18  1  0  0  0
M  END
> <Activity>
122.3

> <minimizedAffinity>
-7.88255

$$$$
HIPS6706


 25 27  0  0  0  0  0  0  0  0999 V2000
   67.3891   75.1953   89.9884 N   0  0  0  0  0  0  0  0  0  0  0  0
   67.8219   75.4537   88.7874 C   0  0  0  0  0  0  0  0  0  0  0  0
   68.2200   76.7953   88.3191 C   0  0  0  0  0  0  0  0  0  0  0  0
   67.5986   77.5653   87.3521 C   0  0  0  0  0  0  0  0  0  0  0  0
   68.3529   78.7131   87.2419 C   0  0  0  0  0  0  0  0  0  0  0  0
   69.3982   78.5706   88.1411 C   0  0  0  0  0  0  0  0  0  0  0  0
   69.2902   77.4149   88.7589 O   0  0  0  0  0  0  0  0  0  0  0  0
   70.4922   79.5356   88.3997 C   0  0  0  0  0  0  0  0  0  0  0  0
   71.7703   79.0597   88.7429 C   0  0  0  0  0  0  0  0  0  0  0  0
   72.8169   79.9527   88.9920 C   0  0  0  0  0  0  0  0  0  0  0  0
   72.6002   81.3302   88.9019 C   0  0  0  0  0  0  0  0  0  0  0  0
   73.9146   82.4489   89.2150 Cl  0  0  0  0  0  0  0  0  0  0  0  0
   71.3342   81.8152   88.5621 C   0  0  0  0  0  0  0  0  0  0  0  0
   70.2844   80.9256   88.3121 C   0  0  0  0  0  0  0  0  0  0  0  0
   69.6581   75.8393   91.5005 O   0  0  0  0  0  0  0  0  0  0  0  0
   68.5993   76.4864   91.7280 C   0  0  0  0  0  0  0  0  0  0  0  0
   67.3866   76.1143   91.0526 N   0  0  0  0  0  0  0  0  0  0  0  0
   66.5339   76.5123   91.3419 H   0  0  0  0  0  0  0  0  0  0  0  0
   68.6224   77.6116   92.6938 C   0  0  0  0  0  0  0  0  0  0  0  0
   69.3178   77.5056   93.9133 C   0  0  0  0  0  0  0  0  0  0  0  0
   69.3206   78.5683   94.8220 C   0  0  0  0  0  0  0  0  0  0  0  0
   68.6276   79.7457   94.5281 C   0  0  0  0  0  0  0  0  0  0  0  0
   68.6326   81.1945   95.7724 Br  0  0  0  0  0  0  0  0  0  0  0  0
   67.9264   79.8590   93.3248 C   0  0  0  0  0  0  0  0  0  0  0  0
   67.9197   78.7985   92.4137 C   0  0  0  0  0  0  0  0  0  0  0  0
 15 16  2  0  0  0
 16 17  1  0  0  0
 17  1  1  0  0  0
  1  2  2  0  0  0
  2  3  1  0  0  0
  3  4  2  0  0  0
  4  5  1  0  0  0
  5  6  2  0  0  0
  6  8  1  0  0  0
  8  9  2  0  0  0
  9 10  1  0  0  0
 10 11  2  0  0  0
 11 12  1  0  0  0
 11 13  1  0  0  0
 13 14  2  0  0  0
  6  7  1  0  0  0
 16 19  1  0  0  0
 19 20  2  0  0  0
 20 21  1  0  0  0
 21 22  2  0  0  0
 22 23  1  0  0  0
 22 24  1  0  0  0
 24 25  2  0  0  0
  7  3  1  0  0  0
 25 19  1  0  0  0
 14  8  1  0  0  0
 17 18  1  0  0  0
M  END
> <Activity>
122.3

> <minimizedAffinity>
-7.47993

$$$$
HIPS6706


 25 27  0  0  0  0  0  0  0  0999 V2000
   69.6111   79.7491   88.2987 N   0  0  0  0  0  0  0  0  0  0  0  0
   68.4839   79.7947   87.6475 C   0  0  0  0  0  0  0  0  0  0  0  0
   67.5846   78.6394   87.4627 C   0  0  0  0  0  0  0  0  0  0  0  0
   67.1248   78.1165   86.2671 C   0  0  0  0  0  0  0  0  0  0  0  0
   66.2924   77.0726   86.6075 C   0  0  0  0  0  0  0  0  0  0  0  0
   66.2841   77.0272   87.9929 C   0  0  0  0  0  0  0  0  0  0  0  0
   67.0586   77.9782   88.4670 O   0  0  0  0  0  0  0  0  0  0  0  0
   65.5347   76.0805   88.8513 C   0  0  0  0  0  0  0  0  0  0  0  0
   66.1923   75.4407   89.9172 C   0  0  0  0  0  0  0  0  0  0  0  0
   65.5046   74.5430   90.7393 C   0  0  0  0  0  0  0  0  0  0  0  0
   64.1533   74.2730   90.5071 C   0  0  0  0  0  0  0  0  0  0  0  0
   63.2922   73.1462   91.5396 Cl  0  0  0  0  0  0  0  0  0  0  0  0
   63.4890   74.9024   89.4507 C   0  0  0  0  0  0  0  0  0  0  0  0
   64.1730   75.8011   88.6258 C   0  0  0  0  0  0  0  0  0  0  0  0
   68.6560   79.1090   90.8535 O   0  0  0  0  0  0  0  0  0  0  0  0
   69.4603   78.3034   90.3098 C   0  0  0  0  0  0  0  0  0  0  0  0
   70.0575   78.6467   89.0486 N   0  0  0  0  0  0  0  0  0  0  0  0
   70.7967   78.0969   88.7014 H   0  0  0  0  0  0  0  0  0  0  0  0
   69.7820   77.0228   90.9850 C   0  0  0  0  0  0  0  0  0  0  0  0
   70.7876   76.1732   90.4860 C   0  0  0  0  0  0  0  0  0  0  0  0
   71.0723   74.9616   91.1234 C   0  0  0  0  0  0  0  0  0  0  0  0
   70.3558   74.5812   92.2613 C   0  0  0  0  0  0  0  0  0  0  0  0
   70.7465   72.9250   93.1282 Br  0  0  0  0  0  0  0  0  0  0  0  0
   69.3494   75.4120   92.7603 C   0  0  0  0  0  0  0  0  0  0  0  0
   69.0603   76.6238   92.1256 C   0  0  0  0  0  0  0  0  0  0  0  0
 15 16  2  0  0  0
 16 17  1  0  0  0
 17  1  1  0  0  0
  1  2  2  0  0  0
  2  3  1  0  0  0
  3  4  2  0  0  0
  4  5  1  0  0  0
  5  6  2  0  0  0
  6  8  1  0  0  0
  8  9  2  0  0  0
  9 10  1  0  0  0
 10 11  2  0  0  0
 11 12  1  0  0  0
 11 13  1  0  0  0
 13 14  2  0  0  0
  6  7  1  0  0  0
 16 19  1  0  0  0
 19 20  2  0  0  0
 20 21  1  0  0  0
 21 22  2  0  0  0
 22 23  1  0  0  0
 22 24  1  0  0  0
 24 25  2  0  0  0
  7  3  1  0  0  0
 25 19  1  0  0  0
 14  8  1  0  0  0
 17 18  1  0  0  0
M  END
> <Activity>
122.3

> <minimizedAffinity>
-7.44563

$$$$
HIPS6297


 35 38  0  0  0  0  0  0  0  0999 V2000
   67.6195   73.9559   91.7003 C   0  0  0  0  0  0  0  0  0  0  0  0
   68.4430   73.3021   92.5856 C   0  0  0  0  0  0  0  0  0  0  0  0
   69.6853   73.8674   92.8708 C   0  0  0  0  0  0  0  0  0  0  0  0
   70.0607   75.0685   92.2596 C   0  0  0  0  0  0  0  0  0  0  0  0
   69.2382   75.7233   91.3741 C   0  0  0  0  0  0  0  0  0  0  0  0
   68.0017   75.1439   91.1015 C   0  0  0  0  0  0  0  0  0  0  0  0
   69.6228   76.9767   90.7347 C   0  0  0  0  0  0  0  0  0  0  0  0
   70.6705   77.0291   89.8355 C   0  0  0  0  0  0  0  0  0  0  0  0
   71.0141   78.2376   89.2427 C   0  0  0  0  0  0  0  0  0  0  0  0
   70.3303   79.4040   89.5292 C   0  0  0  0  0  0  0  0  0  0  0  0
   69.2783   79.3659   90.4283 C   0  0  0  0  0  0  0  0  0  0  0  0
   68.9541   78.1643   91.0031 C   0  0  0  0  0  0  0  0  0  0  0  0
   70.7449   80.9139   88.8027 S   0  0  0  0  0  0  0  0  0  0  0  0
   70.1632   82.0564   89.5844 O   0  0  0  0  0  0  0  0  0  0  0  0
   70.1029   80.9591   87.4302 O   0  0  0  0  0  0  0  0  0  0  0  0
   72.4358   81.1064   88.5718 N   0  0  0  0  0  0  0  0  0  0  0  0
   72.9665   82.2286   89.3149 C   0  0  0  0  0  0  0  0  0  0  0  0
   74.1927   82.7206   88.5406 C   0  0  0  0  0  0  0  0  0  0  0  0
   75.0295   81.5044   88.2284 C   0  0  0  0  0  0  0  0  0  0  0  0
   74.6218   80.2986   89.0532 C   0  0  0  0  0  0  0  0  0  0  0  0
   73.1769   79.9043   88.7582 C   0  0  0  0  0  0  0  0  0  0  0  0
   66.2959   73.3609   91.3941 C   0  0  0  0  0  0  0  0  0  0  0  0
   65.2547   74.2349   91.7827 O   0  0  0  0  0  0  0  0  0  0  0  0
   62.6950   74.9631   89.2324 C   0  0  0  0  0  0  0  0  0  0  0  0
   63.4966   74.2685   90.1113 C   0  0  0  0  0  0  0  0  0  0  0  0
   64.4338   74.8843   90.8935 C   0  0  0  0  0  0  0  0  0  0  0  0
   64.5644   76.2607   90.7808 C   0  0  0  0  0  0  0  0  0  0  0  0
   63.7762   76.9602   89.9138 C   0  0  0  0  0  0  0  0  0  0  0  0
   62.8450   76.3218   89.1412 C   0  0  0  0  0  0  0  0  0  0  0  0
   62.0616   77.0849   88.2679 O   0  0  0  0  0  0  0  0  0  0  0  0
   62.1806   78.0131   88.2214 H   0  0  0  0  0  0  0  0  0  0  0  0
   60.4931   74.5579   88.5226 O   0  0  0  0  0  0  0  0  0  0  0  0
   61.6976   74.2845   88.4044 C   0  0  0  0  0  0  0  0  0  0  0  0
   62.0706   73.3318   87.4795 O   0  0  0  0  0  0  0  0  0  0  0  0
   62.9749   73.1102   87.3740 H   0  0  0  0  0  0  0  0  0  0  0  0
 32 33  2  0  0  0
 33 34  1  0  0  0
 33 24  1  0  0  0
 24 25  2  0  0  0
 25 26  1  0  0  0
 26 23  1  0  0  0
 23 22  1  0  0  0
 22  1  1  0  0  0
  1  2  2  0  0  0
  2  3  1  0  0  0
  3  4  2  0  0  0
  4  5  1  0  0  0
  5  7  1  0  0  0
  7  8  2  0  0  0
  8  9  1  0  0  0
  9 10  2  0  0  0
 10 13  1  0  0  0
 13 14  2  0  0  0
 13 15  2  0  0  0
 13 16  1  0  0  0
 16 17  1  0  0  0
 17 18  1  0  0  0
 18 19  1  0  0  0
 19 20  1  0  0  0
 20 21  1  0  0  0
 10 11  1  0  0  0
 11 12  2  0  0  0
  5  6  2  0  0  0
 26 27  2  0  0  0
 27 28  1  0  0  0
 28 29  2  0  0  0
 29 30  1  0  0  0
 29 24  1  0  0  0
  6  1  1  0  0  0
 12  7  1  0  0  0
 21 16  1  0  0  0
 34 35  1  0  0  0
 30 31  1  0  0  0
M  END
> <Activity>
125.3

> <minimizedAffinity>
-10.19270

$$$$
HIPS6297


 35 38  0  0  0  0  0  0  0  0999 V2000
   68.0849   73.7408   91.8008 C   0  0  0  0  0  0  0  0  0  0  0  0
   68.9701   73.1143   92.6455 C   0  0  0  0  0  0  0  0  0  0  0  0
   70.2009   73.7255   92.8814 C   0  0  0  0  0  0  0  0  0  0  0  0
   70.5036   74.9434   92.2632 C   0  0  0  0  0  0  0  0  0  0  0  0
   69.6193   75.5709   91.4183 C   0  0  0  0  0  0  0  0  0  0  0  0
   68.3953   74.9459   91.1947 C   0  0  0  0  0  0  0  0  0  0  0  0
   69.9279   76.8416   90.7720 C   0  0  0  0  0  0  0  0  0  0  0  0
   71.0156   76.9703   89.9296 C   0  0  0  0  0  0  0  0  0  0  0  0
   71.2847   78.1935   89.3286 C   0  0  0  0  0  0  0  0  0  0  0  0
   70.4866   79.2998   89.5509 C   0  0  0  0  0  0  0  0  0  0  0  0
   69.3935   79.1850   90.3925 C   0  0  0  0  0  0  0  0  0  0  0  0
   69.1440   77.9700   90.9765 C   0  0  0  0  0  0  0  0  0  0  0  0
   70.8075   80.8270   88.8134 S   0  0  0  0  0  0  0  0  0  0  0  0
   70.1659   81.9382   89.5932 O   0  0  0  0  0  0  0  0  0  0  0  0
   70.1542   80.8269   87.4454 O   0  0  0  0  0  0  0  0  0  0  0  0
   72.4826   81.1161   88.5688 N   0  0  0  0  0  0  0  0  0  0  0  0
   72.9763   82.2038   89.3853 C   0  0  0  0  0  0  0  0  0  0  0  0
   74.1624   82.8097   88.6296 C   0  0  0  0  0  0  0  0  0  0  0  0
   75.0477   81.6612   88.2123 C   0  0  0  0  0  0  0  0  0  0  0  0
   74.7130   80.3793   88.9506 C   0  0  0  0  0  0  0  0  0  0  0  0
   73.2820   79.9401   88.6514 C   0  0  0  0  0  0  0  0  0  0  0  0
   66.7731   73.0969   91.5473 C   0  0  0  0  0  0  0  0  0  0  0  0
   65.7220   73.8847   92.0704 O   0  0  0  0  0  0  0  0  0  0  0  0
   64.9516   77.0043   90.2645 C   0  0  0  0  0  0  0  0  0  0  0  0
   65.6407   76.0512   90.9815 C   0  0  0  0  0  0  0  0  0  0  0  0
   65.0758   74.8637   91.3561 C   0  0  0  0  0  0  0  0  0  0  0  0
   63.7583   74.6322   90.9890 C   0  0  0  0  0  0  0  0  0  0  0  0
   63.0649   75.5684   90.2786 C   0  0  0  0  0  0  0  0  0  0  0  0
   63.6516   76.7496   89.9150 C   0  0  0  0  0  0  0  0  0  0  0  0
   62.8973   77.6766   89.1868 O   0  0  0  0  0  0  0  0  0  0  0  0
   62.0097   77.4821   88.9583 H   0  0  0  0  0  0  0  0  0  0  0  0
   65.3896   79.2944   90.5466 O   0  0  0  0  0  0  0  0  0  0  0  0
   65.5752   78.2688   89.8734 C   0  0  0  0  0  0  0  0  0  0  0  0
   66.3783   78.3495   88.7551 O   0  0  0  0  0  0  0  0  0  0  0  0
   66.5317   77.5871   88.2324 H   0  0  0  0  0  0  0  0  0  0  0  0
 32 33  2  0  0  0
 33 34  1  0  0  0
 33 24  1  0  0  0
 24 25  2  0  0  0
 25 26  1  0  0  0
 26 23  1  0  0  0
 23 22  1  0  0  0
 22  1  1  0  0  0
  1  2  2  0  0  0
  2  3  1  0  0  0
  3  4  2  0  0  0
  4  5  1  0  0  0
  5  7  1  0  0  0
  7  8  2  0  0  0
  8  9  1  0  0  0
  9 10  2  0  0  0
 10 13  1  0  0  0
 13 14  2  0  0  0
 13 15  2  0  0  0
 13 16  1  0  0  0
 16 17  1  0  0  0
 17 18  1  0  0  0
 18 19  1  0  0  0
 19 20  1  0  0  0
 20 21  1  0  0  0
 10 11  1  0  0  0
 11 12  2  0  0  0
  5  6  2  0  0  0
 26 27  2  0  0  0
 27 28  1  0  0  0
 28 29  2  0  0  0
 29 30  1  0  0  0
 29 24  1  0  0  0
  6  1  1  0  0  0
 12  7  1  0  0  0
 21 16  1  0  0  0
 34 35  1  0  0  0
 30 31  1  0  0  0
M  END
> <Activity>
125.3

> <minimizedAffinity>
-9.87335

$$$$
HIPS6297


 35 38  0  0  0  0  0  0  0  0999 V2000
   71.6305   80.3908   88.7040 C   0  0  0  0  0  0  0  0  0  0  0  0
   72.9301   80.0040   88.4783 C   0  0  0  0  0  0  0  0  0  0  0  0
   73.2812   78.6824   88.7506 C   0  0  0  0  0  0  0  0  0  0  0  0
   72.3187   77.7928   89.2398 C   0  0  0  0  0  0  0  0  0  0  0  0
   71.0187   78.1783   89.4660 C   0  0  0  0  0  0  0  0  0  0  0  0
   70.6866   79.5017   89.1884 C   0  0  0  0  0  0  0  0  0  0  0  0
   70.0100   77.2554   89.9743 C   0  0  0  0  0  0  0  0  0  0  0  0
   69.6730   76.1099   89.2789 C   0  0  0  0  0  0  0  0  0  0  0  0
   68.7081   75.2499   89.7878 C   0  0  0  0  0  0  0  0  0  0  0  0
   68.0667   75.5091   90.9843 C   0  0  0  0  0  0  0  0  0  0  0  0
   68.3946   76.6531   91.6915 C   0  0  0  0  0  0  0  0  0  0  0  0
   69.3492   77.4897   91.1734 C   0  0  0  0  0  0  0  0  0  0  0  0
   66.8647   74.4520   91.6301 S   0  0  0  0  0  0  0  0  0  0  0  0
   67.0218   74.3152   93.1171 O   0  0  0  0  0  0  0  0  0  0  0  0
   67.0966   73.0737   91.0431 O   0  0  0  0  0  0  0  0  0  0  0  0
   65.2659   74.9146   91.2066 N   0  0  0  0  0  0  0  0  0  0  0  0
   65.1458   75.2525   89.8049 C   0  0  0  0  0  0  0  0  0  0  0  0
   63.9977   76.2603   89.6985 C   0  0  0  0  0  0  0  0  0  0  0  0
   62.8414   75.6901   90.4825 C   0  0  0  0  0  0  0  0  0  0  0  0
   63.0282   74.2175   90.7940 C   0  0  0  0  0  0  0  0  0  0  0  0
   64.2703   73.9995   91.6543 C   0  0  0  0  0  0  0  0  0  0  0  0
   71.2501   81.7947   88.4145 C   0  0  0  0  0  0  0  0  0  0  0  0
   69.8436   81.9385   88.4067 O   0  0  0  0  0  0  0  0  0  0  0  0
   67.5235   79.2703   87.3653 C   0  0  0  0  0  0  0  0  0  0  0  0
   68.3605   80.0362   88.1465 C   0  0  0  0  0  0  0  0  0  0  0  0
   69.0010   81.1451   87.6672 C   0  0  0  0  0  0  0  0  0  0  0  0
   68.7845   81.4925   86.3418 C   0  0  0  0  0  0  0  0  0  0  0  0
   67.9576   80.7420   85.5577 C   0  0  0  0  0  0  0  0  0  0  0  0
   67.3275   79.6363   86.0597 C   0  0  0  0  0  0  0  0  0  0  0  0
   66.4894   78.9004   85.2141 O   0  0  0  0  0  0  0  0  0  0  0  0
   66.3694   79.1685   84.3244 H   0  0  0  0  0  0  0  0  0  0  0  0
   66.4509   78.0674   89.0737 O   0  0  0  0  0  0  0  0  0  0  0  0
   66.8474   78.0872   87.8981 C   0  0  0  0  0  0  0  0  0  0  0  0
   66.6366   76.9741   87.1114 O   0  0  0  0  0  0  0  0  0  0  0  0
   66.9280   76.9678   86.2209 H   0  0  0  0  0  0  0  0  0  0  0  0
 32 33  2  0  0  0
 33 34  1  0  0  0
 33 24  1  0  0  0
 24 25  2  0  0  0
 25 26  1  0  0  0
 26 23  1  0  0  0
 23 22  1  0  0  0
 22  1  1  0  0  0
  1  2  2  0  0  0
  2  3  1  0  0  0
  3  4  2  0  0  0
  4  5  1  0  0  0
  5  7  1  0  0  0
  7  8  2  0  0  0
  8  9  1  0  0  0
  9 10  2  0  0  0
 10 13  1  0  0  0
 13 14  2  0  0  0
 13 15  2  0  0  0
 13 16  1  0  0  0
 16 17  1  0  0  0
 17 18  1  0  0  0
 18 19  1  0  0  0
 19 20  1  0  0  0
 20 21  1  0  0  0
 10 11  1  0  0  0
 11 12  2  0  0  0
  5  6  2  0  0  0
 26 27  2  0  0  0
 27 28  1  0  0  0
 28 29  2  0  0  0
 29 30  1  0  0  0
 29 24  1  0  0  0
  6  1  1  0  0  0
 12  7  1  0  0  0
 21 16  1  0  0  0
 34 35  1  0  0  0
 30 31  1  0  0  0
M  END
> <Activity>
125.3

> <minimizedAffinity>
-8.80025

$$$$
HIPS6297


 35 38  0  0  0  0  0  0  0  0999 V2000
   67.5349   73.5128   91.8472 C   0  0  0  0  0  0  0  0  0  0  0  0
   68.3815   72.8755   92.7228 C   0  0  0  0  0  0  0  0  0  0  0  0
   69.6352   73.4394   92.9558 C   0  0  0  0  0  0  0  0  0  0  0  0
   69.9987   74.6226   92.3038 C   0  0  0  0  0  0  0  0  0  0  0  0
   69.1532   75.2609   91.4279 C   0  0  0  0  0  0  0  0  0  0  0  0
   67.9055   74.6832   91.2077 C   0  0  0  0  0  0  0  0  0  0  0  0
   69.5253   76.4957   90.7463 C   0  0  0  0  0  0  0  0  0  0  0  0
   70.7230   76.6044   90.0660 C   0  0  0  0  0  0  0  0  0  0  0  0
   71.0504   77.7934   89.4267 C   0  0  0  0  0  0  0  0  0  0  0  0
   70.2029   78.8849   89.4509 C   0  0  0  0  0  0  0  0  0  0  0  0
   68.9995   78.7898   90.1286 C   0  0  0  0  0  0  0  0  0  0  0  0
   68.6939   77.6084   90.7535 C   0  0  0  0  0  0  0  0  0  0  0  0
   70.5948   80.3698   88.6630 S   0  0  0  0  0  0  0  0  0  0  0  0
   72.0424   80.3934   88.2648 O   0  0  0  0  0  0  0  0  0  0  0  0
   70.4049   81.4904   89.6662 O   0  0  0  0  0  0  0  0  0  0  0  0
   69.5699   80.7130   87.3284 N   0  0  0  0  0  0  0  0  0  0  0  0
   68.3978   79.8650   87.3048 C   0  0  0  0  0  0  0  0  0  0  0  0
   67.9793   79.7442   85.8366 C   0  0  0  0  0  0  0  0  0  0  0  0
   67.9624   81.1427   85.2704 C   0  0  0  0  0  0  0  0  0  0  0  0
   67.9900   82.2027   86.3549 C   0  0  0  0  0  0  0  0  0  0  0  0
   69.2683   82.0975   87.1825 C   0  0  0  0  0  0  0  0  0  0  0  0
   66.1992   72.9192   91.5965 C   0  0  0  0  0  0  0  0  0  0  0  0
   65.1755   73.8166   91.9784 O   0  0  0  0  0  0  0  0  0  0  0  0
   62.7554   74.8093   89.3814 C   0  0  0  0  0  0  0  0  0  0  0  0
   63.4740   74.0315   90.2624 C   0  0  0  0  0  0  0  0  0  0  0  0
   64.4343   74.5510   91.0854 C   0  0  0  0  0  0  0  0  0  0  0  0
   64.6766   75.9150   91.0129 C   0  0  0  0  0  0  0  0  0  0  0  0
   63.9714   76.6963   90.1444 C   0  0  0  0  0  0  0  0  0  0  0  0
   63.0150   76.1535   89.3306 C   0  0  0  0  0  0  0  0  0  0  0  0
   62.3198   76.9979   88.4575 O   0  0  0  0  0  0  0  0  0  0  0  0
   62.5133   77.9145   88.4389 H   0  0  0  0  0  0  0  0  0  0  0  0
   60.5486   74.5950   88.6065 O   0  0  0  0  0  0  0  0  0  0  0  0
   61.7315   74.2330   88.5093 C   0  0  0  0  0  0  0  0  0  0  0  0
   62.0551   73.2808   87.5657 O   0  0  0  0  0  0  0  0  0  0  0  0
   62.9423   72.9932   87.4755 H   0  0  0  0  0  0  0  0  0  0  0  0
 32 33  2  0  0  0
 33 34  1  0  0  0
 33 24  1  0  0  0
 24 25  2  0  0  0
 25 26  1  0  0  0
 26 23  1  0  0  0
 23 22  1  0  0  0
 22  1  1  0  0  0
  1  2  2  0  0  0
  2  3  1  0  0  0
  3  4  2  0  0  0
  4  5  1  0  0  0
  5  7  1  0  0  0
  7  8  2  0  0  0
  8  9  1  0  0  0
  9 10  2  0  0  0
 10 13  1  0  0  0
 13 14  2  0  0  0
 13 15  2  0  0  0
 13 16  1  0  0  0
 16 17  1  0  0  0
 17 18  1  0  0  0
 18 19  1  0  0  0
 19 20  1  0  0  0
 20 21  1  0  0  0
 10 11  1  0  0  0
 11 12  2  0  0  0
  5  6  2  0  0  0
 26 27  2  0  0  0
 27 28  1  0  0  0
 28 29  2  0  0  0
 29 30  1  0  0  0
 29 24  1  0  0  0
  6  1  1  0  0  0
 12  7  1  0  0  0
 21 16  1  0  0  0
 34 35  1  0  0  0
 30 31  1  0  0  0
M  END
> <Activity>
125.3

> <minimizedAffinity>
-8.65244

$$$$
HIPS6297


 35 38  0  0  0  0  0  0  0  0999 V2000
   70.6073   78.9185   88.8058 C   0  0  0  0  0  0  0  0  0  0  0  0
   70.6337   80.1253   88.1480 C   0  0  0  0  0  0  0  0  0  0  0  0
   69.4533   80.5838   87.5645 C   0  0  0  0  0  0  0  0  0  0  0  0
   68.2863   79.8182   87.6594 C   0  0  0  0  0  0  0  0  0  0  0  0
   68.2585   78.6113   88.3168 C   0  0  0  0  0  0  0  0  0  0  0  0
   69.4466   78.1695   88.8933 C   0  0  0  0  0  0  0  0  0  0  0  0
   67.0448   77.8089   88.4210 C   0  0  0  0  0  0  0  0  0  0  0  0
   66.7213   76.8725   87.4578 C   0  0  0  0  0  0  0  0  0  0  0  0
   65.5582   76.1234   87.5838 C   0  0  0  0  0  0  0  0  0  0  0  0
   64.7041   76.2889   88.6577 C   0  0  0  0  0  0  0  0  0  0  0  0
   65.0160   77.2235   89.6301 C   0  0  0  0  0  0  0  0  0  0  0  0
   66.1679   77.9533   89.4885 C   0  0  0  0  0  0  0  0  0  0  0  0
   63.2545   75.3675   88.8289 S   0  0  0  0  0  0  0  0  0  0  0  0
   62.9033   74.6858   87.5379 O   0  0  0  0  0  0  0  0  0  0  0  0
   62.1248   76.3331   89.1281 O   0  0  0  0  0  0  0  0  0  0  0  0
   63.3182   74.2511   90.1324 N   0  0  0  0  0  0  0  0  0  0  0  0
   64.6222   74.2126   90.7582 C   0  0  0  0  0  0  0  0  0  0  0  0
   64.7788   72.8081   91.3481 C   0  0  0  0  0  0  0  0  0  0  0  0
   63.5157   72.5146   92.1198 C   0  0  0  0  0  0  0  0  0  0  0  0
   62.6955   73.7643   92.3771 C   0  0  0  0  0  0  0  0  0  0  0  0
   62.2496   74.3993   91.0625 C   0  0  0  0  0  0  0  0  0  0  0  0
   71.8590   78.4261   89.4304 C   0  0  0  0  0  0  0  0  0  0  0  0
   71.7662   77.0431   89.7092 O   0  0  0  0  0  0  0  0  0  0  0  0
   69.3876   76.6801   92.5014 C   0  0  0  0  0  0  0  0  0  0  0  0
   70.1510   77.2514   91.5074 C   0  0  0  0  0  0  0  0  0  0  0  0
   70.9868   76.5188   90.7111 C   0  0  0  0  0  0  0  0  0  0  0  0
   71.0518   75.1507   90.9308 C   0  0  0  0  0  0  0  0  0  0  0  0
   70.3005   74.5726   91.9124 C   0  0  0  0  0  0  0  0  0  0  0  0
   69.4711   75.3267   92.6968 C   0  0  0  0  0  0  0  0  0  0  0  0
   68.7216   74.6856   93.6898 O   0  0  0  0  0  0  0  0  0  0  0  0
   68.7939   73.7587   93.8063 H   0  0  0  0  0  0  0  0  0  0  0  0
   67.2693   77.3301   93.2801 O   0  0  0  0  0  0  0  0  0  0  0  0
   68.4991   77.4826   93.3425 C   0  0  0  0  0  0  0  0  0  0  0  0
   69.0044   78.4206   94.2182 O   0  0  0  0  0  0  0  0  0  0  0  0
   69.9301   78.5519   94.2812 H   0  0  0  0  0  0  0  0  0  0  0  0
 32 33  2  0  0  0
 33 34  1  0  0  0
 33 24  1  0  0  0
 24 25  2  0  0  0
 25 26  1  0  0  0
 26 23  1  0  0  0
 23 22  1  0  0  0
 22  1  1  0  0  0
  1  2  2  0  0  0
  2  3  1  0  0  0
  3  4  2  0  0  0
  4  5  1  0  0  0
  5  7  1  0  0  0
  7  8  2  0  0  0
  8  9  1  0  0  0
  9 10  2  0  0  0
 10 13  1  0  0  0
 13 14  2  0  0  0
 13 15  2  0  0  0
 13 16  1  0  0  0
 16 17  1  0  0  0
 17 18  1  0  0  0
 18 19  1  0  0  0
 19 20  1  0  0  0
 20 21  1  0  0  0
 10 11  1  0  0  0
 11 12  2  0  0  0
  5  6  2  0  0  0
 26 27  2  0  0  0
 27 28  1  0  0  0
 28 29  2  0  0  0
 29 30  1  0  0  0
 29 24  1  0  0  0
  6  1  1  0  0  0
 12  7  1  0  0  0
 21 16  1  0  0  0
 34 35  1  0  0  0
 30 31  1  0  0  0
M  END
> <Activity>
125.3

> <minimizedAffinity>
-8.59270

$$$$
HIPS6297


 35 38  0  0  0  0  0  0  0  0999 V2000
   70.9224   76.8536   90.2240 C   0  0  0  0  0  0  0  0  0  0  0  0
   71.8348   76.1931   91.0119 C   0  0  0  0  0  0  0  0  0  0  0  0
   71.3657   75.2047   91.8763 C   0  0  0  0  0  0  0  0  0  0  0  0
   69.9987   74.9114   91.9224 C   0  0  0  0  0  0  0  0  0  0  0  0
   69.0852   75.5711   91.1351 C   0  0  0  0  0  0  0  0  0  0  0  0
   69.5719   76.5548   90.2782 C   0  0  0  0  0  0  0  0  0  0  0  0
   67.6588   75.2689   91.1770 C   0  0  0  0  0  0  0  0  0  0  0  0
   66.7119   76.2645   91.0315 C   0  0  0  0  0  0  0  0  0  0  0  0
   65.3604   75.9463   91.0762 C   0  0  0  0  0  0  0  0  0  0  0  0
   64.9292   74.6468   91.2643 C   0  0  0  0  0  0  0  0  0  0  0  0
   65.8671   73.6392   91.4114 C   0  0  0  0  0  0  0  0  0  0  0  0
   67.1961   73.9726   91.3645 C   0  0  0  0  0  0  0  0  0  0  0  0
   63.2541   74.2343   91.3237 S   0  0  0  0  0  0  0  0  0  0  0  0
   62.6523   74.6464   92.6363 O   0  0  0  0  0  0  0  0  0  0  0  0
   63.1465   72.7238   91.2550 O   0  0  0  0  0  0  0  0  0  0  0  0
   62.3605   74.8613   89.9979 N   0  0  0  0  0  0  0  0  0  0  0  0
   63.2165   75.4316   88.9804 C   0  0  0  0  0  0  0  0  0  0  0  0
   62.3927   76.5145   88.2776 C   0  0  0  0  0  0  0  0  0  0  0  0
   61.0569   75.8984   87.9415 C   0  0  0  0  0  0  0  0  0  0  0  0
   61.0773   74.3857   88.0510 C   0  0  0  0  0  0  0  0  0  0  0  0
   61.3959   73.9506   89.4791 C   0  0  0  0  0  0  0  0  0  0  0  0
   71.4151   77.9047   89.3009 C   0  0  0  0  0  0  0  0  0  0  0  0
   70.5401   79.0152   89.2978 O   0  0  0  0  0  0  0  0  0  0  0  0
   67.6523   78.4403   87.0805 C   0  0  0  0  0  0  0  0  0  0  0  0
   68.6465   78.2180   88.0076 C   0  0  0  0  0  0  0  0  0  0  0  0
   69.5339   79.1895   88.3795 C   0  0  0  0  0  0  0  0  0  0  0  0
   69.4088   80.4378   87.7876 C   0  0  0  0  0  0  0  0  0  0  0  0
   68.4280   80.6707   86.8679 C   0  0  0  0  0  0  0  0  0  0  0  0
   67.5515   79.6825   86.5117 C   0  0  0  0  0  0  0  0  0  0  0  0
   66.5636   79.9724   85.5637 O   0  0  0  0  0  0  0  0  0  0  0  0
   66.5126   80.8289   85.1871 H   0  0  0  0  0  0  0  0  0  0  0  0
   66.3352   76.5484   87.5303 O   0  0  0  0  0  0  0  0  0  0  0  0
   66.7125   77.3865   86.6967 C   0  0  0  0  0  0  0  0  0  0  0  0
   66.2276   77.3008   85.4085 O   0  0  0  0  0  0  0  0  0  0  0  0
   66.4995   77.9234   84.7632 H   0  0  0  0  0  0  0  0  0  0  0  0
 32 33  2  0  0  0
 33 34  1  0  0  0
 33 24  1  0  0  0
 24 25  2  0  0  0
 25 26  1  0  0  0
 26 23  1  0  0  0
 23 22  1  0  0  0
 22  1  1  0  0  0
  1  2  2  0  0  0
  2  3  1  0  0  0
  3  4  2  0  0  0
  4  5  1  0  0  0
  5  7  1  0  0  0
  7  8  2  0  0  0
  8  9  1  0  0  0
  9 10  2  0  0  0
 10 13  1  0  0  0
 13 14  2  0  0  0
 13 15  2  0  0  0
 13 16  1  0  0  0
 16 17  1  0  0  0
 17 18  1  0  0  0
 18 19  1  0  0  0
 19 20  1  0  0  0
 20 21  1  0  0  0
 10 11  1  0  0  0
 11 12  2  0  0  0
  5  6  2  0  0  0
 26 27  2  0  0  0
 27 28  1  0  0  0
 28 29  2  0  0  0
 29 30  1  0  0  0
 29 24  1  0  0  0
  6  1  1  0  0  0
 12  7  1  0  0  0
 21 16  1  0  0  0
 34 35  1  0  0  0
 30 31  1  0  0  0
M  END
> <Activity>
125.3

> <minimizedAffinity>
-8.34171

$$$$
HIPS6297


 35 38  0  0  0  0  0  0  0  0999 V2000
   70.3150   78.8199   88.9245 C   0  0  0  0  0  0  0  0  0  0  0  0
   70.3633   79.9602   88.1583 C   0  0  0  0  0  0  0  0  0  0  0  0
   69.2025   80.3594   87.4970 C   0  0  0  0  0  0  0  0  0  0  0  0
   68.0326   79.6032   87.6255 C   0  0  0  0  0  0  0  0  0  0  0  0
   67.9830   78.4628   88.3914 C   0  0  0  0  0  0  0  0  0  0  0  0
   69.1517   78.0795   89.0443 C   0  0  0  0  0  0  0  0  0  0  0  0
   66.7661   77.6707   88.5310 C   0  0  0  0  0  0  0  0  0  0  0  0
   65.9317   77.8274   89.6212 C   0  0  0  0  0  0  0  0  0  0  0  0
   64.7796   77.0584   89.7271 C   0  0  0  0  0  0  0  0  0  0  0  0
   64.4387   76.1296   88.7621 C   0  0  0  0  0  0  0  0  0  0  0  0
   65.2656   75.9624   87.6645 C   0  0  0  0  0  0  0  0  0  0  0  0
   66.3980   76.7301   87.5775 C   0  0  0  0  0  0  0  0  0  0  0  0
   63.0118   75.1652   88.8789 S   0  0  0  0  0  0  0  0  0  0  0  0
   62.7647   74.4256   87.5957 O   0  0  0  0  0  0  0  0  0  0  0  0
   61.8349   76.1011   89.0709 O   0  0  0  0  0  0  0  0  0  0  0  0
   63.0297   74.0995   90.2255 N   0  0  0  0  0  0  0  0  0  0  0  0
   64.3565   73.9383   90.7797 C   0  0  0  0  0  0  0  0  0  0  0  0
   64.3923   72.5487   91.4223 C   0  0  0  0  0  0  0  0  0  0  0  0
   63.1529   72.4292   92.2746 C   0  0  0  0  0  0  0  0  0  0  0  0
   62.4922   73.7722   92.5205 C   0  0  0  0  0  0  0  0  0  0  0  0
   62.0414   74.4026   91.2054 C   0  0  0  0  0  0  0  0  0  0  0  0
   71.5458   78.3909   89.6321 C   0  0  0  0  0  0  0  0  0  0  0  0
   71.5000   77.0068   89.9170 O   0  0  0  0  0  0  0  0  0  0  0  0
   70.0056   74.6459   92.3210 C   0  0  0  0  0  0  0  0  0  0  0  0
   70.7854   75.1479   91.3025 C   0  0  0  0  0  0  0  0  0  0  0  0
   70.7430   76.4613   90.9247 C   0  0  0  0  0  0  0  0  0  0  0  0
   69.8747   77.3008   91.6070 C   0  0  0  0  0  0  0  0  0  0  0  0
   69.0970   76.8157   92.6179 C   0  0  0  0  0  0  0  0  0  0  0  0
   69.1569   75.4972   92.9781 C   0  0  0  0  0  0  0  0  0  0  0  0
   68.3386   75.0495   94.0215 O   0  0  0  0  0  0  0  0  0  0  0  0
   67.7653   75.6488   94.4575 H   0  0  0  0  0  0  0  0  0  0  0  0
   69.0327   72.5519   92.7506 O   0  0  0  0  0  0  0  0  0  0  0  0
   70.0666   73.2366   92.7098 C   0  0  0  0  0  0  0  0  0  0  0  0
   71.2664   72.6407   93.0375 O   0  0  0  0  0  0  0  0  0  0  0  0
   72.0593   73.1395   93.0132 H   0  0  0  0  0  0  0  0  0  0  0  0
 32 33  2  0  0  0
 33 34  1  0  0  0
 33 24  1  0  0  0
 24 25  2  0  0  0
 25 26  1  0  0  0
 26 23  1  0  0  0
 23 22  1  0  0  0
 22  1  1  0  0  0
  1  2  2  0  0  0
  2  3  1  0  0  0
  3  4  2  0  0  0
  4  5  1  0  0  0
  5  7  1  0  0  0
  7  8  2  0  0  0
  8  9  1  0  0  0
  9 10  2  0  0  0
 10 13  1  0  0  0
 13 14  2  0  0  0
 13 15  2  0  0  0
 13 16  1  0  0  0
 16 17  1  0  0  0
 17 18  1  0  0  0
 18 19  1  0  0  0
 19 20  1  0  0  0
 20 21  1  0  0  0
 10 11  1  0  0  0
 11 12  2  0  0  0
  5  6  2  0  0  0
 26 27  2  0  0  0
 27 28  1  0  0  0
 28 29  2  0  0  0
 29 30  1  0  0  0
 29 24  1  0  0  0
  6  1  1  0  0  0
 12  7  1  0  0  0
 21 16  1  0  0  0
 34 35  1  0  0  0
 30 31  1  0  0  0
M  END
> <Activity>
125.3

> <minimizedAffinity>
-8.26848

$$$$
HIPS6297


 35 38  0  0  0  0  0  0  0  0999 V2000
   67.7309   73.3363   91.8028 C   0  0  0  0  0  0  0  0  0  0  0  0
   68.5832   72.7743   92.7233 C   0  0  0  0  0  0  0  0  0  0  0  0
   69.7646   73.4499   93.0262 C   0  0  0  0  0  0  0  0  0  0  0  0
   70.0526   74.6657   92.3969 C   0  0  0  0  0  0  0  0  0  0  0  0
   69.2013   75.2288   91.4762 C   0  0  0  0  0  0  0  0  0  0  0  0
   68.0264   74.5399   91.1863 C   0  0  0  0  0  0  0  0  0  0  0  0
   69.4947   76.4969   90.8178 C   0  0  0  0  0  0  0  0  0  0  0  0
   68.7555   77.6322   91.0898 C   0  0  0  0  0  0  0  0  0  0  0  0
   69.0582   78.8258   90.4467 C   0  0  0  0  0  0  0  0  0  0  0  0
   70.0900   78.9128   89.5313 C   0  0  0  0  0  0  0  0  0  0  0  0
   70.8389   77.7832   89.2494 C   0  0  0  0  0  0  0  0  0  0  0  0
   70.5253   76.6144   89.8938 C   0  0  0  0  0  0  0  0  0  0  0  0
   70.4784   80.3874   88.7225 S   0  0  0  0  0  0  0  0  0  0  0  0
   71.9325   80.4209   88.3494 O   0  0  0  0  0  0  0  0  0  0  0  0
   70.2577   81.5241   89.7009 O   0  0  0  0  0  0  0  0  0  0  0  0
   69.4735   80.6931   87.3638 N   0  0  0  0  0  0  0  0  0  0  0  0
   68.2814   79.8732   87.3679 C   0  0  0  0  0  0  0  0  0  0  0  0
   67.8725   79.6951   85.9029 C   0  0  0  0  0  0  0  0  0  0  0  0
   67.8944   81.0661   85.2730 C   0  0  0  0  0  0  0  0  0  0  0  0
   67.9385   82.1739   86.3081 C   0  0  0  0  0  0  0  0  0  0  0  0
   69.2069   82.0763   87.1518 C   0  0  0  0  0  0  0  0  0  0  0  0
   66.4716   72.6237   91.4776 C   0  0  0  0  0  0  0  0  0  0  0  0
   65.3537   73.3411   91.9620 O   0  0  0  0  0  0  0  0  0  0  0  0
   64.4765   76.6794   90.6687 C   0  0  0  0  0  0  0  0  0  0  0  0
   65.1107   75.6832   91.3778 C   0  0  0  0  0  0  0  0  0  0  0  0
   64.7521   74.3677   91.2761 C   0  0  0  0  0  0  0  0  0  0  0  0
   63.7079   74.0482   90.4206 C   0  0  0  0  0  0  0  0  0  0  0  0
   63.0717   75.0259   89.7126 C   0  0  0  0  0  0  0  0  0  0  0  0
   63.4484   76.3358   89.8310 C   0  0  0  0  0  0  0  0  0  0  0  0
   62.7638   77.3005   89.0830 O   0  0  0  0  0  0  0  0  0  0  0  0
   62.0635   77.0435   88.5160 H   0  0  0  0  0  0  0  0  0  0  0  0
   65.4819   78.6448   89.8671 O   0  0  0  0  0  0  0  0  0  0  0  0
   64.8763   78.0816   90.7920 C   0  0  0  0  0  0  0  0  0  0  0  0
   64.5911   78.8046   91.9313 O   0  0  0  0  0  0  0  0  0  0  0  0
   64.1346   78.3987   92.6418 H   0  0  0  0  0  0  0  0  0  0  0  0
 32 33  2  0  0  0
 33 34  1  0  0  0
 33 24  1  0  0  0
 24 25  2  0  0  0
 25 26  1  0  0  0
 26 23  1  0  0  0
 23 22  1  0  0  0
 22  1  1  0  0  0
  1  2  2  0  0  0
  2  3  1  0  0  0
  3  4  2  0  0  0
  4  5  1  0  0  0
  5  7  1  0  0  0
  7  8  2  0  0  0
  8  9  1  0  0  0
  9 10  2  0  0  0
 10 13  1  0  0  0
 13 14  2  0  0  0
 13 15  2  0  0  0
 13 16  1  0  0  0
 16 17  1  0  0  0
 17 18  1  0  0  0
 18 19  1  0  0  0
 19 20  1  0  0  0
 20 21  1  0  0  0
 10 11  1  0  0  0
 11 12  2  0  0  0
  5  6  2  0  0  0
 26 27  2  0  0  0
 27 28  1  0  0  0
 28 29  2  0  0  0
 29 30  1  0  0  0
 29 24  1  0  0  0
  6  1  1  0  0  0
 12  7  1  0  0  0
 21 16  1  0  0  0
 34 35  1  0  0  0
 30 31  1  0  0  0
M  END
> <Activity>
125.3

> <minimizedAffinity>
-8.25084

$$$$
HIPS6297


 35 38  0  0  0  0  0  0  0  0999 V2000
   68.5672   73.9976   92.0597 C   0  0  0  0  0  0  0  0  0  0  0  0
   69.6300   73.2670   92.5355 C   0  0  0  0  0  0  0  0  0  0  0  0
   70.9127   73.7904   92.3779 C   0  0  0  0  0  0  0  0  0  0  0  0
   71.0876   75.0278   91.7490 C   0  0  0  0  0  0  0  0  0  0  0  0
   70.0257   75.7593   91.2728 C   0  0  0  0  0  0  0  0  0  0  0  0
   68.7524   75.2209   91.4390 C   0  0  0  0  0  0  0  0  0  0  0  0
   70.2010   77.0508   90.6178 C   0  0  0  0  0  0  0  0  0  0  0  0
   69.1917   77.9945   90.6151 C   0  0  0  0  0  0  0  0  0  0  0  0
   69.3877   79.2157   89.9827 C   0  0  0  0  0  0  0  0  0  0  0  0
   70.5774   79.5189   89.3480 C   0  0  0  0  0  0  0  0  0  0  0  0
   71.5972   78.5827   89.3431 C   0  0  0  0  0  0  0  0  0  0  0  0
   71.3852   77.3833   89.9723 C   0  0  0  0  0  0  0  0  0  0  0  0
   70.8369   81.0307   88.5564 S   0  0  0  0  0  0  0  0  0  0  0  0
   70.0783   82.1279   89.2459 O   0  0  0  0  0  0  0  0  0  0  0  0
   70.2649   80.9245   87.1565 O   0  0  0  0  0  0  0  0  0  0  0  0
   72.5001   81.4248   88.3897 N   0  0  0  0  0  0  0  0  0  0  0  0
   72.8727   82.5771   89.1814 C   0  0  0  0  0  0  0  0  0  0  0  0
   74.0567   83.2318   88.4640 C   0  0  0  0  0  0  0  0  0  0  0  0
   75.0391   82.1311   88.1476 C   0  0  0  0  0  0  0  0  0  0  0  0
   74.7494   80.8609   88.9243 C   0  0  0  0  0  0  0  0  0  0  0  0
   73.3704   80.3114   88.5685 C   0  0  0  0  0  0  0  0  0  0  0  0
   67.2000   73.4473   92.2259 C   0  0  0  0  0  0  0  0  0  0  0  0
   66.4780   73.5319   91.0133 O   0  0  0  0  0  0  0  0  0  0  0  0
   62.8891   73.9999   91.7116 C   0  0  0  0  0  0  0  0  0  0  0  0
   64.1949   73.5781   91.8325 C   0  0  0  0  0  0  0  0  0  0  0  0
   65.1651   73.9274   90.9346 C   0  0  0  0  0  0  0  0  0  0  0  0
   64.7974   74.7375   89.8703 C   0  0  0  0  0  0  0  0  0  0  0  0
   63.5071   75.1619   89.7394 C   0  0  0  0  0  0  0  0  0  0  0  0
   62.5535   74.7993   90.6508 C   0  0  0  0  0  0  0  0  0  0  0  0
   61.2446   75.2612   90.4714 O   0  0  0  0  0  0  0  0  0  0  0  0
   61.0367   75.8071   89.7387 H   0  0  0  0  0  0  0  0  0  0  0  0
   60.6622   73.7050   92.3972 O   0  0  0  0  0  0  0  0  0  0  0  0
   61.8660   73.6147   92.6840 C   0  0  0  0  0  0  0  0  0  0  0  0
   62.2135   73.1454   93.9334 O   0  0  0  0  0  0  0  0  0  0  0  0
   63.1168   73.0692   94.1708 H   0  0  0  0  0  0  0  0  0  0  0  0
 32 33  2  0  0  0
 33 34  1  0  0  0
 33 24  1  0  0  0
 24 25  2  0  0  0
 25 26  1  0  0  0
 26 23  1  0  0  0
 23 22  1  0  0  0
 22  1  1  0  0  0
  1  2  2  0  0  0
  2  3  1  0  0  0
  3  4  2  0  0  0
  4  5  1  0  0  0
  5  7  1  0  0  0
  7  8  2  0  0  0
  8  9  1  0  0  0
  9 10  2  0  0  0
 10 13  1  0  0  0
 13 14  2  0  0  0
 13 15  2  0  0  0
 13 16  1  0  0  0
 16 17  1  0  0  0
 17 18  1  0  0  0
 18 19  1  0  0  0
 19 20  1  0  0  0
 20 21  1  0  0  0
 10 11  1  0  0  0
 11 12  2  0  0  0
  5  6  2  0  0  0
 26 27  2  0  0  0
 27 28  1  0  0  0
 28 29  2  0  0  0
 29 30  1  0  0  0
 29 24  1  0  0  0
  6  1  1  0  0  0
 12  7  1  0  0  0
 21 16  1  0  0  0
 34 35  1  0  0  0
 30 31  1  0  0  0
M  END
> <Activity>
125.3

> <minimizedAffinity>
-8.18773

$$$$
HIPS6297


 35 38  0  0  0  0  0  0  0  0999 V2000
   70.8050   76.6382   90.2535 C   0  0  0  0  0  0  0  0  0  0  0  0
   71.7079   75.9732   91.0486 C   0  0  0  0  0  0  0  0  0  0  0  0
   71.2234   75.0098   91.9325 C   0  0  0  0  0  0  0  0  0  0  0  0
   69.8509   74.7449   91.9901 C   0  0  0  0  0  0  0  0  0  0  0  0
   68.9469   75.4092   91.1956 C   0  0  0  0  0  0  0  0  0  0  0  0
   69.4491   76.3677   90.3192 C   0  0  0  0  0  0  0  0  0  0  0  0
   67.5150   75.1366   91.2495 C   0  0  0  0  0  0  0  0  0  0  0  0
   66.5897   76.1621   91.2149 C   0  0  0  0  0  0  0  0  0  0  0  0
   65.2322   75.8717   91.2682 C   0  0  0  0  0  0  0  0  0  0  0  0
   64.7738   74.5709   91.3559 C   0  0  0  0  0  0  0  0  0  0  0  0
   65.6899   73.5335   91.3913 C   0  0  0  0  0  0  0  0  0  0  0  0
   67.0251   73.8398   91.3377 C   0  0  0  0  0  0  0  0  0  0  0  0
   63.0910   74.1926   91.4244 S   0  0  0  0  0  0  0  0  0  0  0  0
   62.4700   74.7591   92.6686 O   0  0  0  0  0  0  0  0  0  0  0  0
   62.9589   72.6857   91.5239 O   0  0  0  0  0  0  0  0  0  0  0  0
   62.2354   74.6790   90.0170 N   0  0  0  0  0  0  0  0  0  0  0  0
   62.9702   75.6512   89.2372 C   0  0  0  0  0  0  0  0  0  0  0  0
   61.9261   76.4897   88.4941 C   0  0  0  0  0  0  0  0  0  0  0  0
   60.9613   75.5211   87.8557 C   0  0  0  0  0  0  0  0  0  0  0  0
   61.5029   74.1047   87.8269 C   0  0  0  0  0  0  0  0  0  0  0  0
   61.7446   73.5886   89.2431 C   0  0  0  0  0  0  0  0  0  0  0  0
   71.3141   77.6627   89.3098 C   0  0  0  0  0  0  0  0  0  0  0  0
   70.4743   78.8002   89.3085 O   0  0  0  0  0  0  0  0  0  0  0  0
   68.1299   80.4224   86.9721 C   0  0  0  0  0  0  0  0  0  0  0  0
   69.1244   80.2519   87.9098 C   0  0  0  0  0  0  0  0  0  0  0  0
   69.4906   79.0196   88.3756 C   0  0  0  0  0  0  0  0  0  0  0  0
   68.8217   77.9143   87.8703 C   0  0  0  0  0  0  0  0  0  0  0  0
   67.8348   78.0700   86.9409 C   0  0  0  0  0  0  0  0  0  0  0  0
   67.4857   79.3136   86.4900 C   0  0  0  0  0  0  0  0  0  0  0  0
   66.4669   79.4193   85.5363 O   0  0  0  0  0  0  0  0  0  0  0  0
   66.0394   78.6478   85.2200 H   0  0  0  0  0  0  0  0  0  0  0  0
   68.1219   82.1366   85.3667 O   0  0  0  0  0  0  0  0  0  0  0  0
   67.7535   81.7504   86.4868 C   0  0  0  0  0  0  0  0  0  0  0  0
   66.9858   82.5979   87.2578 O   0  0  0  0  0  0  0  0  0  0  0  0
   66.6969   82.3262   88.1068 H   0  0  0  0  0  0  0  0  0  0  0  0
 32 33  2  0  0  0
 33 34  1  0  0  0
 33 24  1  0  0  0
 24 25  2  0  0  0
 25 26  1  0  0  0
 26 23  1  0  0  0
 23 22  1  0  0  0
 22  1  1  0  0  0
  1  2  2  0  0  0
  2  3  1  0  0  0
  3  4  2  0  0  0
  4  5  1  0  0  0
  5  7  1  0  0  0
  7  8  2  0  0  0
  8  9  1  0  0  0
  9 10  2  0  0  0
 10 13  1  0  0  0
 13 14  2  0  0  0
 13 15  2  0  0  0
 13 16  1  0  0  0
 16 17  1  0  0  0
 17 18  1  0  0  0
 18 19  1  0  0  0
 19 20  1  0  0  0
 20 21  1  0  0  0
 10 11  1  0  0  0
 11 12  2  0  0  0
  5  6  2  0  0  0
 26 27  2  0  0  0
 27 28  1  0  0  0
 28 29  2  0  0  0
 29 30  1  0  0  0
 29 24  1  0  0  0
  6  1  1  0  0  0
 12  7  1  0  0  0
 21 16  1  0  0  0
 34 35  1  0  0  0
 30 31  1  0  0  0
M  END
> <Activity>
125.3

> <minimizedAffinity>
-8.17170

$$$$
HIPS6249


 30 33  0  0  0  0  0  0  0  0999 V2000
   69.4624   75.7246   91.3204 C   0  0  0  0  0  0  0  0  0  0  0  0
   69.4521   76.9350   92.0263 C   0  0  0  0  0  0  0  0  0  0  0  0
   68.2572   77.4448   92.5614 C   0  0  0  0  0  0  0  0  0  0  0  0
   67.0672   76.7154   92.3848 C   0  0  0  0  0  0  0  0  0  0  0  0
   67.0617   75.4931   91.6882 C   0  0  0  0  0  0  0  0  0  0  0  0
   68.2707   75.0031   91.1663 C   0  0  0  0  0  0  0  0  0  0  0  0
   68.2526   78.7335   93.3013 C   0  0  0  0  0  0  0  0  0  0  0  0
   68.9059   79.0169   94.4883 C   0  0  0  0  0  0  0  0  0  0  0  0
   68.6063   80.3301   94.7813 C   0  0  0  0  0  0  0  0  0  0  0  0
   67.8292   80.8273   93.8476 O   0  0  0  0  0  0  0  0  0  0  0  0
   67.5971   79.9016   92.9461 C   0  0  0  0  0  0  0  0  0  0  0  0
   65.7984   74.7319   91.5047 C   0  0  0  0  0  0  0  0  0  0  0  0
   65.6437   73.3563   91.5121 C   0  0  0  0  0  0  0  0  0  0  0  0
   64.3012   73.1250   91.3011 C   0  0  0  0  0  0  0  0  0  0  0  0
   63.6690   74.2678   91.1693 O   0  0  0  0  0  0  0  0  0  0  0  0
   64.5322   75.2503   91.2847 C   0  0  0  0  0  0  0  0  0  0  0  0
   70.7524   75.2045   90.7407 C   0  0  0  0  0  0  0  0  0  0  0  0
   71.0386   75.8369   89.4922 O   0  0  0  0  0  0  0  0  0  0  0  0
   69.0141   78.7170   88.2029 C   0  0  0  0  0  0  0  0  0  0  0  0
   69.3891   77.4018   88.5325 C   0  0  0  0  0  0  0  0  0  0  0  0
   70.6366   77.1320   89.1254 C   0  0  0  0  0  0  0  0  0  0  0  0
   71.5168   78.1879   89.3689 C   0  0  0  0  0  0  0  0  0  0  0  0
   71.1696   79.4940   89.0241 C   0  0  0  0  0  0  0  0  0  0  0  0
   69.9361   79.7707   88.4255 C   0  0  0  0  0  0  0  0  0  0  0  0
   69.6840   81.0887   88.0384 O   0  0  0  0  0  0  0  0  0  0  0  0
   70.3207   81.7557   88.2045 H   0  0  0  0  0  0  0  0  0  0  0  0
   67.0694   80.0479   87.8363 O   0  0  0  0  0  0  0  0  0  0  0  0
   67.6529   78.9439   87.6676 C   0  0  0  0  0  0  0  0  0  0  0  0
   66.9792   77.9081   87.0255 O   0  0  0  0  0  0  0  0  0  0  0  0
   67.4038   77.0831   86.8948 H   0  0  0  0  0  0  0  0  0  0  0  0
 27 28  2  0  0  0
 28 29  1  0  0  0
 28 19  1  0  0  0
 19 20  2  0  0  0
 20 21  1  0  0  0
 21 18  1  0  0  0
 18 17  1  0  0  0
 17  1  1  0  0  0
  1  2  2  0  0  0
  2  3  1  0  0  0
  3  7  1  0  0  0
  7  8  1  0  0  0
  8  9  2  0  0  0
  9 10  1  0  0  0
 10 11  1  0  0  0
  3  4  2  0  0  0
  4  5  1  0  0  0
  5 12  1  0  0  0
 12 13  1  0  0  0
 13 14  2  0  0  0
 14 15  1  0  0  0
 15 16  1  0  0  0
  5  6  2  0  0  0
 21 22  2  0  0  0
 22 23  1  0  0  0
 23 24  2  0  0  0
 24 25  1  0  0  0
 24 19  1  0  0  0
  6  1  1  0  0  0
 11  7  2  0  0  0
 16 12  2  0  0  0
 29 30  1  0  0  0
 25 26  1  0  0  0
M  END
> <Activity>
233.5

> <minimizedAffinity>
-9.14378

$$$$
HIPS6249


 30 33  0  0  0  0  0  0  0  0999 V2000
   68.0765   77.3656   88.9492 C   0  0  0  0  0  0  0  0  0  0  0  0
   69.0817   78.3006   88.6687 C   0  0  0  0  0  0  0  0  0  0  0  0
   70.3241   78.2381   89.3220 C   0  0  0  0  0  0  0  0  0  0  0  0
   70.5485   77.2139   90.2600 C   0  0  0  0  0  0  0  0  0  0  0  0
   69.5540   76.2604   90.5455 C   0  0  0  0  0  0  0  0  0  0  0  0
   68.3216   76.3427   89.8755 C   0  0  0  0  0  0  0  0  0  0  0  0
   71.3821   79.2385   89.0256 C   0  0  0  0  0  0  0  0  0  0  0  0
   72.7491   79.0230   88.9930 C   0  0  0  0  0  0  0  0  0  0  0  0
   73.3166   80.2388   88.6768 C   0  0  0  0  0  0  0  0  0  0  0  0
   72.3761   81.1410   88.5213 O   0  0  0  0  0  0  0  0  0  0  0  0
   71.2066   80.5791   88.7216 C   0  0  0  0  0  0  0  0  0  0  0  0
   69.8003   75.1842   91.5404 C   0  0  0  0  0  0  0  0  0  0  0  0
   69.0119   74.8585   92.6307 C   0  0  0  0  0  0  0  0  0  0  0  0
   69.6439   73.8034   93.2533 C   0  0  0  0  0  0  0  0  0  0  0  0
   70.7425   73.4976   92.6033 O   0  0  0  0  0  0  0  0  0  0  0  0
   70.8689   74.3025   91.5739 C   0  0  0  0  0  0  0  0  0  0  0  0
   66.7456   77.4611   88.2489 C   0  0  0  0  0  0  0  0  0  0  0  0
   65.7010   77.7427   89.1817 O   0  0  0  0  0  0  0  0  0  0  0  0
   64.6761   74.5463   90.8515 C   0  0  0  0  0  0  0  0  0  0  0  0
   65.4341   75.4726   90.1124 C   0  0  0  0  0  0  0  0  0  0  0  0
   64.9643   76.7808   89.8926 C   0  0  0  0  0  0  0  0  0  0  0  0
   63.7183   77.1508   90.4023 C   0  0  0  0  0  0  0  0  0  0  0  0
   62.9439   76.2357   91.1152 C   0  0  0  0  0  0  0  0  0  0  0  0
   63.3982   74.9304   91.3302 C   0  0  0  0  0  0  0  0  0  0  0  0
   62.5406   74.0450   91.9869 O   0  0  0  0  0  0  0  0  0  0  0  0
   61.7036   74.3398   92.2877 H   0  0  0  0  0  0  0  0  0  0  0  0
   66.5174   73.0644   91.1696 O   0  0  0  0  0  0  0  0  0  0  0  0
   65.2674   73.2172   91.1254 C   0  0  0  0  0  0  0  0  0  0  0  0
   64.4394   72.1074   91.2730 O   0  0  0  0  0  0  0  0  0  0  0  0
   63.5086   72.2099   91.2417 H   0  0  0  0  0  0  0  0  0  0  0  0
 27 28  2  0  0  0
 28 29  1  0  0  0
 28 19  1  0  0  0
 19 20  2  0  0  0
 20 21  1  0  0  0
 21 18  1  0  0  0
 18 17  1  0  0  0
 17  1  1  0  0  0
  1  2  2  0  0  0
  2  3  1  0  0  0
  3  7  1  0  0  0
  7  8  1  0  0  0
  8  9  2  0  0  0
  9 10  1  0  0  0
 10 11  1  0  0  0
  3  4  2  0  0  0
  4  5  1  0  0  0
  5 12  1  0  0  0
 12 13  1  0  0  0
 13 14  2  0  0  0
 14 15  1  0  0  0
 15 16  1  0  0  0
  5  6  2  0  0  0
 21 22  2  0  0  0
 22 23  1  0  0  0
 23 24  2  0  0  0
 24 25  1  0  0  0
 24 19  1  0  0  0
  6  1  1  0  0  0
 11  7  2  0  0  0
 16 12  2  0  0  0
 29 30  1  0  0  0
 25 26  1  0  0  0
M  END
> <Activity>
233.5

> <minimizedAffinity>
-9.09770

$$$$
HIPS6249


 30 33  0  0  0  0  0  0  0  0999 V2000
   69.5028   75.7889   91.2398 C   0  0  0  0  0  0  0  0  0  0  0  0
   68.3153   75.0657   91.0666 C   0  0  0  0  0  0  0  0  0  0  0  0
   67.1086   75.5210   91.6241 C   0  0  0  0  0  0  0  0  0  0  0  0
   67.1080   76.7231   92.3550 C   0  0  0  0  0  0  0  0  0  0  0  0
   68.2892   77.4673   92.5292 C   0  0  0  0  0  0  0  0  0  0  0  0
   69.4819   76.9923   91.9582 C   0  0  0  0  0  0  0  0  0  0  0  0
   65.8549   74.7440   91.4437 C   0  0  0  0  0  0  0  0  0  0  0  0
   65.7188   73.3665   91.4470 C   0  0  0  0  0  0  0  0  0  0  0  0
   64.3783   73.1180   91.2432 C   0  0  0  0  0  0  0  0  0  0  0  0
   63.7291   74.2526   91.1253 O   0  0  0  0  0  0  0  0  0  0  0  0
   64.5794   75.2462   91.2403 C   0  0  0  0  0  0  0  0  0  0  0  0
   68.2782   78.7345   93.3057 C   0  0  0  0  0  0  0  0  0  0  0  0
   68.9192   78.9834   94.5072 C   0  0  0  0  0  0  0  0  0  0  0  0
   68.6160   80.2875   94.8353 C   0  0  0  0  0  0  0  0  0  0  0  0
   67.8432   80.8096   93.9116 O   0  0  0  0  0  0  0  0  0  0  0  0
   67.6198   79.9101   92.9817 C   0  0  0  0  0  0  0  0  0  0  0  0
   70.7889   75.2737   90.6470 C   0  0  0  0  0  0  0  0  0  0  0  0
   71.0666   75.9165   89.4019 O   0  0  0  0  0  0  0  0  0  0  0  0
   69.0308   78.8098   88.1605 C   0  0  0  0  0  0  0  0  0  0  0  0
   69.4071   77.4916   88.4767 C   0  0  0  0  0  0  0  0  0  0  0  0
   70.6626   77.2148   89.0490 C   0  0  0  0  0  0  0  0  0  0  0  0
   71.5495   78.2669   89.2852 C   0  0  0  0  0  0  0  0  0  0  0  0
   71.2007   79.5760   88.9535 C   0  0  0  0  0  0  0  0  0  0  0  0
   69.9591   79.8595   88.3753 C   0  0  0  0  0  0  0  0  0  0  0  0
   69.7048   81.1805   87.9999 O   0  0  0  0  0  0  0  0  0  0  0  0
   70.3459   81.8448   88.1601 H   0  0  0  0  0  0  0  0  0  0  0  0
   67.1481   80.1934   87.6825 O   0  0  0  0  0  0  0  0  0  0  0  0
   67.6622   79.0435   87.6474 C   0  0  0  0  0  0  0  0  0  0  0  0
   66.9056   77.9726   87.1786 O   0  0  0  0  0  0  0  0  0  0  0  0
   67.2782   77.1134   87.1483 H   0  0  0  0  0  0  0  0  0  0  0  0
 27 28  2  0  0  0
 28 29  1  0  0  0
 28 19  1  0  0  0
 19 20  2  0  0  0
 20 21  1  0  0  0
 21 18  1  0  0  0
 18 17  1  0  0  0
 17  1  1  0  0  0
  1  2  2  0  0  0
  2  3  1  0  0  0
  3  7  1  0  0  0
  7  8  1  0  0  0
  8  9  2  0  0  0
  9 10  1  0  0  0
 10 11  1  0  0  0
  3  4  2  0  0  0
  4  5  1  0  0  0
  5 12  1  0  0  0
 12 13  1  0  0  0
 13 14  2  0  0  0
 14 15  1  0  0  0
 15 16  1  0  0  0
  5  6  2  0  0  0
 21 22  2  0  0  0
 22 23  1  0  0  0
 23 24  2  0  0  0
 24 25  1  0  0  0
 24 19  1  0  0  0
  6  1  1  0  0  0
 11  7  2  0  0  0
 16 12  2  0  0  0
 29 30  1  0  0  0
 25 26  1  0  0  0
M  END
> <Activity>
233.5

> <minimizedAffinity>
-9.08803

$$$$
HIPS6249


 30 33  0  0  0  0  0  0  0  0999 V2000
   68.5224   76.0769   89.1680 C   0  0  0  0  0  0  0  0  0  0  0  0
   68.6680   77.2402   88.4008 C   0  0  0  0  0  0  0  0  0  0  0  0
   67.5491   77.8691   87.8293 C   0  0  0  0  0  0  0  0  0  0  0  0
   66.2737   77.3164   88.0460 C   0  0  0  0  0  0  0  0  0  0  0  0
   66.1084   76.1550   88.8229 C   0  0  0  0  0  0  0  0  0  0  0  0
   67.2431   75.5475   89.3866 C   0  0  0  0  0  0  0  0  0  0  0  0
   67.7125   79.0977   87.0095 C   0  0  0  0  0  0  0  0  0  0  0  0
   68.5738   80.1541   87.2511 C   0  0  0  0  0  0  0  0  0  0  0  0
   68.3682   81.0524   86.2259 C   0  0  0  0  0  0  0  0  0  0  0  0
   67.4522   80.5901   85.4073 O   0  0  0  0  0  0  0  0  0  0  0  0
   67.0377   79.4234   85.8437 C   0  0  0  0  0  0  0  0  0  0  0  0
   64.7568   75.5775   89.0432 C   0  0  0  0  0  0  0  0  0  0  0  0
   63.6843   75.6044   88.1683 C   0  0  0  0  0  0  0  0  0  0  0  0
   62.6555   74.9486   88.8099 C   0  0  0  0  0  0  0  0  0  0  0  0
   63.0549   74.5471   89.9941 O   0  0  0  0  0  0  0  0  0  0  0  0
   64.3058   74.9059   90.1684 C   0  0  0  0  0  0  0  0  0  0  0  0
   69.7378   75.4095   89.7580 C   0  0  0  0  0  0  0  0  0  0  0  0
   69.6235   75.3126   91.1787 O   0  0  0  0  0  0  0  0  0  0  0  0
   67.8642   78.2614   92.6838 C   0  0  0  0  0  0  0  0  0  0  0  0
   68.1970   77.2339   91.7824 C   0  0  0  0  0  0  0  0  0  0  0  0
   69.2741   76.3657   92.0402 C   0  0  0  0  0  0  0  0  0  0  0  0
   70.0304   76.5456   93.1999 C   0  0  0  0  0  0  0  0  0  0  0  0
   69.7285   77.5758   94.0904 C   0  0  0  0  0  0  0  0  0  0  0  0
   68.6660   78.4497   93.8376 C   0  0  0  0  0  0  0  0  0  0  0  0
   68.4660   79.5035   94.7321 O   0  0  0  0  0  0  0  0  0  0  0  0
   69.0191   79.5918   95.4833 H   0  0  0  0  0  0  0  0  0  0  0  0
   66.6189   80.2947   92.7340 O   0  0  0  0  0  0  0  0  0  0  0  0
   66.6643   79.0805   92.4001 C   0  0  0  0  0  0  0  0  0  0  0  0
   65.5457   78.4919   91.8159 O   0  0  0  0  0  0  0  0  0  0  0  0
   65.5688   77.5898   91.5639 H   0  0  0  0  0  0  0  0  0  0  0  0
 27 28  2  0  0  0
 28 29  1  0  0  0
 28 19  1  0  0  0
 19 20  2  0  0  0
 20 21  1  0  0  0
 21 18  1  0  0  0
 18 17  1  0  0  0
 17  1  1  0  0  0
  1  2  2  0  0  0
  2  3  1  0  0  0
  3  7  1  0  0  0
  7  8  1  0  0  0
  8  9  2  0  0  0
  9 10  1  0  0  0
 10 11  1  0  0  0
  3  4  2  0  0  0
  4  5  1  0  0  0
  5 12  1  0  0  0
 12 13  1  0  0  0
 13 14  2  0  0  0
 14 15  1  0  0  0
 15 16  1  0  0  0
  5  6  2  0  0  0
 21 22  2  0  0  0
 22 23  1  0  0  0
 23 24  2  0  0  0
 24 25  1  0  0  0
 24 19  1  0  0  0
  6  1  1  0  0  0
 11  7  2  0  0  0
 16 12  2  0  0  0
 29 30  1  0  0  0
 25 26  1  0  0  0
M  END
> <Activity>
233.5

> <minimizedAffinity>
-9.02605

$$$$
HIPS6249


 30 33  0  0  0  0  0  0  0  0999 V2000
   69.6195   75.9044   91.2265 C   0  0  0  0  0  0  0  0  0  0  0  0
   69.5781   77.0894   91.9730 C   0  0  0  0  0  0  0  0  0  0  0  0
   68.3750   77.5377   92.5437 C   0  0  0  0  0  0  0  0  0  0  0  0
   67.2089   76.7721   92.3613 C   0  0  0  0  0  0  0  0  0  0  0  0
   67.2351   75.5741   91.6239 C   0  0  0  0  0  0  0  0  0  0  0  0
   68.4518   75.1458   91.0668 C   0  0  0  0  0  0  0  0  0  0  0  0
   68.3371   78.8001   93.3267 C   0  0  0  0  0  0  0  0  0  0  0  0
   68.9919   79.0639   94.5174 C   0  0  0  0  0  0  0  0  0  0  0  0
   68.6542   80.3566   94.8569 C   0  0  0  0  0  0  0  0  0  0  0  0
   67.8537   80.8602   93.9468 O   0  0  0  0  0  0  0  0  0  0  0  0
   67.6423   79.9584   93.0164 C   0  0  0  0  0  0  0  0  0  0  0  0
   65.9968   74.7743   91.4346 C   0  0  0  0  0  0  0  0  0  0  0  0
   65.8754   73.3966   91.4930 C   0  0  0  0  0  0  0  0  0  0  0  0
   64.5459   73.1230   91.2526 C   0  0  0  0  0  0  0  0  0  0  0  0
   63.8904   74.2431   91.0564 O   0  0  0  0  0  0  0  0  0  0  0  0
   64.7256   75.2511   91.1571 C   0  0  0  0  0  0  0  0  0  0  0  0
   70.9173   75.4507   90.6094 C   0  0  0  0  0  0  0  0  0  0  0  0
   71.1343   76.0960   89.3535 O   0  0  0  0  0  0  0  0  0  0  0  0
   71.5606   79.7925   88.8951 C   0  0  0  0  0  0  0  0  0  0  0  0
   71.8542   78.4519   89.2043 C   0  0  0  0  0  0  0  0  0  0  0  0
   70.8750   77.4490   89.0787 C   0  0  0  0  0  0  0  0  0  0  0  0
   69.5907   77.8008   88.6591 C   0  0  0  0  0  0  0  0  0  0  0  0
   69.2775   79.1295   88.3735 C   0  0  0  0  0  0  0  0  0  0  0  0
   70.2413   80.1346   88.5049 C   0  0  0  0  0  0  0  0  0  0  0  0
   69.8400   81.4524   88.2747 O   0  0  0  0  0  0  0  0  0  0  0  0
   68.9576   81.6354   88.0180 H   0  0  0  0  0  0  0  0  0  0  0  0
   73.8625   80.4105   88.9761 O   0  0  0  0  0  0  0  0  0  0  0  0
   72.6589   80.7828   88.9592 C   0  0  0  0  0  0  0  0  0  0  0  0
   72.3634   82.1393   89.0669 O   0  0  0  0  0  0  0  0  0  0  0  0
   71.4717   82.4269   89.0554 H   0  0  0  0  0  0  0  0  0  0  0  0
 27 28  2  0  0  0
 28 29  1  0  0  0
 28 19  1  0  0  0
 19 20  2  0  0  0
 20 21  1  0  0  0
 21 18  1  0  0  0
 18 17  1  0  0  0
 17  1  1  0  0  0
  1  2  2  0  0  0
  2  3  1  0  0  0
  3  7  1  0  0  0
  7  8  1  0  0  0
  8  9  2  0  0  0
  9 10  1  0  0  0
 10 11  1  0  0  0
  3  4  2  0  0  0
  4  5  1  0  0  0
  5 12  1  0  0  0
 12 13  1  0  0  0
 13 14  2  0  0  0
 14 15  1  0  0  0
 15 16  1  0  0  0
  5  6  2  0  0  0
 21 22  2  0  0  0
 22 23  1  0  0  0
 23 24  2  0  0  0
 24 25  1  0  0  0
 24 19  1  0  0  0
  6  1  1  0  0  0
 11  7  2  0  0  0
 16 12  2  0  0  0
 29 30  1  0  0  0
 25 26  1  0  0  0
M  END
> <Activity>
233.5

> <minimizedAffinity>
-9.00905

$$$$
HIPS6249


 30 33  0  0  0  0  0  0  0  0999 V2000
   68.5407   76.0344   89.1834 C   0  0  0  0  0  0  0  0  0  0  0  0
   67.2643   75.4966   89.3949 C   0  0  0  0  0  0  0  0  0  0  0  0
   66.1267   76.1048   88.8379 C   0  0  0  0  0  0  0  0  0  0  0  0
   66.2890   77.2619   88.0543 C   0  0  0  0  0  0  0  0  0  0  0  0
   67.5645   77.8088   87.8229 C   0  0  0  0  0  0  0  0  0  0  0  0
   68.6864   77.1792   88.3880 C   0  0  0  0  0  0  0  0  0  0  0  0
   64.7753   75.5336   89.0739 C   0  0  0  0  0  0  0  0  0  0  0  0
   64.3682   74.7721   90.1557 C   0  0  0  0  0  0  0  0  0  0  0  0
   63.0406   74.4759   89.9322 C   0  0  0  0  0  0  0  0  0  0  0  0
   62.6500   75.0139   88.8004 O   0  0  0  0  0  0  0  0  0  0  0  0
   63.6604   75.6545   88.2598 C   0  0  0  0  0  0  0  0  0  0  0  0
   67.7246   79.0333   86.9961 C   0  0  0  0  0  0  0  0  0  0  0  0
   68.5973   80.0843   87.2204 C   0  0  0  0  0  0  0  0  0  0  0  0
   68.3814   80.9811   86.1960 C   0  0  0  0  0  0  0  0  0  0  0  0
   67.4445   80.5259   85.3973 O   0  0  0  0  0  0  0  0  0  0  0  0
   67.0280   79.3639   85.8446 C   0  0  0  0  0  0  0  0  0  0  0  0
   69.7454   75.3752   89.8039 C   0  0  0  0  0  0  0  0  0  0  0  0
   69.6029   75.2915   91.2228 O   0  0  0  0  0  0  0  0  0  0  0  0
   67.8476   78.2648   92.6839 C   0  0  0  0  0  0  0  0  0  0  0  0
   68.1801   77.2246   91.7970 C   0  0  0  0  0  0  0  0  0  0  0  0
   69.2540   76.3568   92.0695 C   0  0  0  0  0  0  0  0  0  0  0  0
   70.0074   76.5498   93.2290 C   0  0  0  0  0  0  0  0  0  0  0  0
   69.7058   77.5924   94.1049 C   0  0  0  0  0  0  0  0  0  0  0  0
   68.6466   78.4659   93.8375 C   0  0  0  0  0  0  0  0  0  0  0  0
   68.4470   79.5320   94.7175 O   0  0  0  0  0  0  0  0  0  0  0  0
   68.9981   79.6286   95.4691 H   0  0  0  0  0  0  0  0  0  0  0  0
   66.5996   80.2967   92.7225 O   0  0  0  0  0  0  0  0  0  0  0  0
   66.6510   79.0836   92.3859 C   0  0  0  0  0  0  0  0  0  0  0  0
   65.5412   78.4955   91.7845 O   0  0  0  0  0  0  0  0  0  0  0  0
   65.5688   77.5941   91.5303 H   0  0  0  0  0  0  0  0  0  0  0  0
 27 28  2  0  0  0
 28 29  1  0  0  0
 28 19  1  0  0  0
 19 20  2  0  0  0
 20 21  1  0  0  0
 21 18  1  0  0  0
 18 17  1  0  0  0
 17  1  1  0  0  0
  1  2  2  0  0  0
  2  3  1  0  0  0
  3  7  1  0  0  0
  7  8  1  0  0  0
  8  9  2  0  0  0
  9 10  1  0  0  0
 10 11  1  0  0  0
  3  4  2  0  0  0
  4  5  1  0  0  0
  5 12  1  0  0  0
 12 13  1  0  0  0
 13 14  2  0  0  0
 14 15  1  0  0  0
 15 16  1  0  0  0
  5  6  2  0  0  0
 21 22  2  0  0  0
 22 23  1  0  0  0
 23 24  2  0  0  0
 24 25  1  0  0  0
 24 19  1  0  0  0
  6  1  1  0  0  0
 11  7  2  0  0  0
 16 12  2  0  0  0
 29 30  1  0  0  0
 25 26  1  0  0  0
M  END
> <Activity>
233.5

> <minimizedAffinity>
-8.95569

$$$$
HIPS6249


 30 33  0  0  0  0  0  0  0  0999 V2000
   69.6988   76.0146   91.2871 C   0  0  0  0  0  0  0  0  0  0  0  0
   68.5470   75.2374   91.1067 C   0  0  0  0  0  0  0  0  0  0  0  0
   67.3199   75.6300   91.6670 C   0  0  0  0  0  0  0  0  0  0  0  0
   67.2618   76.8244   92.4083 C   0  0  0  0  0  0  0  0  0  0  0  0
   68.4062   77.6223   92.5899 C   0  0  0  0  0  0  0  0  0  0  0  0
   69.6204   77.2094   92.0158 C   0  0  0  0  0  0  0  0  0  0  0  0
   66.1045   74.7959   91.4788 C   0  0  0  0  0  0  0  0  0  0  0  0
   66.0260   73.4144   91.5173 C   0  0  0  0  0  0  0  0  0  0  0  0
   64.7025   73.1039   91.2890 C   0  0  0  0  0  0  0  0  0  0  0  0
   64.0096   74.2064   91.1241 O   0  0  0  0  0  0  0  0  0  0  0  0
   64.8146   75.2379   91.2314 C   0  0  0  0  0  0  0  0  0  0  0  0
   68.3347   78.8808   93.3772 C   0  0  0  0  0  0  0  0  0  0  0  0
   68.9588   79.1477   94.5838 C   0  0  0  0  0  0  0  0  0  0  0  0
   68.5956   80.4338   94.9217 C   0  0  0  0  0  0  0  0  0  0  0  0
   67.8039   80.9286   93.9991 O   0  0  0  0  0  0  0  0  0  0  0  0
   67.6252   80.0282   93.0604 C   0  0  0  0  0  0  0  0  0  0  0  0
   71.0082   75.5662   90.6911 C   0  0  0  0  0  0  0  0  0  0  0  0
   71.2313   76.1938   89.4274 O   0  0  0  0  0  0  0  0  0  0  0  0
   71.6506   79.8821   88.9014 C   0  0  0  0  0  0  0  0  0  0  0  0
   71.9478   78.5474   89.2317 C   0  0  0  0  0  0  0  0  0  0  0  0
   70.9686   77.5416   89.1309 C   0  0  0  0  0  0  0  0  0  0  0  0
   69.6809   77.8850   88.7149 C   0  0  0  0  0  0  0  0  0  0  0  0
   69.3643   79.2083   88.4084 C   0  0  0  0  0  0  0  0  0  0  0  0
   70.3281   80.2162   88.5151 C   0  0  0  0  0  0  0  0  0  0  0  0
   69.9238   81.5295   88.2650 O   0  0  0  0  0  0  0  0  0  0  0  0
   69.0394   81.7072   88.0117 H   0  0  0  0  0  0  0  0  0  0  0  0
   73.9484   80.5137   88.8074 O   0  0  0  0  0  0  0  0  0  0  0  0
   72.7484   80.8743   88.9400 C   0  0  0  0  0  0  0  0  0  0  0  0
   72.4630   82.2142   89.1895 O   0  0  0  0  0  0  0  0  0  0  0  0
   71.5741   82.4931   89.2897 H   0  0  0  0  0  0  0  0  0  0  0  0
 27 28  2  0  0  0
 28 29  1  0  0  0
 28 19  1  0  0  0
 19 20  2  0  0  0
 20 21  1  0  0  0
 21 18  1  0  0  0
 18 17  1  0  0  0
 17  1  1  0  0  0
  1  2  2  0  0  0
  2  3  1  0  0  0
  3  7  1  0  0  0
  7  8  1  0  0  0
  8  9  2  0  0  0
  9 10  1  0  0  0
 10 11  1  0  0  0
  3  4  2  0  0  0
  4  5  1  0  0  0
  5 12  1  0  0  0
 12 13  1  0  0  0
 13 14  2  0  0  0
 14 15  1  0  0  0
 15 16  1  0  0  0
  5  6  2  0  0  0
 21 22  2  0  0  0
 22 23  1  0  0  0
 23 24  2  0  0  0
 24 25  1  0  0  0
 24 19  1  0  0  0
  6  1  1  0  0  0
 11  7  2  0  0  0
 16 12  2  0  0  0
 29 30  1  0  0  0
 25 26  1  0  0  0
M  END
> <Activity>
233.5

> <minimizedAffinity>
-8.93002

$$$$
HIPS6249


 30 33  0  0  0  0  0  0  0  0999 V2000
   68.0909   78.0258   89.4522 C   0  0  0  0  0  0  0  0  0  0  0  0
   68.2516   76.9249   90.3039 C   0  0  0  0  0  0  0  0  0  0  0  0
   69.5259   76.5514   90.7631 C   0  0  0  0  0  0  0  0  0  0  0  0
   70.6423   77.3068   90.3605 C   0  0  0  0  0  0  0  0  0  0  0  0
   70.4975   78.4217   89.5146 C   0  0  0  0  0  0  0  0  0  0  0  0
   69.2119   78.7767   89.0725 C   0  0  0  0  0  0  0  0  0  0  0  0
   69.6894   75.3772   91.6592 C   0  0  0  0  0  0  0  0  0  0  0  0
   68.8124   74.9471   92.6400 C   0  0  0  0  0  0  0  0  0  0  0  0
   69.3904   73.8282   93.2005 C   0  0  0  0  0  0  0  0  0  0  0  0
   70.5370   73.5787   92.6124 O   0  0  0  0  0  0  0  0  0  0  0  0
   70.7485   74.4839   91.6853 C   0  0  0  0  0  0  0  0  0  0  0  0
   71.6839   79.2112   89.0928 C   0  0  0  0  0  0  0  0  0  0  0  0
   72.9931   78.7697   89.0061 C   0  0  0  0  0  0  0  0  0  0  0  0
   73.7302   79.8522   88.5758 C   0  0  0  0  0  0  0  0  0  0  0  0
   72.9420   80.8887   88.4105 O   0  0  0  0  0  0  0  0  0  0  0  0
   71.7115   80.5430   88.7107 C   0  0  0  0  0  0  0  0  0  0  0  0
   66.7169   78.3988   88.9585 C   0  0  0  0  0  0  0  0  0  0  0  0
   65.9690   77.2324   88.6110 O   0  0  0  0  0  0  0  0  0  0  0  0
   64.6424   74.4579   90.7553 C   0  0  0  0  0  0  0  0  0  0  0  0
   65.4589   75.1599   89.8500 C   0  0  0  0  0  0  0  0  0  0  0  0
   65.1659   76.4889   89.4917 C   0  0  0  0  0  0  0  0  0  0  0  0
   64.0360   77.1058   90.0318 C   0  0  0  0  0  0  0  0  0  0  0  0
   63.2027   76.4143   90.9108 C   0  0  0  0  0  0  0  0  0  0  0  0
   63.4803   75.0899   91.2651 C   0  0  0  0  0  0  0  0  0  0  0  0
   62.5644   74.4335   92.0903 O   0  0  0  0  0  0  0  0  0  0  0  0
   61.8084   74.8883   92.4059 H   0  0  0  0  0  0  0  0  0  0  0  0
   64.2024   72.2418   91.5189 O   0  0  0  0  0  0  0  0  0  0  0  0
   65.0568   73.0962   91.1616 C   0  0  0  0  0  0  0  0  0  0  0  0
   66.4096   72.7700   91.2132 O   0  0  0  0  0  0  0  0  0  0  0  0
   67.0533   73.3979   90.9498 H   0  0  0  0  0  0  0  0  0  0  0  0
 27 28  2  0  0  0
 28 29  1  0  0  0
 28 19  1  0  0  0
 19 20  2  0  0  0
 20 21  1  0  0  0
 21 18  1  0  0  0
 18 17  1  0  0  0
 17  1  1  0  0  0
  1  2  2  0  0  0
  2  3  1  0  0  0
  3  7  1  0  0  0
  7  8  1  0  0  0
  8  9  2  0  0  0
  9 10  1  0  0  0
 10 11  1  0  0  0
  3  4  2  0  0  0
  4  5  1  0  0  0
  5 12  1  0  0  0
 12 13  1  0  0  0
 13 14  2  0  0  0
 14 15  1  0  0  0
 15 16  1  0  0  0
  5  6  2  0  0  0
 21 22  2  0  0  0
 22 23  1  0  0  0
 23 24  2  0  0  0
 24 25  1  0  0  0
 24 19  1  0  0  0
  6  1  1  0  0  0
 11  7  2  0  0  0
 16 12  2  0  0  0
 29 30  1  0  0  0
 25 26  1  0  0  0
M  END
> <Activity>
233.5

> <minimizedAffinity>
-8.85681

$$$$
HIPS6249


 30 33  0  0  0  0  0  0  0  0999 V2000
   66.4896   76.0106   89.1265 C   0  0  0  0  0  0  0  0  0  0  0  0
   65.4054   75.2519   89.5872 C   0  0  0  0  0  0  0  0  0  0  0  0
   65.2495   74.9786   90.9566 C   0  0  0  0  0  0  0  0  0  0  0  0
   66.1972   75.4867   91.8637 C   0  0  0  0  0  0  0  0  0  0  0  0
   67.2857   76.2595   91.4193 C   0  0  0  0  0  0  0  0  0  0  0  0
   67.4166   76.5218   90.0451 C   0  0  0  0  0  0  0  0  0  0  0  0
   64.1019   74.1658   91.4366 C   0  0  0  0  0  0  0  0  0  0  0  0
   62.8702   74.6311   91.8640 C   0  0  0  0  0  0  0  0  0  0  0  0
   62.1418   73.5127   92.2088 C   0  0  0  0  0  0  0  0  0  0  0  0
   62.8625   72.4342   92.0087 O   0  0  0  0  0  0  0  0  0  0  0  0
   64.0401   72.7858   91.5469 C   0  0  0  0  0  0  0  0  0  0  0  0
   68.2830   76.7891   92.3857 C   0  0  0  0  0  0  0  0  0  0  0  0
   69.5917   76.3688   92.5497 C   0  0  0  0  0  0  0  0  0  0  0  0
   70.1163   77.1487   93.5581 C   0  0  0  0  0  0  0  0  0  0  0  0
   69.2042   77.9875   93.9911 O   0  0  0  0  0  0  0  0  0  0  0  0
   68.0952   77.8010   93.3137 C   0  0  0  0  0  0  0  0  0  0  0  0
   66.6463   76.2778   87.6518 C   0  0  0  0  0  0  0  0  0  0  0  0
   67.9757   76.7066   87.3528 O   0  0  0  0  0  0  0  0  0  0  0  0
   68.4288   80.4270   87.2534 C   0  0  0  0  0  0  0  0  0  0  0  0
   67.9070   79.1470   86.9916 C   0  0  0  0  0  0  0  0  0  0  0  0
   68.4814   77.9993   87.5689 C   0  0  0  0  0  0  0  0  0  0  0  0
   69.5968   78.1397   88.3967 C   0  0  0  0  0  0  0  0  0  0  0  0
   70.1411   79.3996   88.6452 C   0  0  0  0  0  0  0  0  0  0  0  0
   69.5831   80.5450   88.0680 C   0  0  0  0  0  0  0  0  0  0  0  0
   70.2226   81.7650   88.2988 O   0  0  0  0  0  0  0  0  0  0  0  0
   70.9837   81.7992   88.8443 H   0  0  0  0  0  0  0  0  0  0  0  0
   68.0982   82.1181   85.6048 O   0  0  0  0  0  0  0  0  0  0  0  0
   67.7230   81.5998   86.6902 C   0  0  0  0  0  0  0  0  0  0  0  0
   66.6720   82.1805   87.3954 O   0  0  0  0  0  0  0  0  0  0  0  0
   66.3851   81.8032   88.2036 H   0  0  0  0  0  0  0  0  0  0  0  0
 27 28  2  0  0  0
 28 29  1  0  0  0
 28 19  1  0  0  0
 19 20  2  0  0  0
 20 21  1  0  0  0
 21 18  1  0  0  0
 18 17  1  0  0  0
 17  1  1  0  0  0
  1  2  2  0  0  0
  2  3  1  0  0  0
  3  7  1  0  0  0
  7  8  1  0  0  0
  8  9  2  0  0  0
  9 10  1  0  0  0
 10 11  1  0  0  0
  3  4  2  0  0  0
  4  5  1  0  0  0
  5 12  1  0  0  0
 12 13  1  0  0  0
 13 14  2  0  0  0
 14 15  1  0  0  0
 15 16  1  0  0  0
  5  6  2  0  0  0
 21 22  2  0  0  0
 22 23  1  0  0  0
 23 24  2  0  0  0
 24 25  1  0  0  0
 24 19  1  0  0  0
  6  1  1  0  0  0
 11  7  2  0  0  0
 16 12  2  0  0  0
 29 30  1  0  0  0
 25 26  1  0  0  0
M  END
> <Activity>
233.5

> <minimizedAffinity>
-8.74730

$$$$
HIPS6249


 30 33  0  0  0  0  0  0  0  0999 V2000
   68.5656   76.3046   90.3287 C   0  0  0  0  0  0  0  0  0  0  0  0
   68.4554   77.0525   89.1489 C   0  0  0  0  0  0  0  0  0  0  0  0
   68.3699   78.4543   89.1917 C   0  0  0  0  0  0  0  0  0  0  0  0
   68.4050   79.0999   90.4412 C   0  0  0  0  0  0  0  0  0  0  0  0
   68.5263   78.3650   91.6348 C   0  0  0  0  0  0  0  0  0  0  0  0
   68.6140   76.9644   91.5644 C   0  0  0  0  0  0  0  0  0  0  0  0
   68.2444   79.2400   87.9367 C   0  0  0  0  0  0  0  0  0  0  0  0
   68.9938   80.3424   87.5635 C   0  0  0  0  0  0  0  0  0  0  0  0
   68.5156   80.7248   86.3285 C   0  0  0  0  0  0  0  0  0  0  0  0
   67.5458   79.9211   85.9593 O   0  0  0  0  0  0  0  0  0  0  0  0
   67.3563   79.0207   86.8958 C   0  0  0  0  0  0  0  0  0  0  0  0
   68.5593   79.0568   92.9498 C   0  0  0  0  0  0  0  0  0  0  0  0
   68.9640   78.5261   94.1626 C   0  0  0  0  0  0  0  0  0  0  0  0
   68.8163   79.5380   95.0870 C   0  0  0  0  0  0  0  0  0  0  0  0
   68.3524   80.6147   94.4965 O   0  0  0  0  0  0  0  0  0  0  0  0
   68.1861   80.3640   93.2185 C   0  0  0  0  0  0  0  0  0  0  0  0
   68.6394   74.8011   90.2605 C   0  0  0  0  0  0  0  0  0  0  0  0
   67.7526   74.2064   91.2094 O   0  0  0  0  0  0  0  0  0  0  0  0
   64.2756   75.5948   91.0121 C   0  0  0  0  0  0  0  0  0  0  0  0
   65.6806   75.5381   91.0536 C   0  0  0  0  0  0  0  0  0  0  0  0
   66.3517   74.3085   91.1886 C   0  0  0  0  0  0  0  0  0  0  0  0
   65.6046   73.1345   91.3018 C   0  0  0  0  0  0  0  0  0  0  0  0
   64.2106   73.1773   91.2880 C   0  0  0  0  0  0  0  0  0  0  0  0
   63.5348   74.3957   91.1642 C   0  0  0  0  0  0  0  0  0  0  0  0
   62.1399   74.3737   91.2326 O   0  0  0  0  0  0  0  0  0  0  0  0
   61.6886   73.5587   91.3335 H   0  0  0  0  0  0  0  0  0  0  0  0
   63.2793   77.6352   91.7412 O   0  0  0  0  0  0  0  0  0  0  0  0
   63.6342   76.9077   90.7756 C   0  0  0  0  0  0  0  0  0  0  0  0
   63.3591   77.3202   89.4744 O   0  0  0  0  0  0  0  0  0  0  0  0
   63.6186   76.7868   88.7490 H   0  0  0  0  0  0  0  0  0  0  0  0
 27 28  2  0  0  0
 28 29  1  0  0  0
 28 19  1  0  0  0
 19 20  2  0  0  0
 20 21  1  0  0  0
 21 18  1  0  0  0
 18 17  1  0  0  0
 17  1  1  0  0  0
  1  2  2  0  0  0
  2  3  1  0  0  0
  3  7  1  0  0  0
  7  8  1  0  0  0
  8  9  2  0  0  0
  9 10  1  0  0  0
 10 11  1  0  0  0
  3  4  2  0  0  0
  4  5  1  0  0  0
  5 12  1  0  0  0
 12 13  1  0  0  0
 13 14  2  0  0  0
 14 15  1  0  0  0
 15 16  1  0  0  0
  5  6  2  0  0  0
 21 22  2  0  0  0
 22 23  1  0  0  0
 23 24  2  0  0  0
 24 25  1  0  0  0
 24 19  1  0  0  0
  6  1  1  0  0  0
 11  7  2  0  0  0
 16 12  2  0  0  0
 29 30  1  0  0  0
 25 26  1  0  0  0
M  END
> <Activity>
233.5

> <minimizedAffinity>
-8.73983

$$$$
HIPS7112


 31 33  0  0  0  0  0  0  0  0999 V2000
   69.2797   75.6279   90.3852 N   0  0  0  0  0  0  0  0  0  0  0  0
   68.5938   75.3225   91.6017 C   0  0  0  0  0  0  0  0  0  0  0  0
   68.6571   76.1153   92.5794 O   0  0  0  0  0  0  0  0  0  0  0  0
   69.2641   74.9857   89.6391 H   0  0  0  0  0  0  0  0  0  0  0  0
   69.8744   77.5685   89.1822 C   0  0  0  0  0  0  0  0  0  0  0  0
   69.9752   76.8396   90.2500 N   0  0  0  0  0  0  0  0  0  0  0  0
   72.7342   80.0366   88.9007 C   0  0  0  0  0  0  0  0  0  0  0  0
   72.0062   78.8391   89.0207 C   0  0  0  0  0  0  0  0  0  0  0  0
   70.6040   78.8469   89.0594 C   0  0  0  0  0  0  0  0  0  0  0  0
   69.9233   80.0717   88.9758 C   0  0  0  0  0  0  0  0  0  0  0  0
   70.6341   81.2649   88.8425 C   0  0  0  0  0  0  0  0  0  0  0  0
   72.0317   81.2614   88.7903 C   0  0  0  0  0  0  0  0  0  0  0  0
   72.6808   82.4830   88.5981 O   0  0  0  0  0  0  0  0  0  0  0  0
   72.1817   83.2730   88.5297 H   0  0  0  0  0  0  0  0  0  0  0  0
   74.8886   78.7331   89.1123 N   0  0  0  0  0  0  0  0  0  0  0  0
   74.2122   79.9780   88.9266 C   0  0  0  0  0  0  0  0  0  0  0  0
   74.8884   81.0360   88.8201 O   0  0  0  0  0  0  0  0  0  0  0  0
   75.8725   78.7051   89.1280 H   0  0  0  0  0  0  0  0  0  0  0  0
   74.3706   77.9034   89.2245 H   0  0  0  0  0  0  0  0  0  0  0  0
   67.7948   74.0603   91.7159 C   0  0  0  0  0  0  0  0  0  0  0  0
   66.8674   73.9604   90.6351 O   0  0  0  0  0  0  0  0  0  0  0  0
   65.7386   74.7794   90.4449 C   0  0  0  0  0  0  0  0  0  0  0  0
   65.8067   75.9806   89.7112 C   0  0  0  0  0  0  0  0  0  0  0  0
   64.6705   76.7713   89.5333 C   0  0  0  0  0  0  0  0  0  0  0  0
   63.4493   76.3842   90.0820 C   0  0  0  0  0  0  0  0  0  0  0  0
   63.3540   75.1967   90.8196 C   0  0  0  0  0  0  0  0  0  0  0  0
   62.1258   74.8050   91.3753 C   0  0  0  0  0  0  0  0  0  0  0  0
   62.0319   73.6206   92.1089 C   0  0  0  0  0  0  0  0  0  0  0  0
   63.1596   72.8188   92.2938 C   0  0  0  0  0  0  0  0  0  0  0  0
   64.3894   73.1952   91.7475 C   0  0  0  0  0  0  0  0  0  0  0  0
   64.5041   74.3863   91.0055 C   0  0  0  0  0  0  0  0  0  0  0  0
 15 16  1  0  0  0
 16 17  2  0  0  0
 16  7  1  0  0  0
  7  8  2  0  0  0
  8  9  1  0  0  0
  9  5  1  0  0  0
  5  6  2  0  0  0
  6  1  1  0  0  0
  1  2  1  0  0  0
  2  3  2  0  0  0
  2 20  1  0  0  0
 20 21  1  0  0  0
 21 22  1  0  0  0
 22 23  2  0  0  0
 23 24  1  0  0  0
 24 25  2  0  0  0
 25 26  1  0  0  0
 26 27  2  0  0  0
 27 28  1  0  0  0
 28 29  2  0  0  0
 29 30  1  0  0  0
 30 31  2  0  0  0
  9 10  2  0  0  0
 10 11  1  0  0  0
 11 12  2  0  0  0
 12 13  1  0  0  0
 12  7  1  0  0  0
 31 22  1  0  0  0
 31 26  1  0  0  0
 15 18  1  0  0  0
 15 19  1  0  0  0
  1  4  1  0  0  0
 13 14  1  0  0  0
M  END
> <Activity>
398.5

> <minimizedAffinity>
-8.89736

$$$$
HIPS7112


 31 33  0  0  0  0  0  0  0  0999 V2000
   69.1823   75.1976   90.6417 N   0  0  0  0  0  0  0  0  0  0  0  0
   68.4752   74.8901   91.8455 C   0  0  0  0  0  0  0  0  0  0  0  0
   68.4236   75.7327   92.7813 O   0  0  0  0  0  0  0  0  0  0  0  0
   69.2576   74.5206   89.9308 H   0  0  0  0  0  0  0  0  0  0  0  0
   69.8856   77.0046   89.2975 C   0  0  0  0  0  0  0  0  0  0  0  0
   69.7696   76.4607   90.4690 N   0  0  0  0  0  0  0  0  0  0  0  0
   72.5094   79.7159   88.9605 C   0  0  0  0  0  0  0  0  0  0  0  0
   71.8932   78.4614   89.1187 C   0  0  0  0  0  0  0  0  0  0  0  0
   70.4958   78.3397   89.1331 C   0  0  0  0  0  0  0  0  0  0  0  0
   69.7064   79.4910   88.9862 C   0  0  0  0  0  0  0  0  0  0  0  0
   70.3062   80.7390   88.8147 C   0  0  0  0  0  0  0  0  0  0  0  0
   71.6989   80.8641   88.7865 C   0  0  0  0  0  0  0  0  0  0  0  0
   72.2358   82.1322   88.5539 O   0  0  0  0  0  0  0  0  0  0  0  0
   71.6672   82.8687   88.4436 H   0  0  0  0  0  0  0  0  0  0  0  0
   74.7795   78.6091   89.0453 N   0  0  0  0  0  0  0  0  0  0  0  0
   73.9856   79.7967   89.0141 C   0  0  0  0  0  0  0  0  0  0  0  0
   74.5553   80.9195   89.0687 O   0  0  0  0  0  0  0  0  0  0  0  0
   75.7612   78.6741   89.0809 H   0  0  0  0  0  0  0  0  0  0  0  0
   74.3448   77.7259   89.0311 H   0  0  0  0  0  0  0  0  0  0  0  0
   67.7905   73.5660   91.9959 C   0  0  0  0  0  0  0  0  0  0  0  0
   66.7726   73.4182   91.0059 O   0  0  0  0  0  0  0  0  0  0  0  0
   65.3986   73.6535   91.2009 C   0  0  0  0  0  0  0  0  0  0  0  0
   64.5504   72.6801   91.7657 C   0  0  0  0  0  0  0  0  0  0  0  0
   63.1924   72.9418   91.9530 C   0  0  0  0  0  0  0  0  0  0  0  0
   62.6537   74.1722   91.5812 C   0  0  0  0  0  0  0  0  0  0  0  0
   63.4734   75.1566   91.0136 C   0  0  0  0  0  0  0  0  0  0  0  0
   62.9335   76.3963   90.6362 C   0  0  0  0  0  0  0  0  0  0  0  0
   63.7518   77.3771   90.0720 C   0  0  0  0  0  0  0  0  0  0  0  0
   65.1124   77.1301   89.8801 C   0  0  0  0  0  0  0  0  0  0  0  0
   65.6647   75.9011   90.2499 C   0  0  0  0  0  0  0  0  0  0  0  0
   64.8555   74.8995   90.8195 C   0  0  0  0  0  0  0  0  0  0  0  0
 15 16  1  0  0  0
 16 17  2  0  0  0
 16  7  1  0  0  0
  7  8  2  0  0  0
  8  9  1  0  0  0
  9  5  1  0  0  0
  5  6  2  0  0  0
  6  1  1  0  0  0
  1  2  1  0  0  0
  2  3  2  0  0  0
  2 20  1  0  0  0
 20 21  1  0  0  0
 21 22  1  0  0  0
 22 23  2  0  0  0
 23 24  1  0  0  0
 24 25  2  0  0  0
 25 26  1  0  0  0
 26 27  2  0  0  0
 27 28  1  0  0  0
 28 29  2  0  0  0
 29 30  1  0  0  0
 30 31  2  0  0  0
  9 10  2  0  0  0
 10 11  1  0  0  0
 11 12  2  0  0  0
 12 13  1  0  0  0
 12  7  1  0  0  0
 31 22  1  0  0  0
 31 26  1  0  0  0
 15 18  1  0  0  0
 15 19  1  0  0  0
  1  4  1  0  0  0
 13 14  1  0  0  0
M  END
> <Activity>
398.5

> <minimizedAffinity>
-8.81724

$$$$
HIPS7112


 31 33  0  0  0  0  0  0  0  0999 V2000
   66.3411   77.3712   89.3203 N   0  0  0  0  0  0  0  0  0  0  0  0
   65.2922   78.0152   90.0473 C   0  0  0  0  0  0  0  0  0  0  0  0
   65.4905   79.1397   90.5807 O   0  0  0  0  0  0  0  0  0  0  0  0
   66.1964   76.4736   88.9426 H   0  0  0  0  0  0  0  0  0  0  0  0
   68.6941   77.4468   89.4774 C   0  0  0  0  0  0  0  0  0  0  0  0
   67.5766   78.0133   89.1426 N   0  0  0  0  0  0  0  0  0  0  0  0
   71.2308   80.2148   88.9745 C   0  0  0  0  0  0  0  0  0  0  0  0
   70.0176   79.5291   89.1651 C   0  0  0  0  0  0  0  0  0  0  0  0
   69.9873   78.1309   89.2738 C   0  0  0  0  0  0  0  0  0  0  0  0
   71.1896   77.4113   89.1910 C   0  0  0  0  0  0  0  0  0  0  0  0
   72.4009   78.0813   89.0160 C   0  0  0  0  0  0  0  0  0  0  0  0
   72.4380   79.4762   88.9201 C   0  0  0  0  0  0  0  0  0  0  0  0
   73.6872   80.0895   88.8037 O   0  0  0  0  0  0  0  0  0  0  0  0
   74.4644   79.5671   88.7707 H   0  0  0  0  0  0  0  0  0  0  0  0
   72.3245   82.4838   89.1760 N   0  0  0  0  0  0  0  0  0  0  0  0
   71.2002   81.6840   88.8046 C   0  0  0  0  0  0  0  0  0  0  0  0
   70.1635   82.2473   88.3617 O   0  0  0  0  0  0  0  0  0  0  0  0
   72.2938   83.4608   89.0588 H   0  0  0  0  0  0  0  0  0  0  0  0
   73.1298   82.0578   89.5491 H   0  0  0  0  0  0  0  0  0  0  0  0
   63.9528   77.3559   90.1740 C   0  0  0  0  0  0  0  0  0  0  0  0
   63.9409   76.4669   91.2911 O   0  0  0  0  0  0  0  0  0  0  0  0
   64.2895   75.1037   91.2579 C   0  0  0  0  0  0  0  0  0  0  0  0
   63.3612   74.1073   90.8952 C   0  0  0  0  0  0  0  0  0  0  0  0
   63.7351   72.7631   90.8654 C   0  0  0  0  0  0  0  0  0  0  0  0
   65.0350   72.3855   91.1967 C   0  0  0  0  0  0  0  0  0  0  0  0
   65.9773   73.3549   91.5650 C   0  0  0  0  0  0  0  0  0  0  0  0
   67.2870   72.9776   91.9013 C   0  0  0  0  0  0  0  0  0  0  0  0
   68.2254   73.9449   92.2668 C   0  0  0  0  0  0  0  0  0  0  0  0
   67.8662   75.2935   92.2996 C   0  0  0  0  0  0  0  0  0  0  0  0
   66.5665   75.6851   91.9682 C   0  0  0  0  0  0  0  0  0  0  0  0
   65.6060   74.7243   91.5980 C   0  0  0  0  0  0  0  0  0  0  0  0
 15 16  1  0  0  0
 16 17  2  0  0  0
 16  7  1  0  0  0
  7  8  2  0  0  0
  8  9  1  0  0  0
  9  5  1  0  0  0
  5  6  2  0  0  0
  6  1  1  0  0  0
  1  2  1  0  0  0
  2  3  2  0  0  0
  2 20  1  0  0  0
 20 21  1  0  0  0
 21 22  1  0  0  0
 22 23  2  0  0  0
 23 24  1  0  0  0
 24 25  2  0  0  0
 25 26  1  0  0  0
 26 27  2  0  0  0
 27 28  1  0  0  0
 28 29  2  0  0  0
 29 30  1  0  0  0
 30 31  2  0  0  0
  9 10  2  0  0  0
 10 11  1  0  0  0
 11 12  2  0  0  0
 12 13  1  0  0  0
 12  7  1  0  0  0
 31 22  1  0  0  0
 31 26  1  0  0  0
 15 18  1  0  0  0
 15 19  1  0  0  0
  1  4  1  0  0  0
 13 14  1  0  0  0
M  END
> <Activity>
398.5

> <minimizedAffinity>
-8.73714

$$$$
HIPS7112


 31 33  0  0  0  0  0  0  0  0999 V2000
   66.9343   77.8576   89.1927 N   0  0  0  0  0  0  0  0  0  0  0  0
   65.7202   78.1272   89.8977 C   0  0  0  0  0  0  0  0  0  0  0  0
   65.5482   79.2436   90.4569 O   0  0  0  0  0  0  0  0  0  0  0  0
   67.0832   76.9695   88.7948 H   0  0  0  0  0  0  0  0  0  0  0  0
   69.1762   78.5925   89.2152 C   0  0  0  0  0  0  0  0  0  0  0  0
   67.9148   78.8539   89.0655 N   0  0  0  0  0  0  0  0  0  0  0  0
   72.5551   80.2777   88.9114 C   0  0  0  0  0  0  0  0  0  0  0  0
   71.5553   79.2987   89.0543 C   0  0  0  0  0  0  0  0  0  0  0  0
   70.1972   79.6496   89.0671 C   0  0  0  0  0  0  0  0  0  0  0  0
   69.8374   80.9998   88.9341 C   0  0  0  0  0  0  0  0  0  0  0  0
   70.8196   81.9784   88.7779 C   0  0  0  0  0  0  0  0  0  0  0  0
   72.1744   81.6324   88.7513 C   0  0  0  0  0  0  0  0  0  0  0  0
   73.1043   82.6515   88.5342 O   0  0  0  0  0  0  0  0  0  0  0  0
   72.8141   83.5367   88.4329 H   0  0  0  0  0  0  0  0  0  0  0  0
   74.3234   78.4807   89.0821 N   0  0  0  0  0  0  0  0  0  0  0  0
   73.9736   79.8612   88.9660 C   0  0  0  0  0  0  0  0  0  0  0  0
   74.8878   80.7283   88.9462 O   0  0  0  0  0  0  0  0  0  0  0  0
   75.2705   78.2142   89.1176 H   0  0  0  0  0  0  0  0  0  0  0  0
   73.6174   77.7960   89.1264 H   0  0  0  0  0  0  0  0  0  0  0  0
   64.6474   77.0839   89.9703 C   0  0  0  0  0  0  0  0  0  0  0  0
   64.7566   76.3435   91.1861 O   0  0  0  0  0  0  0  0  0  0  0  0
   65.4643   75.1381   91.3512 C   0  0  0  0  0  0  0  0  0  0  0  0
   64.9098   73.8945   90.9881 C   0  0  0  0  0  0  0  0  0  0  0  0
   65.6358   72.7147   91.1576 C   0  0  0  0  0  0  0  0  0  0  0  0
   66.9225   72.7494   91.6919 C   0  0  0  0  0  0  0  0  0  0  0  0
   67.4967   73.9717   92.0654 C   0  0  0  0  0  0  0  0  0  0  0  0
   68.7918   74.0099   92.6057 C   0  0  0  0  0  0  0  0  0  0  0  0
   69.3634   75.2288   92.9762 C   0  0  0  0  0  0  0  0  0  0  0  0
   68.6497   76.4172   92.8110 C   0  0  0  0  0  0  0  0  0  0  0  0
   67.3595   76.3958   92.2751 C   0  0  0  0  0  0  0  0  0  0  0  0
   66.7659   75.1765   91.8965 C   0  0  0  0  0  0  0  0  0  0  0  0
 15 16  1  0  0  0
 16 17  2  0  0  0
 16  7  1  0  0  0
  7  8  2  0  0  0
  8  9  1  0  0  0
  9  5  1  0  0  0
  5  6  2  0  0  0
  6  1  1  0  0  0
  1  2  1  0  0  0
  2  3  2  0  0  0
  2 20  1  0  0  0
 20 21  1  0  0  0
 21 22  1  0  0  0
 22 23  2  0  0  0
 23 24  1  0  0  0
 24 25  2  0  0  0
 25 26  1  0  0  0
 26 27  2  0  0  0
 27 28  1  0  0  0
 28 29  2  0  0  0
 29 30  1  0  0  0
 30 31  2  0  0  0
  9 10  2  0  0  0
 10 11  1  0  0  0
 11 12  2  0  0  0
 12 13  1  0  0  0
 12  7  1  0  0  0
 31 22  1  0  0  0
 31 26  1  0  0  0
 15 18  1  0  0  0
 15 19  1  0  0  0
  1  4  1  0  0  0
 13 14  1  0  0  0
M  END
> <Activity>
398.5

> <minimizedAffinity>
-8.64401

$$$$
HIPS7112


 31 33  0  0  0  0  0  0  0  0999 V2000
   66.8278   78.8972   88.8799 N   0  0  0  0  0  0  0  0  0  0  0  0
   67.5359   78.9291   87.6385 C   0  0  0  0  0  0  0  0  0  0  0  0
   67.5628   77.9086   86.8995 O   0  0  0  0  0  0  0  0  0  0  0  0
   66.8457   79.6815   89.4748 H   0  0  0  0  0  0  0  0  0  0  0  0
   65.4097   77.7124   90.3468 C   0  0  0  0  0  0  0  0  0  0  0  0
   66.1071   77.7524   89.2543 N   0  0  0  0  0  0  0  0  0  0  0  0
   64.6191   74.1014   91.1746 C   0  0  0  0  0  0  0  0  0  0  0  0
   65.3116   75.2722   90.8168 C   0  0  0  0  0  0  0  0  0  0  0  0
   64.6474   76.5040   90.7216 C   0  0  0  0  0  0  0  0  0  0  0  0
   63.2707   76.5623   90.9896 C   0  0  0  0  0  0  0  0  0  0  0  0
   62.5757   75.4102   91.3590 C   0  0  0  0  0  0  0  0  0  0  0  0
   63.2359   74.1821   91.4680 C   0  0  0  0  0  0  0  0  0  0  0  0
   62.4954   73.0787   91.8977 O   0  0  0  0  0  0  0  0  0  0  0  0
   61.5814   73.1711   92.0823 H   0  0  0  0  0  0  0  0  0  0  0  0
   66.7735   72.7947   91.3654 N   0  0  0  0  0  0  0  0  0  0  0  0
   65.3544   72.8180   91.2005 C   0  0  0  0  0  0  0  0  0  0  0  0
   64.7354   71.7319   91.0409 O   0  0  0  0  0  0  0  0  0  0  0  0
   67.2532   71.9352   91.3812 H   0  0  0  0  0  0  0  0  0  0  0  0
   67.2715   73.6383   91.4632 H   0  0  0  0  0  0  0  0  0  0  0  0
   68.2452   80.1777   87.2113 C   0  0  0  0  0  0  0  0  0  0  0  0
   69.2230   80.5502   88.1826 O   0  0  0  0  0  0  0  0  0  0  0  0
   70.3629   79.8002   88.5279 C   0  0  0  0  0  0  0  0  0  0  0  0
   70.3100   78.4020   88.6963 C   0  0  0  0  0  0  0  0  0  0  0  0
   71.4569   77.6819   89.0337 C   0  0  0  0  0  0  0  0  0  0  0  0
   72.6740   78.3373   89.2113 C   0  0  0  0  0  0  0  0  0  0  0  0
   72.7543   79.7273   89.0540 C   0  0  0  0  0  0  0  0  0  0  0  0
   73.9783   80.3907   89.2342 C   0  0  0  0  0  0  0  0  0  0  0  0
   74.0573   81.7758   89.0759 C   0  0  0  0  0  0  0  0  0  0  0  0
   72.9186   82.5090   88.7370 C   0  0  0  0  0  0  0  0  0  0  0  0
   71.6929   81.8635   88.5548 C   0  0  0  0  0  0  0  0  0  0  0  0
   71.5932   80.4677   88.7110 C   0  0  0  0  0  0  0  0  0  0  0  0
 15 16  1  0  0  0
 16 17  2  0  0  0
 16  7  1  0  0  0
  7  8  2  0  0  0
  8  9  1  0  0  0
  9  5  1  0  0  0
  5  6  2  0  0  0
  6  1  1  0  0  0
  1  2  1  0  0  0
  2  3  2  0  0  0
  2 20  1  0  0  0
 20 21  1  0  0  0
 21 22  1  0  0  0
 22 23  2  0  0  0
 23 24  1  0  0  0
 24 25  2  0  0  0
 25 26  1  0  0  0
 26 27  2  0  0  0
 27 28  1  0  0  0
 28 29  2  0  0  0
 29 30  1  0  0  0
 30 31  2  0  0  0
  9 10  2  0  0  0
 10 11  1  0  0  0
 11 12  2  0  0  0
 12 13  1  0  0  0
 12  7  1  0  0  0
 31 22  1  0  0  0
 31 26  1  0  0  0
 15 18  1  0  0  0
 15 19  1  0  0  0
  1  4  1  0  0  0
 13 14  1  0  0  0
M  END
> <Activity>
398.5

> <minimizedAffinity>
-8.64199

$$$$
HIPS7112


 31 33  0  0  0  0  0  0  0  0999 V2000
   68.2760   74.5883   90.2926 N   0  0  0  0  0  0  0  0  0  0  0  0
   67.7344   74.2554   91.5731 C   0  0  0  0  0  0  0  0  0  0  0  0
   67.7390   75.1068   92.5023 O   0  0  0  0  0  0  0  0  0  0  0  0
   68.3107   73.9070   89.5829 H   0  0  0  0  0  0  0  0  0  0  0  0
   68.6179   76.4519   88.8866 C   0  0  0  0  0  0  0  0  0  0  0  0
   68.7586   75.8826   90.0432 N   0  0  0  0  0  0  0  0  0  0  0  0
   68.8147   80.0095   87.6006 C   0  0  0  0  0  0  0  0  0  0  0  0
   68.3688   78.6993   87.8512 C   0  0  0  0  0  0  0  0  0  0  0  0
   69.1212   77.8190   88.6428 C   0  0  0  0  0  0  0  0  0  0  0  0
   70.3364   78.2590   89.1907 C   0  0  0  0  0  0  0  0  0  0  0  0
   70.7824   79.5609   88.9606 C   0  0  0  0  0  0  0  0  0  0  0  0
   70.0295   80.4466   88.1829 C   0  0  0  0  0  0  0  0  0  0  0  0
   70.5026   81.7526   88.0385 O   0  0  0  0  0  0  0  0  0  0  0  0
   71.3114   82.0049   88.4388 H   0  0  0  0  0  0  0  0  0  0  0  0
   68.5062   81.2491   85.4204 N   0  0  0  0  0  0  0  0  0  0  0  0
   68.0139   80.8769   86.7091 C   0  0  0  0  0  0  0  0  0  0  0  0
   66.9014   81.3249   87.0960 O   0  0  0  0  0  0  0  0  0  0  0  0
   67.9653   81.8268   84.8348 H   0  0  0  0  0  0  0  0  0  0  0  0
   69.3864   80.9279   85.1181 H   0  0  0  0  0  0  0  0  0  0  0  0
   67.1566   72.8940   91.8123 C   0  0  0  0  0  0  0  0  0  0  0  0
   65.9974   72.6975   91.0025 O   0  0  0  0  0  0  0  0  0  0  0  0
   64.7097   73.1936   91.2799 C   0  0  0  0  0  0  0  0  0  0  0  0
   63.8179   72.5120   92.1320 C   0  0  0  0  0  0  0  0  0  0  0  0
   62.5485   73.0294   92.3943 C   0  0  0  0  0  0  0  0  0  0  0  0
   62.1428   74.2298   91.8141 C   0  0  0  0  0  0  0  0  0  0  0  0
   63.0078   74.9262   90.9597 C   0  0  0  0  0  0  0  0  0  0  0  0
   62.6014   76.1346   90.3721 C   0  0  0  0  0  0  0  0  0  0  0  0
   63.4649   76.8284   89.5219 C   0  0  0  0  0  0  0  0  0  0  0  0
   64.7382   76.3239   89.2516 C   0  0  0  0  0  0  0  0  0  0  0  0
   65.1573   75.1221   89.8282 C   0  0  0  0  0  0  0  0  0  0  0  0
   64.3005   74.4078   90.6873 C   0  0  0  0  0  0  0  0  0  0  0  0
 15 16  1  0  0  0
 16 17  2  0  0  0
 16  7  1  0  0  0
  7  8  2  0  0  0
  8  9  1  0  0  0
  9  5  1  0  0  0
  5  6  2  0  0  0
  6  1  1  0  0  0
  1  2  1  0  0  0
  2  3  2  0  0  0
  2 20  1  0  0  0
 20 21  1  0  0  0
 21 22  1  0  0  0
 22 23  2  0  0  0
 23 24  1  0  0  0
 24 25  2  0  0  0
 25 26  1  0  0  0
 26 27  2  0  0  0
 27 28  1  0  0  0
 28 29  2  0  0  0
 29 30  1  0  0  0
 30 31  2  0  0  0
  9 10  2  0  0  0
 10 11  1  0  0  0
 11 12  2  0  0  0
 12 13  1  0  0  0
 12  7  1  0  0  0
 31 22  1  0  0  0
 31 26  1  0  0  0
 15 18  1  0  0  0
 15 19  1  0  0  0
  1  4  1  0  0  0
 13 14  1  0  0  0
M  END
> <Activity>
398.5

> <minimizedAffinity>
-8.59492

$$$$
HIPS7112


 31 33  0  0  0  0  0  0  0  0999 V2000
   69.4431   75.2773   90.8329 N   0  0  0  0  0  0  0  0  0  0  0  0
   68.4690   75.1865   91.8752 C   0  0  0  0  0  0  0  0  0  0  0  0
   68.2154   76.1909   92.5929 O   0  0  0  0  0  0  0  0  0  0  0  0
   69.6702   74.4791   90.3032 H   0  0  0  0  0  0  0  0  0  0  0  0
   70.8441   76.6556   89.5275 C   0  0  0  0  0  0  0  0  0  0  0  0
   70.0771   76.4998   90.5614 N   0  0  0  0  0  0  0  0  0  0  0  0
   71.3001   80.3663   88.9175 C   0  0  0  0  0  0  0  0  0  0  0  0
   70.7139   79.1143   89.1771 C   0  0  0  0  0  0  0  0  0  0  0  0
   71.4955   77.9517   89.2490 C   0  0  0  0  0  0  0  0  0  0  0  0
   72.8831   78.0463   89.0588 C   0  0  0  0  0  0  0  0  0  0  0  0
   73.4776   79.2847   88.8144 C   0  0  0  0  0  0  0  0  0  0  0  0
   72.7045   80.4486   88.7547 C   0  0  0  0  0  0  0  0  0  0  0  0
   73.3670   81.6633   88.5643 O   0  0  0  0  0  0  0  0  0  0  0  0
   74.2981   81.6778   88.4602 H   0  0  0  0  0  0  0  0  0  0  0  0
   69.6069   81.7328   87.6326 N   0  0  0  0  0  0  0  0  0  0  0  0
   70.4235   81.5513   88.7910 C   0  0  0  0  0  0  0  0  0  0  0  0
   70.4172   82.4316   89.6927 O   0  0  0  0  0  0  0  0  0  0  0  0
   69.0271   82.5250   87.5583 H   0  0  0  0  0  0  0  0  0  0  0  0
   69.6241   81.0658   86.9087 H   0  0  0  0  0  0  0  0  0  0  0  0
   67.7443   73.8972   92.1145 C   0  0  0  0  0  0  0  0  0  0  0  0
   66.8423   73.6281   91.0412 O   0  0  0  0  0  0  0  0  0  0  0  0
   65.8139   74.4822   90.6007 C   0  0  0  0  0  0  0  0  0  0  0  0
   66.0632   75.5527   89.7187 C   0  0  0  0  0  0  0  0  0  0  0  0
   65.0237   76.3811   89.2933 C   0  0  0  0  0  0  0  0  0  0  0  0
   63.7210   76.1623   89.7375 C   0  0  0  0  0  0  0  0  0  0  0  0
   63.4456   75.1078   90.6181 C   0  0  0  0  0  0  0  0  0  0  0  0
   62.1347   74.8859   91.0690 C   0  0  0  0  0  0  0  0  0  0  0  0
   61.8613   73.8337   91.9453 C   0  0  0  0  0  0  0  0  0  0  0  0
   62.8907   72.9958   92.3780 C   0  0  0  0  0  0  0  0  0  0  0  0
   64.2007   73.2039   91.9388 C   0  0  0  0  0  0  0  0  0  0  0  0
   64.4962   74.2601   91.0558 C   0  0  0  0  0  0  0  0  0  0  0  0
 15 16  1  0  0  0
 16 17  2  0  0  0
 16  7  1  0  0  0
  7  8  2  0  0  0
  8  9  1  0  0  0
  9  5  1  0  0  0
  5  6  2  0  0  0
  6  1  1  0  0  0
  1  2  1  0  0  0
  2  3  2  0  0  0
  2 20  1  0  0  0
 20 21  1  0  0  0
 21 22  1  0  0  0
 22 23  2  0  0  0
 23 24  1  0  0  0
 24 25  2  0  0  0
 25 26  1  0  0  0
 26 27  2  0  0  0
 27 28  1  0  0  0
 28 29  2  0  0  0
 29 30  1  0  0  0
 30 31  2  0  0  0
  9 10  2  0  0  0
 10 11  1  0  0  0
 11 12  2  0  0  0
 12 13  1  0  0  0
 12  7  1  0  0  0
 31 22  1  0  0  0
 31 26  1  0  0  0
 15 18  1  0  0  0
 15 19  1  0  0  0
  1  4  1  0  0  0
 13 14  1  0  0  0
M  END
> <Activity>
398.5

> <minimizedAffinity>
-8.46588

$$$$
HIPS7112


 31 33  0  0  0  0  0  0  0  0999 V2000
   69.4429   75.1407   90.6913 N   0  0  0  0  0  0  0  0  0  0  0  0
   68.7239   74.9157   91.9062 C   0  0  0  0  0  0  0  0  0  0  0  0
   68.7420   75.7820   92.8214 O   0  0  0  0  0  0  0  0  0  0  0  0
   69.4625   74.4432   89.9968 H   0  0  0  0  0  0  0  0  0  0  0  0
   70.6595   76.6460   89.3419 C   0  0  0  0  0  0  0  0  0  0  0  0
   70.1212   76.3521   90.4845 N   0  0  0  0  0  0  0  0  0  0  0  0
   71.2674   80.3694   89.0022 C   0  0  0  0  0  0  0  0  0  0  0  0
   70.6331   79.1281   89.1895 C   0  0  0  0  0  0  0  0  0  0  0  0
   71.3604   77.9298   89.1363 C   0  0  0  0  0  0  0  0  0  0  0  0
   72.7420   77.9774   88.8927 C   0  0  0  0  0  0  0  0  0  0  0  0
   73.3847   79.2036   88.7190 C   0  0  0  0  0  0  0  0  0  0  0  0
   72.6664   80.4018   88.7842 C   0  0  0  0  0  0  0  0  0  0  0  0
   73.3780   81.5971   88.6595 O   0  0  0  0  0  0  0  0  0  0  0  0
   74.3037   81.5784   88.5157 H   0  0  0  0  0  0  0  0  0  0  0  0
   70.5355   82.5322   90.0848 N   0  0  0  0  0  0  0  0  0  0  0  0
   70.4442   81.5986   89.0070 C   0  0  0  0  0  0  0  0  0  0  0  0
   69.6262   81.8147   88.0730 O   0  0  0  0  0  0  0  0  0  0  0  0
   69.9831   83.3471   90.0782 H   0  0  0  0  0  0  0  0  0  0  0  0
   71.1507   82.3605   90.8339 H   0  0  0  0  0  0  0  0  0  0  0  0
   67.9439   73.6502   92.0929 C   0  0  0  0  0  0  0  0  0  0  0  0
   66.9610   73.5170   91.0661 O   0  0  0  0  0  0  0  0  0  0  0  0
   65.5754   73.7043   91.2281 C   0  0  0  0  0  0  0  0  0  0  0  0
   64.7255   72.6552   91.6319 C   0  0  0  0  0  0  0  0  0  0  0  0
   63.3556   72.8699   91.7901 C   0  0  0  0  0  0  0  0  0  0  0  0
   62.8066   74.1278   91.5482 C   0  0  0  0  0  0  0  0  0  0  0  0
   63.6279   75.1877   91.1416 C   0  0  0  0  0  0  0  0  0  0  0  0
   63.0777   76.4555   90.8953 C   0  0  0  0  0  0  0  0  0  0  0  0
   63.8975   77.5113   90.4915 C   0  0  0  0  0  0  0  0  0  0  0  0
   65.2698   77.3119   90.3307 C   0  0  0  0  0  0  0  0  0  0  0  0
   65.8325   76.0558   90.5714 C   0  0  0  0  0  0  0  0  0  0  0  0
   65.0220   74.9787   90.9783 C   0  0  0  0  0  0  0  0  0  0  0  0
 15 16  1  0  0  0
 16 17  2  0  0  0
 16  7  1  0  0  0
  7  8  2  0  0  0
  8  9  1  0  0  0
  9  5  1  0  0  0
  5  6  2  0  0  0
  6  1  1  0  0  0
  1  2  1  0  0  0
  2  3  2  0  0  0
  2 20  1  0  0  0
 20 21  1  0  0  0
 21 22  1  0  0  0
 22 23  2  0  0  0
 23 24  1  0  0  0
 24 25  2  0  0  0
 25 26  1  0  0  0
 26 27  2  0  0  0
 27 28  1  0  0  0
 28 29  2  0  0  0
 29 30  1  0  0  0
 30 31  2  0  0  0
  9 10  2  0  0  0
 10 11  1  0  0  0
 11 12  2  0  0  0
 12 13  1  0  0  0
 12  7  1  0  0  0
 31 22  1  0  0  0
 31 26  1  0  0  0
 15 18  1  0  0  0
 15 19  1  0  0  0
  1  4  1  0  0  0
 13 14  1  0  0  0
M  END
> <Activity>
398.5

> <minimizedAffinity>
-8.26165

$$$$
HIPS7112


 31 33  0  0  0  0  0  0  0  0999 V2000
   69.3875   76.8745   91.3405 N   0  0  0  0  0  0  0  0  0  0  0  0
   70.2557   76.2218   90.4111 C   0  0  0  0  0  0  0  0  0  0  0  0
   69.8207   75.2830   89.6915 O   0  0  0  0  0  0  0  0  0  0  0  0
   69.7418   77.5775   91.9318 H   0  0  0  0  0  0  0  0  0  0  0  0
   67.2456   76.6111   90.3867 C   0  0  0  0  0  0  0  0  0  0  0  0
   68.0320   76.5174   91.4136 N   0  0  0  0  0  0  0  0  0  0  0  0
   64.1418   74.5682   91.1229 C   0  0  0  0  0  0  0  0  0  0  0  0
   65.4850   74.9722   91.0184 C   0  0  0  0  0  0  0  0  0  0  0  0
   65.8239   76.2207   90.4762 C   0  0  0  0  0  0  0  0  0  0  0  0
   64.8020   77.0754   90.0337 C   0  0  0  0  0  0  0  0  0  0  0  0
   63.4653   76.6915   90.1449 C   0  0  0  0  0  0  0  0  0  0  0  0
   63.1215   75.4532   90.6968 C   0  0  0  0  0  0  0  0  0  0  0  0
   61.7643   75.1533   90.8328 O   0  0  0  0  0  0  0  0  0  0  0  0
   61.1177   75.7644   90.5388 H   0  0  0  0  0  0  0  0  0  0  0  0
   62.7667   73.0127   92.5633 N   0  0  0  0  0  0  0  0  0  0  0  0
   63.8424   73.2169   91.6452 C   0  0  0  0  0  0  0  0  0  0  0  0
   64.5599   72.2366   91.3098 O   0  0  0  0  0  0  0  0  0  0  0  0
   62.5759   72.1093   92.9049 H   0  0  0  0  0  0  0  0  0  0  0  0
   62.2164   73.7754   92.8543 H   0  0  0  0  0  0  0  0  0  0  0  0
   71.6846   76.6550   90.2878 C   0  0  0  0  0  0  0  0  0  0  0  0
   71.8672   77.4328   89.1047 O   0  0  0  0  0  0  0  0  0  0  0  0
   71.4396   78.7614   88.9227 C   0  0  0  0  0  0  0  0  0  0  0  0
   70.0776   79.0900   88.7707 C   0  0  0  0  0  0  0  0  0  0  0  0
   69.6806   80.4166   88.5971 C   0  0  0  0  0  0  0  0  0  0  0  0
   70.6281   81.4382   88.5695 C   0  0  0  0  0  0  0  0  0  0  0  0
   71.9894   81.1394   88.7142 C   0  0  0  0  0  0  0  0  0  0  0  0
   72.9466   82.1660   88.6849 C   0  0  0  0  0  0  0  0  0  0  0  0
   74.3027   81.8671   88.8305 C   0  0  0  0  0  0  0  0  0  0  0  0
   74.7146   80.5448   89.0065 C   0  0  0  0  0  0  0  0  0  0  0  0
   73.7742   79.5118   89.0374 C   0  0  0  0  0  0  0  0  0  0  0  0
   72.4024   79.7933   88.8913 C   0  0  0  0  0  0  0  0  0  0  0  0
 15 16  1  0  0  0
 16 17  2  0  0  0
 16  7  1  0  0  0
  7  8  2  0  0  0
  8  9  1  0  0  0
  9  5  1  0  0  0
  5  6  2  0  0  0
  6  1  1  0  0  0
  1  2  1  0  0  0
  2  3  2  0  0  0
  2 20  1  0  0  0
 20 21  1  0  0  0
 21 22  1  0  0  0
 22 23  2  0  0  0
 23 24  1  0  0  0
 24 25  2  0  0  0
 25 26  1  0  0  0
 26 27  2  0  0  0
 27 28  1  0  0  0
 28 29  2  0  0  0
 29 30  1  0  0  0
 30 31  2  0  0  0
  9 10  2  0  0  0
 10 11  1  0  0  0
 11 12  2  0  0  0
 12 13  1  0  0  0
 12  7  1  0  0  0
 31 22  1  0  0  0
 31 26  1  0  0  0
 15 18  1  0  0  0
 15 19  1  0  0  0
  1  4  1  0  0  0
 13 14  1  0  0  0
M  END
> <Activity>
398.5

> <minimizedAffinity>
-8.22308

$$$$
HIPS7112


 31 33  0  0  0  0  0  0  0  0999 V2000
   68.1745   75.0860   90.2222 N   0  0  0  0  0  0  0  0  0  0  0  0
   67.3481   74.9910   91.3848 C   0  0  0  0  0  0  0  0  0  0  0  0
   66.9238   76.0367   91.9462 O   0  0  0  0  0  0  0  0  0  0  0  0
   68.5399   74.2688   89.8125 H   0  0  0  0  0  0  0  0  0  0  0  0
   67.7809   76.8217   88.6733 C   0  0  0  0  0  0  0  0  0  0  0  0
   68.4670   76.3395   89.6624 N   0  0  0  0  0  0  0  0  0  0  0  0
   69.4951   80.1511   88.1028 C   0  0  0  0  0  0  0  0  0  0  0  0
   69.1656   78.8869   88.6238 C   0  0  0  0  0  0  0  0  0  0  0  0
   68.0937   78.1475   88.1022 C   0  0  0  0  0  0  0  0  0  0  0  0
   67.3431   78.6829   87.0438 C   0  0  0  0  0  0  0  0  0  0  0  0
   67.6690   79.9299   86.5094 C   0  0  0  0  0  0  0  0  0  0  0  0
   68.7448   80.6653   87.0172 C   0  0  0  0  0  0  0  0  0  0  0  0
   69.0544   81.8795   86.4006 O   0  0  0  0  0  0  0  0  0  0  0  0
   68.5344   82.1873   85.6844 H   0  0  0  0  0  0  0  0  0  0  0  0
   71.8879   80.3290   88.8953 N   0  0  0  0  0  0  0  0  0  0  0  0
   70.5956   80.9157   88.7295 C   0  0  0  0  0  0  0  0  0  0  0  0
   70.3905   82.0837   89.1561 O   0  0  0  0  0  0  0  0  0  0  0  0
   72.6134   80.8466   89.3137 H   0  0  0  0  0  0  0  0  0  0  0  0
   72.0527   79.4073   88.5912 H   0  0  0  0  0  0  0  0  0  0  0  0
   66.9814   73.6474   91.9369 C   0  0  0  0  0  0  0  0  0  0  0  0
   65.8957   73.0868   91.1984 O   0  0  0  0  0  0  0  0  0  0  0  0
   64.5341   73.3920   91.3833 C   0  0  0  0  0  0  0  0  0  0  0  0
   63.7840   72.8352   92.4384 C   0  0  0  0  0  0  0  0  0  0  0  0
   62.4364   73.1593   92.6019 C   0  0  0  0  0  0  0  0  0  0  0  0
   61.8109   74.0389   91.7203 C   0  0  0  0  0  0  0  0  0  0  0  0
   62.5319   74.6039   90.6600 C   0  0  0  0  0  0  0  0  0  0  0  0
   61.9043   75.4888   89.7690 C   0  0  0  0  0  0  0  0  0  0  0  0
   62.6243   76.0521   88.7136 C   0  0  0  0  0  0  0  0  0  0  0  0
   63.9734   75.7385   88.5386 C   0  0  0  0  0  0  0  0  0  0  0  0
   64.6122   74.8591   89.4165 C   0  0  0  0  0  0  0  0  0  0  0  0
   63.9027   74.2802   90.4861 C   0  0  0  0  0  0  0  0  0  0  0  0
 15 16  1  0  0  0
 16 17  2  0  0  0
 16  7  1  0  0  0
  7  8  2  0  0  0
  8  9  1  0  0  0
  9  5  1  0  0  0
  5  6  2  0  0  0
  6  1  1  0  0  0
  1  2  1  0  0  0
  2  3  2  0  0  0
  2 20  1  0  0  0
 20 21  1  0  0  0
 21 22  1  0  0  0
 22 23  2  0  0  0
 23 24  1  0  0  0
 24 25  2  0  0  0
 25 26  1  0  0  0
 26 27  2  0  0  0
 27 28  1  0  0  0
 28 29  2  0  0  0
 29 30  1  0  0  0
 30 31  2  0  0  0
  9 10  2  0  0  0
 10 11  1  0  0  0
 11 12  2  0  0  0
 12 13  1  0  0  0
 12  7  1  0  0  0
 31 22  1  0  0  0
 31 26  1  0  0  0
 15 18  1  0  0  0
 15 19  1  0  0  0
  1  4  1  0  0  0
 13 14  1  0  0  0
M  END
> <Activity>
398.5

> <minimizedAffinity>
-8.19686

$$$$
