CHEMBL460721_plants_01
     RDKit          3D

 34 36  0  0  0  0  0  0  0  0999 V2000
  -17.3417   16.9138  -22.6372 C   0  0  0  0  0  0  0  0  0  0  0  0
  -15.9611   17.3065  -22.9738 C   0  0  0  0  0  0  0  0  0  0  0  0
  -15.4040   16.7705  -23.9681 O   0  0  0  0  0  0  0  0  0  0  0  0
  -15.2254   18.2069  -22.1300 N   0  0  0  0  0  0  0  0  0  0  0  0
  -13.8670   18.6578  -22.4341 C   0  0  0  0  0  0  0  0  0  0  0  0
  -13.8187   19.3545  -23.7969 C   0  0  0  0  0  0  0  0  0  0  0  0
  -13.3818   18.3999  -24.9165 C   0  0  0  0  0  0  0  0  0  0  0  0
  -13.9986   18.7970  -26.2000 N   0  0  0  0  0  0  0  0  0  0  0  0
  -14.0700   20.2661  -26.3802 C   0  0  0  0  0  0  0  0  0  0  0  0
  -15.3693   20.8972  -25.8511 C   0  0  0  0  0  0  0  0  0  0  0  0
  -15.2929   18.1222  -26.4597 C   0  0  0  0  0  0  0  0  0  0  0  0
  -15.0485   16.6498  -26.7639 C   0  0  0  0  0  0  0  0  0  0  0  0
  -17.8323   15.6681  -22.7226 C   0  0  0  0  0  0  0  0  0  0  0  0
  -17.0260   14.4470  -22.9361 C   0  0  0  0  0  0  0  0  0  0  0  0
  -15.7677   14.5053  -22.9742 O   0  0  0  0  0  0  0  0  0  0  0  0
  -17.6955   13.1031  -23.0091 C   0  0  0  0  0  0  0  0  0  0  0  0
  -17.2654   12.2718  -24.1932 C   0  0  0  0  0  0  0  0  0  0  0  0
  -17.9499   11.1247  -24.4590 N   0  0  0  0  0  0  0  0  0  0  0  0
  -17.6829   10.3559  -25.5462 C   0  0  0  0  0  0  0  0  0  0  0  0
  -16.6944   10.7438  -26.4524 C   0  0  0  0  0  0  0  0  0  0  0  0
  -16.4167    9.9695  -27.5328 N   0  0  0  0  0  0  0  0  0  0  0  0
  -15.4456   10.3234  -28.4117 C   0  0  0  0  0  0  0  0  0  0  0  0
  -14.7414   11.4687  -28.2255 N   0  0  0  0  0  0  0  0  0  0  0  0
  -14.9906   12.2982  -27.1782 C   0  0  0  0  0  0  0  0  0  0  0  0
  -14.1919   13.4835  -27.0399 N   0  0  0  0  0  0  0  0  0  0  0  0
  -13.0679   13.8054  -27.8793 C   0  0  0  0  0  0  0  0  0  0  0  0
  -12.3694   12.8109  -28.5908 C   0  0  0  0  0  0  0  0  0  0  0  0
  -11.3081   13.1605  -29.4310 C   0  0  0  0  0  0  0  0  0  0  0  0
  -10.9320   14.4988  -29.5675 C   0  0  0  0  0  0  0  0  0  0  0  0
  -11.6052   15.4906  -28.8460 C   0  0  0  0  0  0  0  0  0  0  0  0
  -11.0971   17.3219  -29.0388 Br  0  0  0  0  0  0  0  0  0  0  0  0
  -12.6654   15.1441  -28.0024 C   0  0  0  0  0  0  0  0  0  0  0  0
  -15.9791   11.9387  -26.2324 C   0  0  0  0  0  0  0  0  0  0  0  0
  -16.2632   12.6986  -25.0848 C   0  0  0  0  0  0  0  0  0  0  0  0
  1  2  1  0
  1 13  2  0
  2  3  2  0
  2  4  1  0
  4  5  1  0
  5  6  1  0
  6  7  1  0
  7  8  1  0
  8  9  1  0
  8 11  1  0
  9 10  1  0
 11 12  1  0
 13 14  1  0
 14 15  2  0
 14 16  1  0
 16 17  1  0
 17 18  2  0
 18 19  1  0
 19 20  2  0
 20 21  1  0
 21 22  2  0
 22 23  1  0
 23 24  2  0
 24 25  1  0
 24 33  1  0
 25 26  1  0
 26 27  2  0
 27 28  1  0
 28 29  2  0
 29 30  1  0
 30 31  1  0
 30 32  2  0
 32 26  1  0
 33 34  2  0
 33 20  1  0
 34 17  1  0
M  END
$$$$
CHEMBL460721_plants_02
     RDKit          3D

 34 36  0  0  0  0  0  0  0  0999 V2000
  -12.1282   17.2651  -25.5847 C   0  0  0  0  0  0  0  0  0  0  0  0
  -12.4429   16.4731  -26.7878 C   0  0  0  0  0  0  0  0  0  0  0  0
  -12.8436   17.0728  -27.8204 O   0  0  0  0  0  0  0  0  0  0  0  0
  -12.3917   15.0377  -26.7584 N   0  0  0  0  0  0  0  0  0  0  0  0
  -12.6592   14.2038  -27.9306 C   0  0  0  0  0  0  0  0  0  0  0  0
  -11.4870   14.2586  -28.9145 C   0  0  0  0  0  0  0  0  0  0  0  0
  -11.6323   15.4093  -29.9198 C   0  0  0  0  0  0  0  0  0  0  0  0
  -10.3635   16.1601  -30.0281 N   0  0  0  0  0  0  0  0  0  0  0  0
  -10.4568   17.5386  -29.4926 C   0  0  0  0  0  0  0  0  0  0  0  0
   -9.3914   18.4981  -30.0503 C   0  0  0  0  0  0  0  0  0  0  0  0
   -9.7687   16.1094  -31.3852 C   0  0  0  0  0  0  0  0  0  0  0  0
  -10.5933   16.9674  -32.3359 C   0  0  0  0  0  0  0  0  0  0  0  0
  -12.6872   18.4427  -25.2680 C   0  0  0  0  0  0  0  0  0  0  0  0
  -13.8702   19.0310  -25.9324 C   0  0  0  0  0  0  0  0  0  0  0  0
  -13.9333   20.2697  -26.1556 O   0  0  0  0  0  0  0  0  0  0  0  0
  -14.9700   18.1420  -26.4421 C   0  0  0  0  0  0  0  0  0  0  0  0
  -15.5256   17.2020  -25.4001 C   0  0  0  0  0  0  0  0  0  0  0  0
  -16.0021   17.7336  -24.2401 N   0  0  0  0  0  0  0  0  0  0  0  0
  -16.5895   16.9726  -23.2809 C   0  0  0  0  0  0  0  0  0  0  0  0
  -16.7456   15.5989  -23.4748 C   0  0  0  0  0  0  0  0  0  0  0  0
  -17.3204   14.8343  -22.5111 N   0  0  0  0  0  0  0  0  0  0  0  0
  -17.4614   13.4951  -22.6770 C   0  0  0  0  0  0  0  0  0  0  0  0
  -17.0349   12.9007  -23.8203 N   0  0  0  0  0  0  0  0  0  0  0  0
  -16.4756   13.6160  -24.8316 C   0  0  0  0  0  0  0  0  0  0  0  0
  -16.0341   12.9131  -26.0033 N   0  0  0  0  0  0  0  0  0  0  0  0
  -16.5701   11.6509  -26.4408 C   0  0  0  0  0  0  0  0  0  0  0  0
  -17.6931   11.0709  -25.8198 C   0  0  0  0  0  0  0  0  0  0  0  0
  -18.2157    9.8644  -26.2950 C   0  0  0  0  0  0  0  0  0  0  0  0
  -17.6248    9.2251  -27.3873 C   0  0  0  0  0  0  0  0  0  0  0  0
  -16.4945    9.7823  -27.9952 C   0  0  0  0  0  0  0  0  0  0  0  0
  -15.6911    8.9130  -29.4944 Br  0  0  0  0  0  0  0  0  0  0  0  0
  -15.9674   10.9875  -27.5205 C   0  0  0  0  0  0  0  0  0  0  0  0
  -16.2924   15.0096  -24.6728 C   0  0  0  0  0  0  0  0  0  0  0  0
  -15.6669   15.8213  -25.6346 C   0  0  0  0  0  0  0  0  0  0  0  0
  1  2  1  0
  1 13  2  0
  2  3  2  0
  2  4  1  0
  4  5  1  0
  5  6  1  0
  6  7  1  0
  7  8  1  0
  8  9  1  0
  8 11  1  0
  9 10  1  0
 11 12  1  0
 13 14  1  0
 14 15  2  0
 14 16  1  0
 16 17  1  0
 17 18  2  0
 18 19  1  0
 19 20  2  0
 20 21  1  0
 21 22  2  0
 22 23  1  0
 23 24  2  0
 24 25  1  0
 24 33  1  0
 25 26  1  0
 26 27  2  0
 27 28  1  0
 28 29  2  0
 29 30  1  0
 30 31  1  0
 30 32  2  0
 32 26  1  0
 33 34  2  0
 33 20  1  0
 34 17  1  0
M  END
$$$$
CHEMBL460721_plants_03
     RDKit          3D

 34 36  0  0  0  0  0  0  0  0999 V2000
  -16.2921   13.8536  -22.8966 C   0  0  0  0  0  0  0  0  0  0  0  0
  -15.7572   14.9766  -23.6881 C   0  0  0  0  0  0  0  0  0  0  0  0
  -16.5433   15.8923  -24.0489 O   0  0  0  0  0  0  0  0  0  0  0  0
  -14.3895   14.9818  -24.1276 N   0  0  0  0  0  0  0  0  0  0  0  0
  -13.7969   16.0853  -24.8842 C   0  0  0  0  0  0  0  0  0  0  0  0
  -13.8223   17.3795  -24.0660 C   0  0  0  0  0  0  0  0  0  0  0  0
  -13.1538   18.5440  -24.8096 C   0  0  0  0  0  0  0  0  0  0  0  0
  -14.1179   19.1893  -25.7259 N   0  0  0  0  0  0  0  0  0  0  0  0
  -14.2256   18.5015  -27.0340 C   0  0  0  0  0  0  0  0  0  0  0  0
  -15.3411   17.4438  -27.0928 C   0  0  0  0  0  0  0  0  0  0  0  0
  -13.9077   20.6507  -25.8602 C   0  0  0  0  0  0  0  0  0  0  0  0
  -13.5702   21.2448  -24.4988 C   0  0  0  0  0  0  0  0  0  0  0  0
  -17.5789   13.6965  -22.5517 C   0  0  0  0  0  0  0  0  0  0  0  0
  -18.7092   14.4797  -23.0958 C   0  0  0  0  0  0  0  0  0  0  0  0
  -19.0457   15.5744  -22.5701 O   0  0  0  0  0  0  0  0  0  0  0  0
  -19.4073   14.0278  -24.3481 C   0  0  0  0  0  0  0  0  0  0  0  0
  -18.6776   12.9360  -25.0921 C   0  0  0  0  0  0  0  0  0  0  0  0
  -19.3449   11.7786  -25.3571 N   0  0  0  0  0  0  0  0  0  0  0  0
  -18.7941   10.7745  -26.0869 C   0  0  0  0  0  0  0  0  0  0  0  0
  -17.5104   10.9166  -26.6166 C   0  0  0  0  0  0  0  0  0  0  0  0
  -16.9527    9.9083  -27.3351 N   0  0  0  0  0  0  0  0  0  0  0  0
  -15.6986   10.0241  -27.8398 C   0  0  0  0  0  0  0  0  0  0  0  0
  -14.9849   11.1609  -27.6392 N   0  0  0  0  0  0  0  0  0  0  0  0
  -15.4981   12.2146  -26.9511 C   0  0  0  0  0  0  0  0  0  0  0  0
  -14.6751   13.3767  -26.7665 N   0  0  0  0  0  0  0  0  0  0  0  0
  -13.5861   13.7440  -27.6331 C   0  0  0  0  0  0  0  0  0  0  0  0
  -12.9851   12.8104  -28.4993 C   0  0  0  0  0  0  0  0  0  0  0  0
  -11.9572   13.2082  -29.3594 C   0  0  0  0  0  0  0  0  0  0  0  0
  -11.5178   14.5341  -29.3624 C   0  0  0  0  0  0  0  0  0  0  0  0
  -12.0932   15.4626  -28.4882 C   0  0  0  0  0  0  0  0  0  0  0  0
  -11.4988   17.2780  -28.4978 Br  0  0  0  0  0  0  0  0  0  0  0  0
  -13.1196   15.0675  -27.6244 C   0  0  0  0  0  0  0  0  0  0  0  0
  -16.7929   12.1091  -26.3912 C   0  0  0  0  0  0  0  0  0  0  0  0
  -17.3821   13.1189  -25.6113 C   0  0  0  0  0  0  0  0  0  0  0  0
  1  2  1  0
  1 13  2  0
  2  3  2  0
  2  4  1  0
  4  5  1  0
  5  6  1  0
  6  7  1  0
  7  8  1  0
  8  9  1  0
  8 11  1  0
  9 10  1  0
 11 12  1  0
 13 14  1  0
 14 15  2  0
 14 16  1  0
 16 17  1  0
 17 18  2  0
 18 19  1  0
 19 20  2  0
 20 21  1  0
 21 22  2  0
 22 23  1  0
 23 24  2  0
 24 25  1  0
 24 33  1  0
 25 26  1  0
 26 27  2  0
 27 28  1  0
 28 29  2  0
 29 30  1  0
 30 31  1  0
 30 32  2  0
 32 26  1  0
 33 34  2  0
 33 20  1  0
 34 17  1  0
M  END
$$$$
CHEMBL460721_plants_04
     RDKit          3D

 34 36  0  0  0  0  0  0  0  0999 V2000
  -15.2115   19.1594  -26.7422 C   0  0  0  0  0  0  0  0  0  0  0  0
  -14.3519   18.0046  -27.0601 C   0  0  0  0  0  0  0  0  0  0  0  0
  -14.8605   17.0147  -27.6498 O   0  0  0  0  0  0  0  0  0  0  0  0
  -12.9850   17.9611  -26.6199 N   0  0  0  0  0  0  0  0  0  0  0  0
  -12.0776   16.8577  -26.9368 C   0  0  0  0  0  0  0  0  0  0  0  0
  -11.7101   16.8673  -28.4234 C   0  0  0  0  0  0  0  0  0  0  0  0
  -10.2596   17.3124  -28.6550 C   0  0  0  0  0  0  0  0  0  0  0  0
   -9.8293   16.9675  -30.0267 N   0  0  0  0  0  0  0  0  0  0  0  0
  -10.8772   17.2173  -31.0442 C   0  0  0  0  0  0  0  0  0  0  0  0
  -10.5140   16.7118  -32.4510 C   0  0  0  0  0  0  0  0  0  0  0  0
   -9.2389   15.6116  -30.1301 C   0  0  0  0  0  0  0  0  0  0  0  0
  -10.2842   14.5699  -29.7527 C   0  0  0  0  0  0  0  0  0  0  0  0
  -14.9716   20.0567  -25.7741 C   0  0  0  0  0  0  0  0  0  0  0  0
  -13.7033   20.1832  -25.0242 C   0  0  0  0  0  0  0  0  0  0  0  0
  -12.9948   21.2202  -25.1286 O   0  0  0  0  0  0  0  0  0  0  0  0
  -13.2938   19.1163  -24.0477 C   0  0  0  0  0  0  0  0  0  0  0  0
  -14.4204   18.1975  -23.6416 C   0  0  0  0  0  0  0  0  0  0  0  0
  -15.3156   18.6436  -22.7172 N   0  0  0  0  0  0  0  0  0  0  0  0
  -16.4023   17.9167  -22.3499 C   0  0  0  0  0  0  0  0  0  0  0  0
  -16.6480   16.6766  -22.9421 C   0  0  0  0  0  0  0  0  0  0  0  0
  -17.7265   15.9422  -22.5664 N   0  0  0  0  0  0  0  0  0  0  0  0
  -17.9677   14.7267  -23.1188 C   0  0  0  0  0  0  0  0  0  0  0  0
  -17.1330   14.2307  -24.0672 N   0  0  0  0  0  0  0  0  0  0  0  0
  -16.0520   14.9294  -24.5036 C   0  0  0  0  0  0  0  0  0  0  0  0
  -15.2068   14.3305  -25.4980 N   0  0  0  0  0  0  0  0  0  0  0  0
  -15.4877   13.0803  -26.1535 C   0  0  0  0  0  0  0  0  0  0  0  0
  -14.5818   12.5052  -27.0655 C   0  0  0  0  0  0  0  0  0  0  0  0
  -14.8644   11.2689  -27.6538 C   0  0  0  0  0  0  0  0  0  0  0  0
  -16.0492   10.5977  -27.3427 C   0  0  0  0  0  0  0  0  0  0  0  0
  -16.9657   11.1730  -26.4559 C   0  0  0  0  0  0  0  0  0  0  0  0
  -18.5822   10.2517  -26.0233 Br  0  0  0  0  0  0  0  0  0  0  0  0
  -16.6876   12.4109  -25.8678 C   0  0  0  0  0  0  0  0  0  0  0  0
  -15.7629   16.1871  -23.9244 C   0  0  0  0  0  0  0  0  0  0  0  0
  -14.6346   16.9532  -24.2640 C   0  0  0  0  0  0  0  0  0  0  0  0
  1  2  1  0
  1 13  2  0
  2  3  2  0
  2  4  1  0
  4  5  1  0
  5  6  1  0
  6  7  1  0
  7  8  1  0
  8  9  1  0
  8 11  1  0
  9 10  1  0
 11 12  1  0
 13 14  1  0
 14 15  2  0
 14 16  1  0
 16 17  1  0
 17 18  2  0
 18 19  1  0
 19 20  2  0
 20 21  1  0
 21 22  2  0
 22 23  1  0
 23 24  2  0
 24 25  1  0
 24 33  1  0
 25 26  1  0
 26 27  2  0
 27 28  1  0
 28 29  2  0
 29 30  1  0
 30 31  1  0
 30 32  2  0
 32 26  1  0
 33 34  2  0
 33 20  1  0
 34 17  1  0
M  END
$$$$
CHEMBL460721_plants_05
     RDKit          3D

 34 36  0  0  0  0  0  0  0  0999 V2000
  -13.8892   20.6696  -26.1545 C   0  0  0  0  0  0  0  0  0  0  0  0
  -14.1489   19.2964  -26.6241 C   0  0  0  0  0  0  0  0  0  0  0  0
  -15.3363   18.8766  -26.6425 O   0  0  0  0  0  0  0  0  0  0  0  0
  -13.0645   18.4159  -26.9602 N   0  0  0  0  0  0  0  0  0  0  0  0
  -13.2649   17.0570  -27.4644 C   0  0  0  0  0  0  0  0  0  0  0  0
  -11.9226   16.3954  -27.7895 C   0  0  0  0  0  0  0  0  0  0  0  0
  -11.0529   17.2741  -28.6991 C   0  0  0  0  0  0  0  0  0  0  0  0
  -10.9208   16.6569  -30.0359 N   0  0  0  0  0  0  0  0  0  0  0  0
  -10.2260   15.3484  -30.0054 C   0  0  0  0  0  0  0  0  0  0  0  0
   -8.6921   15.4551  -30.0544 C   0  0  0  0  0  0  0  0  0  0  0  0
  -10.3638   17.5802  -31.0532 C   0  0  0  0  0  0  0  0  0  0  0  0
  -10.5946   17.0053  -32.4448 C   0  0  0  0  0  0  0  0  0  0  0  0
  -14.5034   21.2599  -25.1181 C   0  0  0  0  0  0  0  0  0  0  0  0
  -15.3617   20.5707  -24.1307 C   0  0  0  0  0  0  0  0  0  0  0  0
  -15.0258   20.5097  -22.9176 O   0  0  0  0  0  0  0  0  0  0  0  0
  -16.6981   20.0212  -24.5451 C   0  0  0  0  0  0  0  0  0  0  0  0
  -16.9884   18.6460  -23.9948 C   0  0  0  0  0  0  0  0  0  0  0  0
  -18.0158   18.5082  -23.1112 N   0  0  0  0  0  0  0  0  0  0  0  0
  -18.3971   17.2989  -22.6249 C   0  0  0  0  0  0  0  0  0  0  0  0
  -17.7470   16.1378  -23.0470 C   0  0  0  0  0  0  0  0  0  0  0  0
  -18.1180   14.9292  -22.5516 N   0  0  0  0  0  0  0  0  0  0  0  0
  -17.4828   13.7940  -22.9375 C   0  0  0  0  0  0  0  0  0  0  0  0
  -16.4679   13.8523  -23.8368 N   0  0  0  0  0  0  0  0  0  0  0  0
  -16.0684   15.0287  -24.3878 C   0  0  0  0  0  0  0  0  0  0  0  0
  -14.9762   15.0110  -25.3199 N   0  0  0  0  0  0  0  0  0  0  0  0
  -14.6867   13.9158  -26.2078 C   0  0  0  0  0  0  0  0  0  0  0  0
  -15.5026   12.7690  -26.2555 C   0  0  0  0  0  0  0  0  0  0  0  0
  -15.2190   11.7403  -27.1588 C   0  0  0  0  0  0  0  0  0  0  0  0
  -14.1222   11.8426  -28.0177 C   0  0  0  0  0  0  0  0  0  0  0  0
  -13.2927   12.9678  -27.9604 C   0  0  0  0  0  0  0  0  0  0  0  0
  -11.7976   13.1123  -29.1406 Br  0  0  0  0  0  0  0  0  0  0  0  0
  -13.5717   13.9973  -27.0560 C   0  0  0  0  0  0  0  0  0  0  0  0
  -16.6959   16.2298  -23.9821 C   0  0  0  0  0  0  0  0  0  0  0  0
  -16.3098   17.4986  -24.4470 C   0  0  0  0  0  0  0  0  0  0  0  0
  1  2  1  0
  1 13  2  0
  2  3  2  0
  2  4  1  0
  4  5  1  0
  5  6  1  0
  6  7  1  0
  7  8  1  0
  8  9  1  0
  8 11  1  0
  9 10  1  0
 11 12  1  0
 13 14  1  0
 14 15  2  0
 14 16  1  0
 16 17  1  0
 17 18  2  0
 18 19  1  0
 19 20  2  0
 20 21  1  0
 21 22  2  0
 22 23  1  0
 23 24  2  0
 24 25  1  0
 24 33  1  0
 25 26  1  0
 26 27  2  0
 27 28  1  0
 28 29  2  0
 29 30  1  0
 30 31  1  0
 30 32  2  0
 32 26  1  0
 33 34  2  0
 33 20  1  0
 34 17  1  0
M  END
$$$$
CHEMBL460721_plants_06
     RDKit          3D

 34 36  0  0  0  0  0  0  0  0999 V2000
  -17.8483   18.6152  -22.8693 C   0  0  0  0  0  0  0  0  0  0  0  0
  -16.6478   19.3371  -23.3289 C   0  0  0  0  0  0  0  0  0  0  0  0
  -15.5336   19.0470  -22.8182 O   0  0  0  0  0  0  0  0  0  0  0  0
  -16.7541   20.4198  -24.2672 N   0  0  0  0  0  0  0  0  0  0  0  0
  -15.5941   21.1469  -24.7839 C   0  0  0  0  0  0  0  0  0  0  0  0
  -15.2931   20.7332  -26.2273 C   0  0  0  0  0  0  0  0  0  0  0  0
  -13.8569   20.2172  -26.3908 C   0  0  0  0  0  0  0  0  0  0  0  0
  -13.8457   18.7403  -26.4539 N   0  0  0  0  0  0  0  0  0  0  0  0
  -14.8887   18.1893  -27.3509 C   0  0  0  0  0  0  0  0  0  0  0  0
  -15.0799   16.6681  -27.2250 C   0  0  0  0  0  0  0  0  0  0  0  0
  -13.8391   18.0985  -25.1175 C   0  0  0  0  0  0  0  0  0  0  0  0
  -12.6368   18.5898  -24.3217 C   0  0  0  0  0  0  0  0  0  0  0  0
  -17.9789   17.2805  -22.8315 C   0  0  0  0  0  0  0  0  0  0  0  0
  -16.8775   16.3106  -23.0138 C   0  0  0  0  0  0  0  0  0  0  0  0
  -15.7727   16.6751  -23.4982 O   0  0  0  0  0  0  0  0  0  0  0  0
  -17.0288   14.8962  -22.5278 C   0  0  0  0  0  0  0  0  0  0  0  0
  -16.7829   13.8563  -23.5939 C   0  0  0  0  0  0  0  0  0  0  0  0
  -17.6179   12.7818  -23.6520 N   0  0  0  0  0  0  0  0  0  0  0  0
  -17.5194   11.8383  -24.6237 C   0  0  0  0  0  0  0  0  0  0  0  0
  -16.5539   11.9618  -25.6244 C   0  0  0  0  0  0  0  0  0  0  0  0
  -16.4450   11.0124  -26.5891 N   0  0  0  0  0  0  0  0  0  0  0  0
  -15.4991   11.1087  -27.5569 C   0  0  0  0  0  0  0  0  0  0  0  0
  -14.6502   12.1675  -27.5781 N   0  0  0  0  0  0  0  0  0  0  0  0
  -14.7263   13.1627  -26.6557 C   0  0  0  0  0  0  0  0  0  0  0  0
  -13.7821   14.2417  -26.7347 N   0  0  0  0  0  0  0  0  0  0  0  0
  -12.7376   14.3335  -27.7207 C   0  0  0  0  0  0  0  0  0  0  0  0
  -12.1592   13.1838  -28.2924 C   0  0  0  0  0  0  0  0  0  0  0  0
  -11.1759   13.3065  -29.2786 C   0  0  0  0  0  0  0  0  0  0  0  0
  -10.7588   14.5709  -29.7008 C   0  0  0  0  0  0  0  0  0  0  0  0
  -11.3111   15.7183  -29.1211 C   0  0  0  0  0  0  0  0  0  0  0  0
  -10.7473   17.4478  -29.7040 Br  0  0  0  0  0  0  0  0  0  0  0  0
  -12.2927   15.5992  -28.1323 C   0  0  0  0  0  0  0  0  0  0  0  0
  -15.6857   13.0727  -25.6202 C   0  0  0  0  0  0  0  0  0  0  0  0
  -15.7981   14.0183  -24.5865 C   0  0  0  0  0  0  0  0  0  0  0  0
  1  2  1  0
  1 13  2  0
  2  3  2  0
  2  4  1  0
  4  5  1  0
  5  6  1  0
  6  7  1  0
  7  8  1  0
  8  9  1  0
  8 11  1  0
  9 10  1  0
 11 12  1  0
 13 14  1  0
 14 15  2  0
 14 16  1  0
 16 17  1  0
 17 18  2  0
 18 19  1  0
 19 20  2  0
 20 21  1  0
 21 22  2  0
 22 23  1  0
 23 24  2  0
 24 25  1  0
 24 33  1  0
 25 26  1  0
 26 27  2  0
 27 28  1  0
 28 29  2  0
 29 30  1  0
 30 31  1  0
 30 32  2  0
 32 26  1  0
 33 34  2  0
 33 20  1  0
 34 17  1  0
M  END
$$$$
CHEMBL460721_plants_07
     RDKit          3D

 34 36  0  0  0  0  0  0  0  0999 V2000
  -15.0047   19.2461  -26.7138 C   0  0  0  0  0  0  0  0  0  0  0  0
  -14.2249   18.0385  -27.0411 C   0  0  0  0  0  0  0  0  0  0  0  0
  -14.8163   17.0600  -27.5695 O   0  0  0  0  0  0  0  0  0  0  0  0
  -12.8393   17.9355  -26.6757 N   0  0  0  0  0  0  0  0  0  0  0  0
  -12.0092   16.7768  -27.0062 C   0  0  0  0  0  0  0  0  0  0  0  0
  -11.8048   16.6698  -28.5201 C   0  0  0  0  0  0  0  0  0  0  0  0
  -12.2492   15.3060  -29.0662 C   0  0  0  0  0  0  0  0  0  0  0  0
  -11.3530   14.2385  -28.5731 N   0  0  0  0  0  0  0  0  0  0  0  0
  -10.2998   13.8683  -29.5475 C   0  0  0  0  0  0  0  0  0  0  0  0
   -9.3242   15.0114  -29.8762 C   0  0  0  0  0  0  0  0  0  0  0  0
  -12.0827   13.0630  -28.0405 C   0  0  0  0  0  0  0  0  0  0  0  0
  -13.2077   13.5318  -27.1270 C   0  0  0  0  0  0  0  0  0  0  0  0
  -14.8328   20.0027  -25.6194 C   0  0  0  0  0  0  0  0  0  0  0  0
  -13.6927   19.9009  -24.6831 C   0  0  0  0  0  0  0  0  0  0  0  0
  -12.9699   20.9036  -24.4377 O   0  0  0  0  0  0  0  0  0  0  0  0
  -13.4435   18.6222  -23.9330 C   0  0  0  0  0  0  0  0  0  0  0  0
  -14.7042   17.9218  -23.4876 C   0  0  0  0  0  0  0  0  0  0  0  0
  -15.5283   18.5683  -22.6170 N   0  0  0  0  0  0  0  0  0  0  0  0
  -16.7191   18.0479  -22.2229 C   0  0  0  0  0  0  0  0  0  0  0  0
  -17.1496   16.8208  -22.7309 C   0  0  0  0  0  0  0  0  0  0  0  0
  -18.3337   16.2925  -22.3276 N   0  0  0  0  0  0  0  0  0  0  0  0
  -18.7563   15.0919  -22.7976 C   0  0  0  0  0  0  0  0  0  0  0  0
  -17.9995   14.4040  -23.6899 N   0  0  0  0  0  0  0  0  0  0  0  0
  -16.8179   14.8924  -24.1510 C   0  0  0  0  0  0  0  0  0  0  0  0
  -16.0664   14.0980  -25.0817 N   0  0  0  0  0  0  0  0  0  0  0  0
  -16.3447   12.7172  -25.3777 C   0  0  0  0  0  0  0  0  0  0  0  0
  -17.1334   11.9235  -24.5226 C   0  0  0  0  0  0  0  0  0  0  0  0
  -17.4208   10.5974  -24.8590 C   0  0  0  0  0  0  0  0  0  0  0  0
  -16.9245   10.0504  -26.0447 C   0  0  0  0  0  0  0  0  0  0  0  0
  -16.1206   10.8247  -26.8882 C   0  0  0  0  0  0  0  0  0  0  0  0
  -15.4487   10.0801  -28.5140 Br  0  0  0  0  0  0  0  0  0  0  0  0
  -15.8287   12.1507  -26.5533 C   0  0  0  0  0  0  0  0  0  0  0  0
  -16.3417   16.1290  -23.6563 C   0  0  0  0  0  0  0  0  0  0  0  0
  -15.1039   16.6835  -24.0246 C   0  0  0  0  0  0  0  0  0  0  0  0
  1  2  1  0
  1 13  2  0
  2  3  2  0
  2  4  1  0
  4  5  1  0
  5  6  1  0
  6  7  1  0
  7  8  1  0
  8  9  1  0
  8 11  1  0
  9 10  1  0
 11 12  1  0
 13 14  1  0
 14 15  2  0
 14 16  1  0
 16 17  1  0
 17 18  2  0
 18 19  1  0
 19 20  2  0
 20 21  1  0
 21 22  2  0
 22 23  1  0
 23 24  2  0
 24 25  1  0
 24 33  1  0
 25 26  1  0
 26 27  2  0
 27 28  1  0
 28 29  2  0
 29 30  1  0
 30 31  1  0
 30 32  2  0
 32 26  1  0
 33 34  2  0
 33 20  1  0
 34 17  1  0
M  END
$$$$
CHEMBL460721_plants_08
     RDKit          3D

 34 36  0  0  0  0  0  0  0  0999 V2000
  -15.8092   19.3003  -24.0357 C   0  0  0  0  0  0  0  0  0  0  0  0
  -15.6885   17.8882  -23.6296 C   0  0  0  0  0  0  0  0  0  0  0  0
  -15.9258   17.5798  -22.4316 O   0  0  0  0  0  0  0  0  0  0  0  0
  -15.2131   16.8949  -24.5523 N   0  0  0  0  0  0  0  0  0  0  0  0
  -15.1073   15.4752  -24.2143 C   0  0  0  0  0  0  0  0  0  0  0  0
  -16.4942   14.8303  -24.1391 C   0  0  0  0  0  0  0  0  0  0  0  0
  -17.1911   15.1176  -22.8021 C   0  0  0  0  0  0  0  0  0  0  0  0
  -18.2574   14.1240  -22.5547 N   0  0  0  0  0  0  0  0  0  0  0  0
  -17.7468   12.7364  -22.4561 C   0  0  0  0  0  0  0  0  0  0  0  0
  -16.4698   12.6002  -21.6091 C   0  0  0  0  0  0  0  0  0  0  0  0
  -19.4019   14.2506  -23.4885 C   0  0  0  0  0  0  0  0  0  0  0  0
  -19.1410   13.4105  -24.7321 C   0  0  0  0  0  0  0  0  0  0  0  0
  -15.2002   19.8533  -25.0955 C   0  0  0  0  0  0  0  0  0  0  0  0
  -14.5032   19.1057  -26.1643 C   0  0  0  0  0  0  0  0  0  0  0  0
  -14.9299   19.1300  -27.3498 O   0  0  0  0  0  0  0  0  0  0  0  0
  -13.2160   18.3883  -25.8679 C   0  0  0  0  0  0  0  0  0  0  0  0
  -12.9141   17.2591  -26.8229 C   0  0  0  0  0  0  0  0  0  0  0  0
  -11.9381   17.4454  -27.7545 N   0  0  0  0  0  0  0  0  0  0  0  0
  -11.5470   16.4595  -28.6026 C   0  0  0  0  0  0  0  0  0  0  0  0
  -12.1316   15.1943  -28.5226 C   0  0  0  0  0  0  0  0  0  0  0  0
  -11.7514   14.2112  -29.3787 N   0  0  0  0  0  0  0  0  0  0  0  0
  -12.3241   12.9823  -29.3259 C   0  0  0  0  0  0  0  0  0  0  0  0
  -13.2841   12.7162  -28.4041 N   0  0  0  0  0  0  0  0  0  0  0  0
  -13.6883   13.6504  -27.5035 C   0  0  0  0  0  0  0  0  0  0  0  0
  -14.7209   13.2981  -26.5698 N   0  0  0  0  0  0  0  0  0  0  0  0
  -15.5938   12.1633  -26.7176 C   0  0  0  0  0  0  0  0  0  0  0  0
  -16.7728   12.0352  -25.9581 C   0  0  0  0  0  0  0  0  0  0  0  0
  -17.6217   10.9421  -26.1548 C   0  0  0  0  0  0  0  0  0  0  0  0
  -17.3039    9.9681  -27.1043 C   0  0  0  0  0  0  0  0  0  0  0  0
  -16.1227   10.0753  -27.8464 C   0  0  0  0  0  0  0  0  0  0  0  0
  -15.6916    8.7483  -29.1511 Br  0  0  0  0  0  0  0  0  0  0  0  0
  -15.2697   11.1660  -27.6501 C   0  0  0  0  0  0  0  0  0  0  0  0
  -13.1266   14.9476  -27.5548 C   0  0  0  0  0  0  0  0  0  0  0  0
  -13.5257   15.9965  -26.7087 C   0  0  0  0  0  0  0  0  0  0  0  0
  1  2  1  0
  1 13  2  0
  2  3  2  0
  2  4  1  0
  4  5  1  0
  5  6  1  0
  6  7  1  0
  7  8  1  0
  8  9  1  0
  8 11  1  0
  9 10  1  0
 11 12  1  0
 13 14  1  0
 14 15  2  0
 14 16  1  0
 16 17  1  0
 17 18  2  0
 18 19  1  0
 19 20  2  0
 20 21  1  0
 21 22  2  0
 22 23  1  0
 23 24  2  0
 24 25  1  0
 24 33  1  0
 25 26  1  0
 26 27  2  0
 27 28  1  0
 28 29  2  0
 29 30  1  0
 30 31  1  0
 30 32  2  0
 32 26  1  0
 33 34  2  0
 33 20  1  0
 34 17  1  0
M  END
$$$$
CHEMBL460721_plants_09
     RDKit          3D

 34 36  0  0  0  0  0  0  0  0999 V2000
  -13.3394   20.1931  -25.2948 C   0  0  0  0  0  0  0  0  0  0  0  0
  -13.9152   19.2596  -26.2800 C   0  0  0  0  0  0  0  0  0  0  0  0
  -15.0518   19.5113  -26.7610 O   0  0  0  0  0  0  0  0  0  0  0  0
  -13.2431   18.0345  -26.6136 N   0  0  0  0  0  0  0  0  0  0  0  0
  -13.7504   17.0896  -27.6090 C   0  0  0  0  0  0  0  0  0  0  0  0
  -12.7181   15.9950  -27.8939 C   0  0  0  0  0  0  0  0  0  0  0  0
  -11.5088   16.5322  -28.6715 C   0  0  0  0  0  0  0  0  0  0  0  0
  -11.1855   15.6358  -29.8018 N   0  0  0  0  0  0  0  0  0  0  0  0
  -10.8503   14.2577  -29.3725 C   0  0  0  0  0  0  0  0  0  0  0  0
  -12.0764   13.3494  -29.1771 C   0  0  0  0  0  0  0  0  0  0  0  0
  -10.1836   16.2078  -30.7329 C   0  0  0  0  0  0  0  0  0  0  0  0
  -10.8923   17.0239  -31.8062 C   0  0  0  0  0  0  0  0  0  0  0  0
  -13.8271   20.4149  -24.0649 C   0  0  0  0  0  0  0  0  0  0  0  0
  -14.8691   19.6017  -23.4016 C   0  0  0  0  0  0  0  0  0  0  0  0
  -14.8098   19.3640  -22.1654 O   0  0  0  0  0  0  0  0  0  0  0  0
  -16.0684   19.1328  -24.1770 C   0  0  0  0  0  0  0  0  0  0  0  0
  -16.6214   17.8107  -23.7030 C   0  0  0  0  0  0  0  0  0  0  0  0
  -17.5524   17.8199  -22.7089 N   0  0  0  0  0  0  0  0  0  0  0  0
  -18.1600   16.6861  -22.2735 C   0  0  0  0  0  0  0  0  0  0  0  0
  -17.8570   15.4581  -22.8643 C   0  0  0  0  0  0  0  0  0  0  0  0
  -18.4534   14.3215  -22.4213 N   0  0  0  0  0  0  0  0  0  0  0  0
  -18.1546   13.1183  -22.9724 C   0  0  0  0  0  0  0  0  0  0  0  0
  -17.2565   13.0367  -23.9867 N   0  0  0  0  0  0  0  0  0  0  0  0
  -16.6460   14.1414  -24.4909 C   0  0  0  0  0  0  0  0  0  0  0  0
  -15.6951   13.9720  -25.5534 N   0  0  0  0  0  0  0  0  0  0  0  0
  -15.6034   12.7963  -26.3787 C   0  0  0  0  0  0  0  0  0  0  0  0
  -14.4458   12.5086  -27.1274 C   0  0  0  0  0  0  0  0  0  0  0  0
  -14.3715   11.3369  -27.8864 C   0  0  0  0  0  0  0  0  0  0  0  0
  -15.4467   10.4456  -27.9091 C   0  0  0  0  0  0  0  0  0  0  0  0
  -16.6096   10.7354  -27.1871 C   0  0  0  0  0  0  0  0  0  0  0  0
  -18.0771    9.5128  -27.2108 Br  0  0  0  0  0  0  0  0  0  0  0  0
  -16.6885   11.9080  -26.4292 C   0  0  0  0  0  0  0  0  0  0  0  0
  -16.9195   15.4046  -23.9160 C   0  0  0  0  0  0  0  0  0  0  0  0
  -16.2907   16.5927  -24.3262 C   0  0  0  0  0  0  0  0  0  0  0  0
  1  2  1  0
  1 13  2  0
  2  3  2  0
  2  4  1  0
  4  5  1  0
  5  6  1  0
  6  7  1  0
  7  8  1  0
  8  9  1  0
  8 11  1  0
  9 10  1  0
 11 12  1  0
 13 14  1  0
 14 15  2  0
 14 16  1  0
 16 17  1  0
 17 18  2  0
 18 19  1  0
 19 20  2  0
 20 21  1  0
 21 22  2  0
 22 23  1  0
 23 24  2  0
 24 25  1  0
 24 33  1  0
 25 26  1  0
 26 27  2  0
 27 28  1  0
 28 29  2  0
 29 30  1  0
 30 31  1  0
 30 32  2  0
 32 26  1  0
 33 34  2  0
 33 20  1  0
 34 17  1  0
M  END
$$$$
CHEMBL460721_plants_10
     RDKit          3D

 34 36  0  0  0  0  0  0  0  0999 V2000
  -14.4637   11.1846  -29.0644 C   0  0  0  0  0  0  0  0  0  0  0  0
  -13.4609   12.1304  -28.5415 C   0  0  0  0  0  0  0  0  0  0  0  0
  -12.3690   12.2573  -29.1563 O   0  0  0  0  0  0  0  0  0  0  0  0
  -13.6778   12.8220  -27.3011 N   0  0  0  0  0  0  0  0  0  0  0  0
  -12.7340   13.7969  -26.7535 C   0  0  0  0  0  0  0  0  0  0  0  0
  -12.6304   15.0231  -27.6651 C   0  0  0  0  0  0  0  0  0  0  0  0
  -11.5504   14.8504  -28.7419 C   0  0  0  0  0  0  0  0  0  0  0  0
  -11.4837   16.0524  -29.5999 N   0  0  0  0  0  0  0  0  0  0  0  0
  -10.6794   15.8460  -30.8273 C   0  0  0  0  0  0  0  0  0  0  0  0
  -10.6822   17.0499  -31.7849 C   0  0  0  0  0  0  0  0  0  0  0  0
  -11.0991   17.2780  -28.8597 C   0  0  0  0  0  0  0  0  0  0  0  0
   -9.5820   17.4142  -28.8519 C   0  0  0  0  0  0  0  0  0  0  0  0
  -15.3898   10.5551  -28.3256 C   0  0  0  0  0  0  0  0  0  0  0  0
  -15.7194   10.8732  -26.9196 C   0  0  0  0  0  0  0  0  0  0  0  0
  -14.8317   10.8341  -26.0259 O   0  0  0  0  0  0  0  0  0  0  0  0
  -17.0988   11.3470  -26.5560 C   0  0  0  0  0  0  0  0  0  0  0  0
  -17.1165   12.3936  -25.4685 C   0  0  0  0  0  0  0  0  0  0  0  0
  -17.5747   12.0364  -24.2366 N   0  0  0  0  0  0  0  0  0  0  0  0
  -17.5548   12.8892  -23.1799 C   0  0  0  0  0  0  0  0  0  0  0  0
  -17.0296   14.1743  -23.3269 C   0  0  0  0  0  0  0  0  0  0  0  0
  -17.0213   15.0329  -22.2750 N   0  0  0  0  0  0  0  0  0  0  0  0
  -16.5319   16.2914  -22.4076 C   0  0  0  0  0  0  0  0  0  0  0  0
  -16.0327   16.7071  -23.5993 N   0  0  0  0  0  0  0  0  0  0  0  0
  -15.9896   15.8859  -24.6814 C   0  0  0  0  0  0  0  0  0  0  0  0
  -15.4616   16.4039  -25.9122 N   0  0  0  0  0  0  0  0  0  0  0  0
  -14.9134   17.7259  -26.0656 C   0  0  0  0  0  0  0  0  0  0  0  0
  -15.0926   18.4663  -27.2501 C   0  0  0  0  0  0  0  0  0  0  0  0
  -14.5838   19.7644  -27.3527 C   0  0  0  0  0  0  0  0  0  0  0  0
  -13.8914   20.3339  -26.2815 C   0  0  0  0  0  0  0  0  0  0  0  0
  -13.6883   19.5965  -25.1100 C   0  0  0  0  0  0  0  0  0  0  0  0
  -12.7490   20.3778  -23.6415 Br  0  0  0  0  0  0  0  0  0  0  0  0
  -14.1934   18.2967  -25.0050 C   0  0  0  0  0  0  0  0  0  0  0  0
  -16.5183   14.5780  -24.5772 C   0  0  0  0  0  0  0  0  0  0  0  0
  -16.5762   13.6798  -25.6566 C   0  0  0  0  0  0  0  0  0  0  0  0
  1  2  1  0
  1 13  2  0
  2  3  2  0
  2  4  1  0
  4  5  1  0
  5  6  1  0
  6  7  1  0
  7  8  1  0
  8  9  1  0
  8 11  1  0
  9 10  1  0
 11 12  1  0
 13 14  1  0
 14 15  2  0
 14 16  1  0
 16 17  1  0
 17 18  2  0
 18 19  1  0
 19 20  2  0
 20 21  1  0
 21 22  2  0
 22 23  1  0
 23 24  2  0
 24 25  1  0
 24 33  1  0
 25 26  1  0
 26 27  2  0
 27 28  1  0
 28 29  2  0
 29 30  1  0
 30 31  1  0
 30 32  2  0
 32 26  1  0
 33 34  2  0
 33 20  1  0
 34 17  1  0
M  END
$$$$
CHEMBL4858409_plants_01
     RDKit          3D

 35 38  0  0  0  0  0  0  0  0999 V2000
  -14.7063   21.1820  -24.8587 O   0  0  0  0  0  0  0  0  0  0  0  0
  -15.0791   19.9970  -24.6416 C   0  0  0  0  0  0  0  0  0  0  0  0
  -15.8319   19.7020  -23.4600 N   0  0  0  0  0  0  0  0  0  0  0  0
  -15.2030   19.6196  -22.2626 O   0  0  0  0  0  0  0  0  0  0  0  0
  -14.6554   18.9060  -25.5595 C   0  0  0  0  0  0  0  0  0  0  0  0
  -13.8907   19.2112  -26.7048 C   0  0  0  0  0  0  0  0  0  0  0  0
  -13.5970   18.2201  -27.6526 C   0  0  0  0  0  0  0  0  0  0  0  0
  -14.0505   16.9123  -27.4620 C   0  0  0  0  0  0  0  0  0  0  0  0
  -14.7876   16.5856  -26.3243 C   0  0  0  0  0  0  0  0  0  0  0  0
  -15.0496   17.5584  -25.3467 C   0  0  0  0  0  0  0  0  0  0  0  0
  -15.7458   17.1632  -24.1605 N   0  0  0  0  0  0  0  0  0  0  0  0
  -16.6282   16.0216  -24.0479 C   0  0  0  0  0  0  0  0  0  0  0  0
  -16.2954   14.9024  -24.7399 N   0  0  0  0  0  0  0  0  0  0  0  0
  -17.0145   13.7541  -24.6595 C   0  0  0  0  0  0  0  0  0  0  0  0
  -16.5902   12.6015  -25.3906 N   0  0  0  0  0  0  0  0  0  0  0  0
  -15.4789   12.5716  -26.3123 C   0  0  0  0  0  0  0  0  0  0  0  0
  -15.4006   11.6272  -27.3519 C   0  0  0  0  0  0  0  0  0  0  0  0
  -14.2697   11.5827  -28.1774 C   0  0  0  0  0  0  0  0  0  0  0  0
  -13.2090   12.4819  -27.9875 C   0  0  0  0  0  0  0  0  0  0  0  0
  -12.0889   12.5127  -28.8551 O   0  0  0  0  0  0  0  0  0  0  0  0
  -10.9940   13.4344  -28.7881 C   0  0  0  0  0  0  0  0  0  0  0  0
  -11.4787   14.8258  -29.1164 C   0  0  0  0  0  0  0  0  0  0  0  0
  -12.7123   15.0909  -29.0288 O   0  0  0  0  0  0  0  0  0  0  0  0
  -10.5542   15.8667  -29.5109 N   0  0  0  0  0  0  0  0  0  0  0  0
  -10.6526   17.1923  -28.8866 C   0  0  0  0  0  0  0  0  0  0  0  0
  -10.5459   18.2806  -29.9446 C   0  0  0  0  0  0  0  0  0  0  0  0
   -9.3398   18.1134  -30.6483 O   0  0  0  0  0  0  0  0  0  0  0  0
   -9.4125   16.9918  -31.4984 C   0  0  0  0  0  0  0  0  0  0  0  0
   -9.9419   15.6895  -30.8383 C   0  0  0  0  0  0  0  0  0  0  0  0
  -13.2737   13.4019  -26.9290 C   0  0  0  0  0  0  0  0  0  0  0  0
  -14.3994   13.4424  -26.0939 C   0  0  0  0  0  0  0  0  0  0  0  0
  -18.1282   13.7131  -23.8827 N   0  0  0  0  0  0  0  0  0  0  0  0
  -18.5230   14.7949  -23.1711 C   0  0  0  0  0  0  0  0  0  0  0  0
  -17.7914   15.9888  -23.2273 C   0  0  0  0  0  0  0  0  0  0  0  0
  -18.3774   17.3071  -22.2033 Cl  0  0  0  0  0  0  0  0  0  0  0  0
  1  2  2  0
  2  3  1  0
  2  5  1  0
  3  4  1  0
  5  6  2  0
  6  7  1  0
  7  8  2  0
  8  9  1  0
  9 10  2  0
 10 11  1  0
 10  5  1  0
 11 12  1  0
 12 13  2  0
 13 14  1  0
 14 15  1  0
 14 32  2  0
 15 16  1  0
 16 17  2  0
 17 18  1  0
 18 19  2  0
 19 20  1  0
 19 30  1  0
 20 21  1  0
 21 22  1  0
 22 23  2  0
 22 24  1  0
 24 25  1  0
 25 26  1  0
 26 27  1  0
 27 28  1  0
 28 29  1  0
 29 24  1  0
 30 31  2  0
 31 16  1  0
 32 33  1  0
 33 34  2  0
 34 35  1  0
 34 12  1  0
M  END
$$$$
CHEMBL4858409_plants_02
     RDKit          3D

 35 38  0  0  0  0  0  0  0  0999 V2000
  -11.7176   18.2121  -24.1779 O   0  0  0  0  0  0  0  0  0  0  0  0
  -12.5337   19.1535  -24.3737 C   0  0  0  0  0  0  0  0  0  0  0  0
  -12.6278   20.2131  -23.4154 N   0  0  0  0  0  0  0  0  0  0  0  0
  -13.2900   20.0122  -22.2504 O   0  0  0  0  0  0  0  0  0  0  0  0
  -13.4532   19.1074  -25.5419 C   0  0  0  0  0  0  0  0  0  0  0  0
  -14.4306   20.1112  -25.7043 C   0  0  0  0  0  0  0  0  0  0  0  0
  -15.3928   20.0136  -26.7199 C   0  0  0  0  0  0  0  0  0  0  0  0
  -15.3824   18.9222  -27.5922 C   0  0  0  0  0  0  0  0  0  0  0  0
  -14.4096   17.9316  -27.4627 C   0  0  0  0  0  0  0  0  0  0  0  0
  -13.4143   18.0408  -26.4787 C   0  0  0  0  0  0  0  0  0  0  0  0
  -12.3925   17.0402  -26.4280 N   0  0  0  0  0  0  0  0  0  0  0  0
  -12.1985   15.9904  -27.4051 C   0  0  0  0  0  0  0  0  0  0  0  0
  -12.8661   14.8244  -27.2122 N   0  0  0  0  0  0  0  0  0  0  0  0
  -12.8084   13.7959  -28.0960 C   0  0  0  0  0  0  0  0  0  0  0  0
  -13.5620   12.6071  -27.8474 N   0  0  0  0  0  0  0  0  0  0  0  0
  -14.7365   12.5340  -27.0104 C   0  0  0  0  0  0  0  0  0  0  0  0
  -15.3903   11.3158  -26.7516 C   0  0  0  0  0  0  0  0  0  0  0  0
  -16.5704   11.2978  -25.9969 C   0  0  0  0  0  0  0  0  0  0  0  0
  -17.1087   12.4871  -25.4816 C   0  0  0  0  0  0  0  0  0  0  0  0
  -18.2559   12.4910  -24.6495 O   0  0  0  0  0  0  0  0  0  0  0  0
  -18.8577   13.6430  -24.0466 C   0  0  0  0  0  0  0  0  0  0  0  0
  -17.8454   14.3512  -23.1791 C   0  0  0  0  0  0  0  0  0  0  0  0
  -17.2675   13.7140  -22.2520 O   0  0  0  0  0  0  0  0  0  0  0  0
  -17.5106   15.7412  -23.4023 N   0  0  0  0  0  0  0  0  0  0  0  0
  -16.0993   16.1460  -23.4346 C   0  0  0  0  0  0  0  0  0  0  0  0
  -15.8978   17.4147  -22.6191 C   0  0  0  0  0  0  0  0  0  0  0  0
  -16.7490   18.4163  -23.1191 O   0  0  0  0  0  0  0  0  0  0  0  0
  -18.0885   18.1474  -22.7733 C   0  0  0  0  0  0  0  0  0  0  0  0
  -18.5750   16.7024  -23.0689 C   0  0  0  0  0  0  0  0  0  0  0  0
  -16.4735   13.7058  -25.7685 C   0  0  0  0  0  0  0  0  0  0  0  0
  -15.2979   13.7289  -26.5325 C   0  0  0  0  0  0  0  0  0  0  0  0
  -12.0368   13.9098  -29.2082 N   0  0  0  0  0  0  0  0  0  0  0  0
  -11.3380   15.0414  -29.4600 C   0  0  0  0  0  0  0  0  0  0  0  0
  -11.3899   16.1223  -28.5697 C   0  0  0  0  0  0  0  0  0  0  0  0
  -10.4812   17.5639  -29.0451 Cl  0  0  0  0  0  0  0  0  0  0  0  0
  1  2  2  0
  2  3  1  0
  2  5  1  0
  3  4  1  0
  5  6  2  0
  6  7  1  0
  7  8  2  0
  8  9  1  0
  9 10  2  0
 10 11  1  0
 10  5  1  0
 11 12  1  0
 12 13  2  0
 13 14  1  0
 14 15  1  0
 14 32  2  0
 15 16  1  0
 16 17  2  0
 17 18  1  0
 18 19  2  0
 19 20  1  0
 19 30  1  0
 20 21  1  0
 21 22  1  0
 22 23  2  0
 22 24  1  0
 24 25  1  0
 25 26  1  0
 26 27  1  0
 27 28  1  0
 28 29  1  0
 29 24  1  0
 30 31  2  0
 31 16  1  0
 32 33  1  0
 33 34  2  0
 34 35  1  0
 34 12  1  0
M  END
$$$$
CHEMBL4858409_plants_03
     RDKit          3D

 35 38  0  0  0  0  0  0  0  0999 V2000
  -13.8657   19.4118  -27.6511 O   0  0  0  0  0  0  0  0  0  0  0  0
  -14.6742   19.1018  -26.7342 C   0  0  0  0  0  0  0  0  0  0  0  0
  -15.5104   20.1136  -26.1624 N   0  0  0  0  0  0  0  0  0  0  0  0
  -14.9915   20.9943  -25.2729 O   0  0  0  0  0  0  0  0  0  0  0  0
  -14.6854   17.7169  -26.1918 C   0  0  0  0  0  0  0  0  0  0  0  0
  -15.6152   17.3635  -25.1917 C   0  0  0  0  0  0  0  0  0  0  0  0
  -15.5543   16.1072  -24.5715 C   0  0  0  0  0  0  0  0  0  0  0  0
  -14.5752   15.1854  -24.9510 C   0  0  0  0  0  0  0  0  0  0  0  0
  -13.6619   15.5072  -25.9544 C   0  0  0  0  0  0  0  0  0  0  0  0
  -13.7408   16.7441  -26.6137 C   0  0  0  0  0  0  0  0  0  0  0  0
  -12.8307   17.0042  -27.6870 N   0  0  0  0  0  0  0  0  0  0  0  0
  -12.0368   16.0071  -28.3726 C   0  0  0  0  0  0  0  0  0  0  0  0
  -12.4467   14.7158  -28.2910 N   0  0  0  0  0  0  0  0  0  0  0  0
  -11.8159   13.7074  -28.9447 C   0  0  0  0  0  0  0  0  0  0  0  0
  -12.3193   12.3737  -28.8410 N   0  0  0  0  0  0  0  0  0  0  0  0
  -13.5926   12.0146  -28.2620 C   0  0  0  0  0  0  0  0  0  0  0  0
  -14.1968   12.7897  -27.2557 C   0  0  0  0  0  0  0  0  0  0  0  0
  -15.3951   12.3663  -26.6665 C   0  0  0  0  0  0  0  0  0  0  0  0
  -16.0129   11.1748  -27.0770 C   0  0  0  0  0  0  0  0  0  0  0  0
  -17.2643   10.7619  -26.5558 O   0  0  0  0  0  0  0  0  0  0  0  0
  -17.4715   10.0056  -25.3568 C   0  0  0  0  0  0  0  0  0  0  0  0
  -17.2987   10.9007  -24.1536 C   0  0  0  0  0  0  0  0  0  0  0  0
  -16.8921   10.4049  -23.0635 O   0  0  0  0  0  0  0  0  0  0  0  0
  -17.5716   12.3197  -24.2312 N   0  0  0  0  0  0  0  0  0  0  0  0
  -16.6004   13.2715  -23.6764 C   0  0  0  0  0  0  0  0  0  0  0  0
  -17.3171   14.3401  -22.8643 C   0  0  0  0  0  0  0  0  0  0  0  0
  -18.2700   14.9709  -23.6839 O   0  0  0  0  0  0  0  0  0  0  0  0
  -19.3624   14.1138  -23.9252 C   0  0  0  0  0  0  0  0  0  0  0  0
  -18.9922   12.6762  -24.3818 C   0  0  0  0  0  0  0  0  0  0  0  0
  -15.3918   10.3855  -28.0580 C   0  0  0  0  0  0  0  0  0  0  0  0
  -14.1867   10.8007  -28.6425 C   0  0  0  0  0  0  0  0  0  0  0  0
  -10.7144   13.9783  -29.6921 N   0  0  0  0  0  0  0  0  0  0  0  0
  -10.2456   15.2425  -29.8116 C   0  0  0  0  0  0  0  0  0  0  0  0
  -10.8856   16.3032  -29.1567 C   0  0  0  0  0  0  0  0  0  0  0  0
  -10.2110   17.9132  -29.4440 Cl  0  0  0  0  0  0  0  0  0  0  0  0
  1  2  2  0
  2  3  1  0
  2  5  1  0
  3  4  1  0
  5  6  2  0
  6  7  1  0
  7  8  2  0
  8  9  1  0
  9 10  2  0
 10 11  1  0
 10  5  1  0
 11 12  1  0
 12 13  2  0
 13 14  1  0
 14 15  1  0
 14 32  2  0
 15 16  1  0
 16 17  2  0
 17 18  1  0
 18 19  2  0
 19 20  1  0
 19 30  1  0
 20 21  1  0
 21 22  1  0
 22 23  2  0
 22 24  1  0
 24 25  1  0
 25 26  1  0
 26 27  1  0
 27 28  1  0
 28 29  1  0
 29 24  1  0
 30 31  2  0
 31 16  1  0
 32 33  1  0
 33 34  2  0
 34 35  1  0
 34 12  1  0
M  END
$$$$
CHEMBL4858409_plants_04
     RDKit          3D

 35 38  0  0  0  0  0  0  0  0999 V2000
  -12.0907   12.2085  -29.0911 O   0  0  0  0  0  0  0  0  0  0  0  0
  -11.9698   13.4636  -29.1159 C   0  0  0  0  0  0  0  0  0  0  0  0
  -10.9281   14.0542  -29.9008 N   0  0  0  0  0  0  0  0  0  0  0  0
   -9.6510   14.0382  -29.4484 O   0  0  0  0  0  0  0  0  0  0  0  0
  -12.8438   14.3102  -28.2605 C   0  0  0  0  0  0  0  0  0  0  0  0
  -12.6750   15.7106  -28.2555 C   0  0  0  0  0  0  0  0  0  0  0  0
  -13.3937   16.5135  -27.3581 C   0  0  0  0  0  0  0  0  0  0  0  0
  -14.2978   15.9309  -26.4663 C   0  0  0  0  0  0  0  0  0  0  0  0
  -14.4962   14.5507  -26.4721 C   0  0  0  0  0  0  0  0  0  0  0  0
  -13.8161   13.7414  -27.3958 C   0  0  0  0  0  0  0  0  0  0  0  0
  -14.1041   12.3397  -27.4165 N   0  0  0  0  0  0  0  0  0  0  0  0
  -15.3671   11.7383  -27.0455 C   0  0  0  0  0  0  0  0  0  0  0  0
  -16.1148   12.3785  -26.1109 N   0  0  0  0  0  0  0  0  0  0  0  0
  -17.3422   11.9396  -25.7328 C   0  0  0  0  0  0  0  0  0  0  0  0
  -18.0906   12.6795  -24.7657 N   0  0  0  0  0  0  0  0  0  0  0  0
  -17.6370   13.8889  -24.1198 C   0  0  0  0  0  0  0  0  0  0  0  0
  -16.2720   14.2170  -24.0306 C   0  0  0  0  0  0  0  0  0  0  0  0
  -15.8684   15.3607  -23.3295 C   0  0  0  0  0  0  0  0  0  0  0  0
  -16.8154   16.1973  -22.7187 C   0  0  0  0  0  0  0  0  0  0  0  0
  -16.4434   17.4017  -22.0711 O   0  0  0  0  0  0  0  0  0  0  0  0
  -17.1912   18.6237  -22.0668 C   0  0  0  0  0  0  0  0  0  0  0  0
  -17.2071   19.2161  -23.4552 C   0  0  0  0  0  0  0  0  0  0  0  0
  -18.3112   19.3698  -24.0526 O   0  0  0  0  0  0  0  0  0  0  0  0
  -15.9828   19.6291  -24.1068 N   0  0  0  0  0  0  0  0  0  0  0  0
  -15.9232   20.9417  -24.7627 C   0  0  0  0  0  0  0  0  0  0  0  0
  -15.2605   20.8178  -26.1267 C   0  0  0  0  0  0  0  0  0  0  0  0
  -13.9853   20.2480  -25.9623 O   0  0  0  0  0  0  0  0  0  0  0  0
  -14.0906   18.8783  -25.6478 C   0  0  0  0  0  0  0  0  0  0  0  0
  -15.0867   18.5318  -24.5078 C   0  0  0  0  0  0  0  0  0  0  0  0
  -18.1745   15.8509  -22.7803 C   0  0  0  0  0  0  0  0  0  0  0  0
  -18.5815   14.7011  -23.4721 C   0  0  0  0  0  0  0  0  0  0  0  0
  -17.8461   10.8030  -26.2801 N   0  0  0  0  0  0  0  0  0  0  0  0
  -17.1514   10.1097  -27.2124 C   0  0  0  0  0  0  0  0  0  0  0  0
  -15.8872   10.5480  -27.6289 C   0  0  0  0  0  0  0  0  0  0  0  0
  -15.1115    9.5881  -28.8964 Cl  0  0  0  0  0  0  0  0  0  0  0  0
  1  2  2  0
  2  3  1  0
  2  5  1  0
  3  4  1  0
  5  6  2  0
  6  7  1  0
  7  8  2  0
  8  9  1  0
  9 10  2  0
 10 11  1  0
 10  5  1  0
 11 12  1  0
 12 13  2  0
 13 14  1  0
 14 15  1  0
 14 32  2  0
 15 16  1  0
 16 17  2  0
 17 18  1  0
 18 19  2  0
 19 20  1  0
 19 30  1  0
 20 21  1  0
 21 22  1  0
 22 23  2  0
 22 24  1  0
 24 25  1  0
 25 26  1  0
 26 27  1  0
 27 28  1  0
 28 29  1  0
 29 24  1  0
 30 31  2  0
 31 16  1  0
 32 33  1  0
 33 34  2  0
 34 35  1  0
 34 12  1  0
M  END
$$$$
CHEMBL4858409_plants_05
     RDKit          3D

 35 38  0  0  0  0  0  0  0  0999 V2000
  -12.3990   17.7771  -28.2040 O   0  0  0  0  0  0  0  0  0  0  0  0
  -12.1712   16.5382  -28.1433 C   0  0  0  0  0  0  0  0  0  0  0  0
  -11.0762   15.9876  -28.8834 N   0  0  0  0  0  0  0  0  0  0  0  0
  -11.1916   15.8014  -30.2205 O   0  0  0  0  0  0  0  0  0  0  0  0
  -13.0928   15.6507  -27.3847 C   0  0  0  0  0  0  0  0  0  0  0  0
  -12.8411   14.2640  -27.3274 C   0  0  0  0  0  0  0  0  0  0  0  0
  -13.7674   13.3938  -26.7346 C   0  0  0  0  0  0  0  0  0  0  0  0
  -14.9469   13.8979  -26.1807 C   0  0  0  0  0  0  0  0  0  0  0  0
  -15.2027   15.2684  -26.2063 C   0  0  0  0  0  0  0  0  0  0  0  0
  -14.2627   16.1540  -26.7567 C   0  0  0  0  0  0  0  0  0  0  0  0
  -14.5317   17.5583  -26.6962 N   0  0  0  0  0  0  0  0  0  0  0  0
  -15.2138   18.2350  -25.6140 C   0  0  0  0  0  0  0  0  0  0  0  0
  -16.0800   17.5050  -24.8663 N   0  0  0  0  0  0  0  0  0  0  0  0
  -16.7268   18.0190  -23.7894 C   0  0  0  0  0  0  0  0  0  0  0  0
  -17.6019   17.1856  -23.0262 N   0  0  0  0  0  0  0  0  0  0  0  0
  -17.6307   15.7431  -23.0883 C   0  0  0  0  0  0  0  0  0  0  0  0
  -18.7640   15.0048  -22.7021 C   0  0  0  0  0  0  0  0  0  0  0  0
  -18.7252   13.6045  -22.7049 C   0  0  0  0  0  0  0  0  0  0  0  0
  -17.5651   12.9213  -23.1014 C   0  0  0  0  0  0  0  0  0  0  0  0
  -17.5220   11.5076  -23.1900 O   0  0  0  0  0  0  0  0  0  0  0  0
  -17.9707   10.7169  -24.2973 C   0  0  0  0  0  0  0  0  0  0  0  0
  -17.4046   11.2719  -25.5820 C   0  0  0  0  0  0  0  0  0  0  0  0
  -17.5539   12.4994  -25.8477 O   0  0  0  0  0  0  0  0  0  0  0  0
  -16.6773   10.4280  -26.5055 N   0  0  0  0  0  0  0  0  0  0  0  0
  -15.3972   10.8951  -27.0530 C   0  0  0  0  0  0  0  0  0  0  0  0
  -15.3382   10.6305  -28.5502 C   0  0  0  0  0  0  0  0  0  0  0  0
  -15.5437    9.2579  -28.7775 O   0  0  0  0  0  0  0  0  0  0  0  0
  -16.8911    8.9134  -28.5499 C   0  0  0  0  0  0  0  0  0  0  0  0
  -17.4929    9.4272  -27.2135 C   0  0  0  0  0  0  0  0  0  0  0  0
  -16.4242   13.6591  -23.4548 C   0  0  0  0  0  0  0  0  0  0  0  0
  -16.4558   15.0610  -23.4429 C   0  0  0  0  0  0  0  0  0  0  0  0
  -16.5326   19.3194  -23.4481 N   0  0  0  0  0  0  0  0  0  0  0  0
  -15.6885   20.1078  -24.1541 C   0  0  0  0  0  0  0  0  0  0  0  0
  -14.9995   19.5982  -25.2629 C   0  0  0  0  0  0  0  0  0  0  0  0
  -13.8810   20.7126  -26.0610 Cl  0  0  0  0  0  0  0  0  0  0  0  0
  1  2  2  0
  2  3  1  0
  2  5  1  0
  3  4  1  0
  5  6  2  0
  6  7  1  0
  7  8  2  0
  8  9  1  0
  9 10  2  0
 10 11  1  0
 10  5  1  0
 11 12  1  0
 12 13  2  0
 13 14  1  0
 14 15  1  0
 14 32  2  0
 15 16  1  0
 16 17  2  0
 17 18  1  0
 18 19  2  0
 19 20  1  0
 19 30  1  0
 20 21  1  0
 21 22  1  0
 22 23  2  0
 22 24  1  0
 24 25  1  0
 25 26  1  0
 26 27  1  0
 27 28  1  0
 28 29  1  0
 29 24  1  0
 30 31  2  0
 31 16  1  0
 32 33  1  0
 33 34  2  0
 34 35  1  0
 34 12  1  0
M  END
$$$$
CHEMBL4858409_plants_06
     RDKit          3D

 35 38  0  0  0  0  0  0  0  0999 V2000
  -15.2174   18.1646  -27.6136 O   0  0  0  0  0  0  0  0  0  0  0  0
  -14.8644   18.5804  -26.4766 C   0  0  0  0  0  0  0  0  0  0  0  0
  -15.6931   19.5196  -25.7829 N   0  0  0  0  0  0  0  0  0  0  0  0
  -15.6902   20.8233  -26.1523 O   0  0  0  0  0  0  0  0  0  0  0  0
  -13.5522   18.1682  -25.9103 C   0  0  0  0  0  0  0  0  0  0  0  0
  -13.1076   18.7264  -24.6937 C   0  0  0  0  0  0  0  0  0  0  0  0
  -11.8184   18.4556  -24.2125 C   0  0  0  0  0  0  0  0  0  0  0  0
  -10.9646   17.6152  -24.9314 C   0  0  0  0  0  0  0  0  0  0  0  0
  -11.3944   17.0348  -26.1242 C   0  0  0  0  0  0  0  0  0  0  0  0
  -12.6979   17.2623  -26.5931 C   0  0  0  0  0  0  0  0  0  0  0  0
  -13.1223   16.5888  -27.7823 N   0  0  0  0  0  0  0  0  0  0  0  0
  -12.6211   15.3132  -28.2470 C   0  0  0  0  0  0  0  0  0  0  0  0
  -13.3550   14.2088  -27.9570 N   0  0  0  0  0  0  0  0  0  0  0  0
  -13.0140   12.9704  -28.3953 C   0  0  0  0  0  0  0  0  0  0  0  0
  -13.8491   11.8541  -28.0801 N   0  0  0  0  0  0  0  0  0  0  0  0
  -15.0257   11.9131  -27.2449 C   0  0  0  0  0  0  0  0  0  0  0  0
  -15.2745   12.9996  -26.3869 C   0  0  0  0  0  0  0  0  0  0  0  0
  -16.3879   12.9833  -25.5369 C   0  0  0  0  0  0  0  0  0  0  0  0
  -17.2727   11.8938  -25.5368 C   0  0  0  0  0  0  0  0  0  0  0  0
  -18.4489   11.8844  -24.7465 O   0  0  0  0  0  0  0  0  0  0  0  0
  -18.5081   11.7399  -23.3223 C   0  0  0  0  0  0  0  0  0  0  0  0
  -17.6886   12.8245  -22.6659 C   0  0  0  0  0  0  0  0  0  0  0  0
  -16.8667   12.5171  -21.7551 O   0  0  0  0  0  0  0  0  0  0  0  0
  -17.8130   14.2072  -23.0741 N   0  0  0  0  0  0  0  0  0  0  0  0
  -16.6001   14.9969  -23.3228 C   0  0  0  0  0  0  0  0  0  0  0  0
  -16.7247   16.3689  -22.6768 C   0  0  0  0  0  0  0  0  0  0  0  0
  -17.8801   17.0005  -23.1709 O   0  0  0  0  0  0  0  0  0  0  0  0
  -19.0393   16.4035  -22.6361 C   0  0  0  0  0  0  0  0  0  0  0  0
  -19.0866   14.8532  -22.7153 C   0  0  0  0  0  0  0  0  0  0  0  0
  -17.0050   10.7956  -26.3695 C   0  0  0  0  0  0  0  0  0  0  0  0
  -15.8855   10.8036  -27.2139 C   0  0  0  0  0  0  0  0  0  0  0  0
  -11.8837   12.8069  -29.1309 N   0  0  0  0  0  0  0  0  0  0  0  0
  -11.1003   13.8634  -29.4509 C   0  0  0  0  0  0  0  0  0  0  0  0
  -11.4364   15.1541  -29.0209 C   0  0  0  0  0  0  0  0  0  0  0  0
  -10.3645   16.4550  -29.5580 Cl  0  0  0  0  0  0  0  0  0  0  0  0
  1  2  2  0
  2  3  1  0
  2  5  1  0
  3  4  1  0
  5  6  2  0
  6  7  1  0
  7  8  2  0
  8  9  1  0
  9 10  2  0
 10 11  1  0
 10  5  1  0
 11 12  1  0
 12 13  2  0
 13 14  1  0
 14 15  1  0
 14 32  2  0
 15 16  1  0
 16 17  2  0
 17 18  1  0
 18 19  2  0
 19 20  1  0
 19 30  1  0
 20 21  1  0
 21 22  1  0
 22 23  2  0
 22 24  1  0
 24 25  1  0
 25 26  1  0
 26 27  1  0
 27 28  1  0
 28 29  1  0
 29 24  1  0
 30 31  2  0
 31 16  1  0
 32 33  1  0
 33 34  2  0
 34 35  1  0
 34 12  1  0
M  END
$$$$
CHEMBL4858409_plants_07
     RDKit          3D

 35 38  0  0  0  0  0  0  0  0999 V2000
  -13.0051   12.1846  -28.6418 O   0  0  0  0  0  0  0  0  0  0  0  0
  -14.0184   12.4185  -27.9284 C   0  0  0  0  0  0  0  0  0  0  0  0
  -14.0714   13.6225  -27.1554 N   0  0  0  0  0  0  0  0  0  0  0  0
  -13.3613   13.7176  -26.0053 O   0  0  0  0  0  0  0  0  0  0  0  0
  -15.1010   11.4041  -27.8220 C   0  0  0  0  0  0  0  0  0  0  0  0
  -15.1503   10.3331  -28.7386 C   0  0  0  0  0  0  0  0  0  0  0  0
  -16.2353    9.4446  -28.7414 C   0  0  0  0  0  0  0  0  0  0  0  0
  -17.2751    9.6060  -27.8221 C   0  0  0  0  0  0  0  0  0  0  0  0
  -17.2330   10.6444  -26.8924 C   0  0  0  0  0  0  0  0  0  0  0  0
  -16.1309   11.5130  -26.8504 C   0  0  0  0  0  0  0  0  0  0  0  0
  -16.0937   12.5191  -25.8333 N   0  0  0  0  0  0  0  0  0  0  0  0
  -16.8932   12.5209  -24.6269 C   0  0  0  0  0  0  0  0  0  0  0  0
  -17.3482   13.7187  -24.1793 N   0  0  0  0  0  0  0  0  0  0  0  0
  -18.1571   13.8330  -23.0954 C   0  0  0  0  0  0  0  0  0  0  0  0
  -18.6265   15.1227  -22.6964 N   0  0  0  0  0  0  0  0  0  0  0  0
  -18.0196   16.3765  -23.0776 C   0  0  0  0  0  0  0  0  0  0  0  0
  -16.7668   16.4325  -23.7149 C   0  0  0  0  0  0  0  0  0  0  0  0
  -16.1779   17.6713  -23.9996 C   0  0  0  0  0  0  0  0  0  0  0  0
  -16.8305   18.8680  -23.6651 C   0  0  0  0  0  0  0  0  0  0  0  0
  -16.2965   20.1342  -24.0114 O   0  0  0  0  0  0  0  0  0  0  0  0
  -15.9423   20.5693  -25.3297 C   0  0  0  0  0  0  0  0  0  0  0  0
  -14.5875   20.0172  -25.7015 C   0  0  0  0  0  0  0  0  0  0  0  0
  -13.6053   20.8057  -25.8164 O   0  0  0  0  0  0  0  0  0  0  0  0
  -14.3887   18.5991  -25.9098 N   0  0  0  0  0  0  0  0  0  0  0  0
  -13.2422   17.9321  -25.2794 C   0  0  0  0  0  0  0  0  0  0  0  0
  -12.5552   17.0123  -26.2779 C   0  0  0  0  0  0  0  0  0  0  0  0
  -13.4980   16.0934  -26.7725 O   0  0  0  0  0  0  0  0  0  0  0  0
  -14.3990   16.7300  -27.6493 C   0  0  0  0  0  0  0  0  0  0  0  0
  -15.0240   18.0492  -27.1190 C   0  0  0  0  0  0  0  0  0  0  0  0
  -18.0652   18.8105  -22.9995 C   0  0  0  0  0  0  0  0  0  0  0  0
  -18.6529   17.5723  -22.7032 C   0  0  0  0  0  0  0  0  0  0  0  0
  -18.5133   12.7193  -22.4039 N   0  0  0  0  0  0  0  0  0  0  0  0
  -18.0896   11.4929  -22.7896 C   0  0  0  0  0  0  0  0  0  0  0  0
  -17.2636   11.3464  -23.9121 C   0  0  0  0  0  0  0  0  0  0  0  0
  -16.8311    9.6868  -24.3463 Cl  0  0  0  0  0  0  0  0  0  0  0  0
  1  2  2  0
  2  3  1  0
  2  5  1  0
  3  4  1  0
  5  6  2  0
  6  7  1  0
  7  8  2  0
  8  9  1  0
  9 10  2  0
 10 11  1  0
 10  5  1  0
 11 12  1  0
 12 13  2  0
 13 14  1  0
 14 15  1  0
 14 32  2  0
 15 16  1  0
 16 17  2  0
 17 18  1  0
 18 19  2  0
 19 20  1  0
 19 30  1  0
 20 21  1  0
 21 22  1  0
 22 23  2  0
 22 24  1  0
 24 25  1  0
 25 26  1  0
 26 27  1  0
 27 28  1  0
 28 29  1  0
 29 24  1  0
 30 31  2  0
 31 16  1  0
 32 33  1  0
 33 34  2  0
 34 35  1  0
 34 12  1  0
M  END
$$$$
CHEMBL4858409_plants_08
     RDKit          3D

 35 38  0  0  0  0  0  0  0  0999 V2000
  -13.1746   16.7890  -23.5540 O   0  0  0  0  0  0  0  0  0  0  0  0
  -13.5368   17.9886  -23.6955 C   0  0  0  0  0  0  0  0  0  0  0  0
  -13.5984   18.8444  -22.5493 N   0  0  0  0  0  0  0  0  0  0  0  0
  -14.6337   18.7368  -21.6819 O   0  0  0  0  0  0  0  0  0  0  0  0
  -13.9857   18.4759  -25.0273 C   0  0  0  0  0  0  0  0  0  0  0  0
  -14.4489   19.8006  -25.1691 C   0  0  0  0  0  0  0  0  0  0  0  0
  -15.0024   20.2379  -26.3811 C   0  0  0  0  0  0  0  0  0  0  0  0
  -15.0873   19.3641  -27.4680 C   0  0  0  0  0  0  0  0  0  0  0  0
  -14.6130   18.0577  -27.3550 C   0  0  0  0  0  0  0  0  0  0  0  0
  -14.0161   17.6219  -26.1614 C   0  0  0  0  0  0  0  0  0  0  0  0
  -13.4766   16.2973  -26.1126 N   0  0  0  0  0  0  0  0  0  0  0  0
  -12.8504   15.6063  -27.2193 C   0  0  0  0  0  0  0  0  0  0  0  0
  -13.1245   14.2853  -27.3682 N   0  0  0  0  0  0  0  0  0  0  0  0
  -12.6435   13.5527  -28.4046 C   0  0  0  0  0  0  0  0  0  0  0  0
  -12.9971   12.1726  -28.5191 N   0  0  0  0  0  0  0  0  0  0  0  0
  -14.2194   11.5892  -28.0180 C   0  0  0  0  0  0  0  0  0  0  0  0
  -14.8427   10.5037  -28.6597 C   0  0  0  0  0  0  0  0  0  0  0  0
  -16.0673   10.0158  -28.1856 C   0  0  0  0  0  0  0  0  0  0  0  0
  -16.6815   10.5926  -27.0632 C   0  0  0  0  0  0  0  0  0  0  0  0
  -17.8791   10.0707  -26.5139 O   0  0  0  0  0  0  0  0  0  0  0  0
  -18.8703   10.8120  -25.7924 C   0  0  0  0  0  0  0  0  0  0  0  0
  -18.2997   11.2767  -24.4745 C   0  0  0  0  0  0  0  0  0  0  0  0
  -18.0768   10.4309  -23.5610 O   0  0  0  0  0  0  0  0  0  0  0  0
  -17.9850   12.6704  -24.2450 N   0  0  0  0  0  0  0  0  0  0  0  0
  -16.6901   13.0284  -23.6518 C   0  0  0  0  0  0  0  0  0  0  0  0
  -16.8818   14.0759  -22.5649 C   0  0  0  0  0  0  0  0  0  0  0  0
  -17.5385   15.1897  -23.1180 O   0  0  0  0  0  0  0  0  0  0  0  0
  -18.8922   14.8918  -23.3724 C   0  0  0  0  0  0  0  0  0  0  0  0
  -19.1494   13.5652  -24.1379 C   0  0  0  0  0  0  0  0  0  0  0  0
  -16.0750   11.6970  -26.4439 C   0  0  0  0  0  0  0  0  0  0  0  0
  -14.8544   12.1949  -26.9220 C   0  0  0  0  0  0  0  0  0  0  0  0
  -11.8334   14.1410  -29.3228 N   0  0  0  0  0  0  0  0  0  0  0  0
  -11.5124   15.4529  -29.2318 C   0  0  0  0  0  0  0  0  0  0  0  0
  -12.0056   16.2342  -28.1782 C   0  0  0  0  0  0  0  0  0  0  0  0
  -11.5627   17.9468  -28.2084 Cl  0  0  0  0  0  0  0  0  0  0  0  0
  1  2  2  0
  2  3  1  0
  2  5  1  0
  3  4  1  0
  5  6  2  0
  6  7  1  0
  7  8  2  0
  8  9  1  0
  9 10  2  0
 10 11  1  0
 10  5  1  0
 11 12  1  0
 12 13  2  0
 13 14  1  0
 14 15  1  0
 14 32  2  0
 15 16  1  0
 16 17  2  0
 17 18  1  0
 18 19  2  0
 19 20  1  0
 19 30  1  0
 20 21  1  0
 21 22  1  0
 22 23  2  0
 22 24  1  0
 24 25  1  0
 25 26  1  0
 26 27  1  0
 27 28  1  0
 28 29  1  0
 29 24  1  0
 30 31  2  0
 31 16  1  0
 32 33  1  0
 33 34  2  0
 34 35  1  0
 34 12  1  0
M  END
$$$$
CHEMBL4858409_plants_09
     RDKit          3D

 35 38  0  0  0  0  0  0  0  0999 V2000
  -16.4627    9.1835  -28.2610 O   0  0  0  0  0  0  0  0  0  0  0  0
  -16.4434   10.0743  -27.3685 C   0  0  0  0  0  0  0  0  0  0  0  0
  -17.4226   10.0447  -26.3243 N   0  0  0  0  0  0  0  0  0  0  0  0
  -18.6878   10.4605  -26.5740 O   0  0  0  0  0  0  0  0  0  0  0  0
  -15.4699   11.1951  -27.4599 C   0  0  0  0  0  0  0  0  0  0  0  0
  -14.4832   11.1858  -28.4678 C   0  0  0  0  0  0  0  0  0  0  0  0
  -13.4744   12.1598  -28.4888 C   0  0  0  0  0  0  0  0  0  0  0  0
  -13.4465   13.1606  -27.5142 C   0  0  0  0  0  0  0  0  0  0  0  0
  -14.4270   13.2006  -26.5234 C   0  0  0  0  0  0  0  0  0  0  0  0
  -15.4673   12.2581  -26.5182 C   0  0  0  0  0  0  0  0  0  0  0  0
  -16.4930   12.3798  -25.5277 N   0  0  0  0  0  0  0  0  0  0  0  0
  -16.6719   13.5096  -24.6412 C   0  0  0  0  0  0  0  0  0  0  0  0
  -16.2568   14.7240  -25.0831 N   0  0  0  0  0  0  0  0  0  0  0  0
  -16.4314   15.8611  -24.3630 C   0  0  0  0  0  0  0  0  0  0  0  0
  -15.9989   17.1125  -24.9015 N   0  0  0  0  0  0  0  0  0  0  0  0
  -14.8484   17.2899  -25.7562 C   0  0  0  0  0  0  0  0  0  0  0  0
  -14.5197   18.5404  -26.3100 C   0  0  0  0  0  0  0  0  0  0  0  0
  -13.4398   18.6552  -27.1951 C   0  0  0  0  0  0  0  0  0  0  0  0
  -12.6677   17.5325  -27.5317 C   0  0  0  0  0  0  0  0  0  0  0  0
  -11.5229   17.6323  -28.3610 O   0  0  0  0  0  0  0  0  0  0  0  0
  -11.4903   18.1506  -29.6963 C   0  0  0  0  0  0  0  0  0  0  0  0
  -10.5820   17.2999  -30.5508 C   0  0  0  0  0  0  0  0  0  0  0  0
  -10.3975   17.6114  -31.7626 O   0  0  0  0  0  0  0  0  0  0  0  0
   -9.9034   16.1455  -30.0024 N   0  0  0  0  0  0  0  0  0  0  0  0
   -8.4713   15.9580  -30.2680 C   0  0  0  0  0  0  0  0  0  0  0  0
   -8.1926   14.5119  -30.6502 C   0  0  0  0  0  0  0  0  0  0  0  0
   -8.6561   13.6726  -29.6214 O   0  0  0  0  0  0  0  0  0  0  0  0
  -10.0646   13.6269  -29.6147 C   0  0  0  0  0  0  0  0  0  0  0  0
  -10.7755   15.0066  -29.6699 C   0  0  0  0  0  0  0  0  0  0  0  0
  -13.0172   16.2793  -27.0042 C   0  0  0  0  0  0  0  0  0  0  0  0
  -14.1039   16.1586  -26.1263 C   0  0  0  0  0  0  0  0  0  0  0  0
  -17.0178   15.7968  -23.1393 N   0  0  0  0  0  0  0  0  0  0  0  0
  -17.4490   14.6177  -22.6331 C   0  0  0  0  0  0  0  0  0  0  0  0
  -17.2916   13.4309  -23.3616 C   0  0  0  0  0  0  0  0  0  0  0  0
  -17.9528   11.9691  -22.6162 Cl  0  0  0  0  0  0  0  0  0  0  0  0
  1  2  2  0
  2  3  1  0
  2  5  1  0
  3  4  1  0
  5  6  2  0
  6  7  1  0
  7  8  2  0
  8  9  1  0
  9 10  2  0
 10 11  1  0
 10  5  1  0
 11 12  1  0
 12 13  2  0
 13 14  1  0
 14 15  1  0
 14 32  2  0
 15 16  1  0
 16 17  2  0
 17 18  1  0
 18 19  2  0
 19 20  1  0
 19 30  1  0
 20 21  1  0
 21 22  1  0
 22 23  2  0
 22 24  1  0
 24 25  1  0
 25 26  1  0
 26 27  1  0
 27 28  1  0
 28 29  1  0
 29 24  1  0
 30 31  2  0
 31 16  1  0
 32 33  1  0
 33 34  2  0
 34 35  1  0
 34 12  1  0
M  END
$$$$
CHEMBL4858409_plants_10
     RDKit          3D

 35 38  0  0  0  0  0  0  0  0999 V2000
  -15.7141    9.7681  -28.1524 O   0  0  0  0  0  0  0  0  0  0  0  0
  -15.9826   10.5768  -27.2226 C   0  0  0  0  0  0  0  0  0  0  0  0
  -17.0724   10.2944  -26.3381 N   0  0  0  0  0  0  0  0  0  0  0  0
  -18.3467   10.4986  -26.7511 O   0  0  0  0  0  0  0  0  0  0  0  0
  -15.2309   11.8554  -27.1113 C   0  0  0  0  0  0  0  0  0  0  0  0
  -13.9760   11.9877  -27.7416 C   0  0  0  0  0  0  0  0  0  0  0  0
  -13.1912   13.1319  -27.5376 C   0  0  0  0  0  0  0  0  0  0  0  0
  -13.6547   14.1616  -26.7147 C   0  0  0  0  0  0  0  0  0  0  0  0
  -14.9030   14.0599  -26.1017 C   0  0  0  0  0  0  0  0  0  0  0  0
  -15.7169   12.9400  -26.3340 C   0  0  0  0  0  0  0  0  0  0  0  0
  -17.0205   12.9099  -25.7442 N   0  0  0  0  0  0  0  0  0  0  0  0
  -17.4101   13.6062  -24.5368 C   0  0  0  0  0  0  0  0  0  0  0  0
  -16.8361   14.8125  -24.2968 N   0  0  0  0  0  0  0  0  0  0  0  0
  -17.1721   15.5809  -23.2297 C   0  0  0  0  0  0  0  0  0  0  0  0
  -16.5514   16.8563  -23.0535 N   0  0  0  0  0  0  0  0  0  0  0  0
  -15.7704   17.5402  -24.0575 C   0  0  0  0  0  0  0  0  0  0  0  0
  -15.3682   18.8791  -23.9019 C   0  0  0  0  0  0  0  0  0  0  0  0
  -14.6770   19.5296  -24.9322 C   0  0  0  0  0  0  0  0  0  0  0  0
  -14.3678   18.8554  -26.1238 C   0  0  0  0  0  0  0  0  0  0  0  0
  -13.6017   19.4620  -27.1502 O   0  0  0  0  0  0  0  0  0  0  0  0
  -13.1882   18.8418  -28.3737 C   0  0  0  0  0  0  0  0  0  0  0  0
  -12.2500   17.6979  -28.0732 C   0  0  0  0  0  0  0  0  0  0  0  0
  -12.1207   17.2972  -26.8806 O   0  0  0  0  0  0  0  0  0  0  0  0
  -11.5109   17.0392  -29.1285 N   0  0  0  0  0  0  0  0  0  0  0  0
  -11.4845   15.5718  -29.1820 C   0  0  0  0  0  0  0  0  0  0  0  0
  -10.0688   15.0811  -29.4466 C   0  0  0  0  0  0  0  0  0  0  0  0
   -9.6010   15.6642  -30.6377 O   0  0  0  0  0  0  0  0  0  0  0  0
   -9.3231   17.0323  -30.4448 C   0  0  0  0  0  0  0  0  0  0  0  0
  -10.4440   17.8467  -29.7432 C   0  0  0  0  0  0  0  0  0  0  0  0
  -14.7987   17.5298  -26.2909 C   0  0  0  0  0  0  0  0  0  0  0  0
  -15.5001   16.8787  -25.2660 C   0  0  0  0  0  0  0  0  0  0  0  0
  -18.0966   15.1296  -22.3427 N   0  0  0  0  0  0  0  0  0  0  0  0
  -18.7036   13.9321  -22.5158 C   0  0  0  0  0  0  0  0  0  0  0  0
  -18.3835   13.1249  -23.6157 C   0  0  0  0  0  0  0  0  0  0  0  0
  -19.2918   11.6137  -23.7600 Cl  0  0  0  0  0  0  0  0  0  0  0  0
  1  2  2  0
  2  3  1  0
  2  5  1  0
  3  4  1  0
  5  6  2  0
  6  7  1  0
  7  8  2  0
  8  9  1  0
  9 10  2  0
 10 11  1  0
 10  5  1  0
 11 12  1  0
 12 13  2  0
 13 14  1  0
 14 15  1  0
 14 32  2  0
 15 16  1  0
 16 17  2  0
 17 18  1  0
 18 19  2  0
 19 20  1  0
 19 30  1  0
 20 21  1  0
 21 22  1  0
 22 23  2  0
 22 24  1  0
 24 25  1  0
 25 26  1  0
 26 27  1  0
 27 28  1  0
 28 29  1  0
 29 24  1  0
 30 31  2  0
 31 16  1  0
 32 33  1  0
 33 34  2  0
 34 35  1  0
 34 12  1  0
M  END
$$$$
CHEMBL3133894_plants_01
     RDKit          3D

 22 24  0  0  0  0  0  0  0  0999 V2000
  -17.5751    9.4331  -27.4040 C   0  0  0  0  0  0  0  0  0  0  0  0
  -16.9425   10.4465  -26.8150 C   0  0  0  0  0  0  0  0  0  0  0  0
  -15.6930   11.0320  -27.3356 C   0  0  0  0  0  0  0  0  0  0  0  0
  -15.1469   10.4906  -28.3341 O   0  0  0  0  0  0  0  0  0  0  0  0
  -15.0672   12.1598  -26.6992 N   0  0  0  0  0  0  0  0  0  0  0  0
  -14.1053   13.0049  -27.3541 C   0  0  0  0  0  0  0  0  0  0  0  0
  -13.2110   12.4427  -28.2735 C   0  0  0  0  0  0  0  0  0  0  0  0
  -12.2573   13.2372  -28.9091 C   0  0  0  0  0  0  0  0  0  0  0  0
  -12.1813   14.6047  -28.6309 C   0  0  0  0  0  0  0  0  0  0  0  0
  -11.2414   15.3599  -29.2533 N   0  0  0  0  0  0  0  0  0  0  0  0
  -11.1315   16.6861  -29.0023 C   0  0  0  0  0  0  0  0  0  0  0  0
  -11.9742   17.2843  -28.1254 N   0  0  0  0  0  0  0  0  0  0  0  0
  -12.9472   16.5923  -27.4679 C   0  0  0  0  0  0  0  0  0  0  0  0
  -13.8245   17.3260  -26.5797 N   0  0  0  0  0  0  0  0  0  0  0  0
  -13.6154   18.8088  -26.5087 C   0  0  0  0  0  0  0  0  0  0  0  0
  -14.7958   19.7104  -27.0099 C   0  0  0  0  0  0  0  0  0  0  0  0
  -15.6306   20.2689  -25.8521 C   0  0  0  0  0  0  0  0  0  0  0  0
  -14.7817   21.1460  -24.9089 C   0  0  0  0  0  0  0  0  0  0  0  0
  -13.2948   20.7401  -24.8645 C   0  0  0  0  0  0  0  0  0  0  0  0
  -13.1161   19.2371  -25.0995 C   0  0  0  0  0  0  0  0  0  0  0  0
  -13.0687   15.1961  -27.7001 C   0  0  0  0  0  0  0  0  0  0  0  0
  -14.0126   14.3750  -27.0497 C   0  0  0  0  0  0  0  0  0  0  0  0
  1  2  2  0
  2  3  1  0
  3  4  2  0
  3  5  1  0
  5  6  1  0
  6  7  2  0
  7  8  1  0
  8  9  2  0
  9 10  1  0
 10 11  2  0
 11 12  1  0
 12 13  2  0
 13 14  1  0
 13 21  1  0
 14 15  1  0
 15 16  1  0
 16 17  1  0
 17 18  1  0
 18 19  1  0
 19 20  1  0
 20 15  1  0
 21 22  2  0
 21  9  1  0
 22  6  1  0
M  END
$$$$
CHEMBL3133894_plants_02
     RDKit          3D

 22 24  0  0  0  0  0  0  0  0999 V2000
  -16.7202   19.9839  -24.1864 C   0  0  0  0  0  0  0  0  0  0  0  0
  -15.9873   20.3670  -25.2305 C   0  0  0  0  0  0  0  0  0  0  0  0
  -15.3646   19.4187  -26.1730 C   0  0  0  0  0  0  0  0  0  0  0  0
  -14.8071   19.8779  -27.2058 O   0  0  0  0  0  0  0  0  0  0  0  0
  -15.4298   17.9971  -25.9647 N   0  0  0  0  0  0  0  0  0  0  0  0
  -14.5384   17.0628  -26.5977 C   0  0  0  0  0  0  0  0  0  0  0  0
  -13.3683   17.5343  -27.2057 C   0  0  0  0  0  0  0  0  0  0  0  0
  -12.4961   16.6513  -27.8413 C   0  0  0  0  0  0  0  0  0  0  0  0
  -12.7838   15.2842  -27.8821 C   0  0  0  0  0  0  0  0  0  0  0  0
  -11.9272   14.4416  -28.5122 N   0  0  0  0  0  0  0  0  0  0  0  0
  -12.1771   13.1124  -28.5801 C   0  0  0  0  0  0  0  0  0  0  0  0
  -13.2921   12.5999  -28.0046 N   0  0  0  0  0  0  0  0  0  0  0  0
  -14.1946   13.3829  -27.3486 C   0  0  0  0  0  0  0  0  0  0  0  0
  -15.3357   12.7388  -26.7322 N   0  0  0  0  0  0  0  0  0  0  0  0
  -15.4142   11.2477  -26.8659 C   0  0  0  0  0  0  0  0  0  0  0  0
  -16.5773   10.5327  -26.0955 C   0  0  0  0  0  0  0  0  0  0  0  0
  -17.7528   10.1835  -27.0151 C   0  0  0  0  0  0  0  0  0  0  0  0
  -17.3261    9.2264  -28.1469 C   0  0  0  0  0  0  0  0  0  0  0  0
  -15.8469    9.3782  -28.5551 C   0  0  0  0  0  0  0  0  0  0  0  0
  -15.3550   10.8154  -28.3586 C   0  0  0  0  0  0  0  0  0  0  0  0
  -13.9636   14.7830  -27.2817 C   0  0  0  0  0  0  0  0  0  0  0  0
  -14.8460   15.6918  -26.6621 C   0  0  0  0  0  0  0  0  0  0  0  0
  1  2  2  0
  2  3  1  0
  3  4  2  0
  3  5  1  0
  5  6  1  0
  6  7  2  0
  7  8  1  0
  8  9  2  0
  9 10  1  0
 10 11  2  0
 11 12  1  0
 12 13  2  0
 13 14  1  0
 13 21  1  0
 14 15  1  0
 15 16  1  0
 16 17  1  0
 17 18  1  0
 18 19  1  0
 19 20  1  0
 20 15  1  0
 21 22  2  0
 21  9  1  0
 22  6  1  0
M  END
$$$$
CHEMBL3133894_plants_03
     RDKit          3D

 22 24  0  0  0  0  0  0  0  0999 V2000
  -10.2921   17.0142  -31.9343 C   0  0  0  0  0  0  0  0  0  0  0  0
  -10.4924   17.5180  -30.7176 C   0  0  0  0  0  0  0  0  0  0  0  0
  -11.1356   16.7634  -29.6257 C   0  0  0  0  0  0  0  0  0  0  0  0
  -11.4484   17.3810  -28.5726 O   0  0  0  0  0  0  0  0  0  0  0  0
  -11.3582   15.3456  -29.7191 N   0  0  0  0  0  0  0  0  0  0  0  0
  -12.3044   14.6374  -28.8996 C   0  0  0  0  0  0  0  0  0  0  0  0
  -12.2877   13.2371  -28.8858 C   0  0  0  0  0  0  0  0  0  0  0  0
  -13.2057   12.5265  -28.1133 C   0  0  0  0  0  0  0  0  0  0  0  0
  -14.1567   13.2058  -27.3469 C   0  0  0  0  0  0  0  0  0  0  0  0
  -15.0468   12.4969  -26.6079 N   0  0  0  0  0  0  0  0  0  0  0  0
  -15.9883   13.1201  -25.8603 C   0  0  0  0  0  0  0  0  0  0  0  0
  -16.0476   14.4739  -25.8319 N   0  0  0  0  0  0  0  0  0  0  0  0
  -15.1831   15.2524  -26.5420 C   0  0  0  0  0  0  0  0  0  0  0  0
  -15.2999   16.6904  -26.4173 N   0  0  0  0  0  0  0  0  0  0  0  0
  -14.0289   17.4449  -26.1672 C   0  0  0  0  0  0  0  0  0  0  0  0
  -13.8067   18.7478  -27.0102 C   0  0  0  0  0  0  0  0  0  0  0  0
  -14.1370   20.0159  -26.2150 C   0  0  0  0  0  0  0  0  0  0  0  0
  -13.2479   20.1502  -24.9618 C   0  0  0  0  0  0  0  0  0  0  0  0
  -12.7828   18.7958  -24.3900 C   0  0  0  0  0  0  0  0  0  0  0  0
  -13.8153   17.6939  -24.6470 C   0  0  0  0  0  0  0  0  0  0  0  0
  -14.1995   14.6207  -27.3492 C   0  0  0  0  0  0  0  0  0  0  0  0
  -13.2786   15.3240  -28.1527 C   0  0  0  0  0  0  0  0  0  0  0  0
  1  2  2  0
  2  3  1  0
  3  4  2  0
  3  5  1  0
  5  6  1  0
  6  7  2  0
  7  8  1  0
  8  9  2  0
  9 10  1  0
 10 11  2  0
 11 12  1  0
 12 13  2  0
 13 14  1  0
 13 21  1  0
 14 15  1  0
 15 16  1  0
 16 17  1  0
 17 18  1  0
 18 19  1  0
 19 20  1  0
 20 15  1  0
 21 22  2  0
 21  9  1  0
 22  6  1  0
M  END
$$$$
CHEMBL3133894_plants_04
     RDKit          3D

 22 24  0  0  0  0  0  0  0  0999 V2000
  -16.6034   20.2259  -23.8607 C   0  0  0  0  0  0  0  0  0  0  0  0
  -15.8764   20.4481  -24.9544 C   0  0  0  0  0  0  0  0  0  0  0  0
  -15.4193   19.3724  -25.8540 C   0  0  0  0  0  0  0  0  0  0  0  0
  -14.7597   19.6883  -26.8804 O   0  0  0  0  0  0  0  0  0  0  0  0
  -15.7556   17.9950  -25.6130 N   0  0  0  0  0  0  0  0  0  0  0  0
  -15.0399   16.8920  -26.1955 C   0  0  0  0  0  0  0  0  0  0  0  0
  -15.5228   15.5896  -26.0176 C   0  0  0  0  0  0  0  0  0  0  0  0
  -14.8380   14.5014  -26.5574 C   0  0  0  0  0  0  0  0  0  0  0  0
  -13.6578   14.6996  -27.2792 C   0  0  0  0  0  0  0  0  0  0  0  0
  -13.0012   13.6276  -27.7900 N   0  0  0  0  0  0  0  0  0  0  0  0
  -11.8501   13.7797  -28.4868 C   0  0  0  0  0  0  0  0  0  0  0  0
  -11.3394   15.0179  -28.6943 N   0  0  0  0  0  0  0  0  0  0  0  0
  -11.9464   16.1416  -28.2181 C   0  0  0  0  0  0  0  0  0  0  0  0
  -11.3459   17.4232  -28.5241 N   0  0  0  0  0  0  0  0  0  0  0  0
  -10.4383   17.4682  -29.7165 C   0  0  0  0  0  0  0  0  0  0  0  0
   -9.0739   16.7065  -29.5911 C   0  0  0  0  0  0  0  0  0  0  0  0
   -9.1070   15.3402  -30.2850 C   0  0  0  0  0  0  0  0  0  0  0  0
   -9.3945   15.4746  -31.7945 C   0  0  0  0  0  0  0  0  0  0  0  0
  -10.2414   16.7128  -32.1510 C   0  0  0  0  0  0  0  0  0  0  0  0
  -11.2010   17.0823  -31.0157 C   0  0  0  0  0  0  0  0  0  0  0  0
  -13.1445   16.0053  -27.4671 C   0  0  0  0  0  0  0  0  0  0  0  0
  -13.8369   17.0929  -26.8962 C   0  0  0  0  0  0  0  0  0  0  0  0
  1  2  2  0
  2  3  1  0
  3  4  2  0
  3  5  1  0
  5  6  1  0
  6  7  2  0
  7  8  1  0
  8  9  2  0
  9 10  1  0
 10 11  2  0
 11 12  1  0
 12 13  2  0
 13 14  1  0
 13 21  1  0
 14 15  1  0
 15 16  1  0
 16 17  1  0
 17 18  1  0
 18 19  1  0
 19 20  1  0
 20 15  1  0
 21 22  2  0
 21  9  1  0
 22  6  1  0
M  END
$$$$
CHEMBL3133894_plants_05
     RDKit          3D

 22 24  0  0  0  0  0  0  0  0999 V2000
  -15.2326   21.1095  -25.1929 C   0  0  0  0  0  0  0  0  0  0  0  0
  -15.0273   19.7950  -25.1285 C   0  0  0  0  0  0  0  0  0  0  0  0
  -14.4605   19.0095  -26.2408 C   0  0  0  0  0  0  0  0  0  0  0  0
  -14.2800   19.5821  -27.3489 O   0  0  0  0  0  0  0  0  0  0  0  0
  -14.1661   17.6087  -26.1005 N   0  0  0  0  0  0  0  0  0  0  0  0
  -13.2736   16.8962  -26.9744 C   0  0  0  0  0  0  0  0  0  0  0  0
  -12.4120   17.6163  -27.8113 C   0  0  0  0  0  0  0  0  0  0  0  0
  -11.5493   16.9494  -28.6805 C   0  0  0  0  0  0  0  0  0  0  0  0
  -11.5388   15.5527  -28.7287 C   0  0  0  0  0  0  0  0  0  0  0  0
  -10.6981   14.9219  -29.5867 N   0  0  0  0  0  0  0  0  0  0  0  0
  -10.6665   13.5706  -29.6678 C   0  0  0  0  0  0  0  0  0  0  0  0
  -11.4748   12.8228  -28.8776 N   0  0  0  0  0  0  0  0  0  0  0  0
  -12.3400   13.3853  -27.9871 C   0  0  0  0  0  0  0  0  0  0  0  0
  -13.1351   12.5033  -27.1584 N   0  0  0  0  0  0  0  0  0  0  0  0
  -14.6231   12.6033  -27.3120 C   0  0  0  0  0  0  0  0  0  0  0  0
  -15.3938   11.2652  -27.5821 C   0  0  0  0  0  0  0  0  0  0  0  0
  -16.0563   10.7121  -26.3154 C   0  0  0  0  0  0  0  0  0  0  0  0
  -17.0883   11.7004  -25.7342 C   0  0  0  0  0  0  0  0  0  0  0  0
  -16.7642   13.1769  -26.0383 C   0  0  0  0  0  0  0  0  0  0  0  0
  -15.2539   13.4102  -26.1417 C   0  0  0  0  0  0  0  0  0  0  0  0
  -12.4050   14.8016  -27.8985 C   0  0  0  0  0  0  0  0  0  0  0  0
  -13.2868   15.4912  -27.0411 C   0  0  0  0  0  0  0  0  0  0  0  0
  1  2  2  0
  2  3  1  0
  3  4  2  0
  3  5  1  0
  5  6  1  0
  6  7  2  0
  7  8  1  0
  8  9  2  0
  9 10  1  0
 10 11  2  0
 11 12  1  0
 12 13  2  0
 13 14  1  0
 13 21  1  0
 14 15  1  0
 15 16  1  0
 16 17  1  0
 17 18  1  0
 18 19  1  0
 19 20  1  0
 20 15  1  0
 21 22  2  0
 21  9  1  0
 22  6  1  0
M  END
$$$$
CHEMBL3133894_plants_06
     RDKit          3D

 22 24  0  0  0  0  0  0  0  0999 V2000
  -15.8518    9.0705  -29.1527 C   0  0  0  0  0  0  0  0  0  0  0  0
  -16.3948    9.8519  -28.2207 C   0  0  0  0  0  0  0  0  0  0  0  0
  -15.6787   10.9772  -27.5912 C   0  0  0  0  0  0  0  0  0  0  0  0
  -14.4964   11.2158  -27.9567 O   0  0  0  0  0  0  0  0  0  0  0  0
  -16.2780   11.7602  -26.5442 N   0  0  0  0  0  0  0  0  0  0  0  0
  -15.8183   13.0719  -26.1749 C   0  0  0  0  0  0  0  0  0  0  0  0
  -16.3830   13.7095  -25.0633 C   0  0  0  0  0  0  0  0  0  0  0  0
  -15.9672   14.9885  -24.6947 C   0  0  0  0  0  0  0  0  0  0  0  0
  -14.9837   15.6502  -25.4351 C   0  0  0  0  0  0  0  0  0  0  0  0
  -14.5980   16.8975  -25.0656 N   0  0  0  0  0  0  0  0  0  0  0  0
  -13.6548   17.5732  -25.7639 C   0  0  0  0  0  0  0  0  0  0  0  0
  -13.0705   17.0025  -26.8455 N   0  0  0  0  0  0  0  0  0  0  0  0
  -13.4012   15.7510  -27.2722 C   0  0  0  0  0  0  0  0  0  0  0  0
  -12.6942   15.2106  -28.4146 N   0  0  0  0  0  0  0  0  0  0  0  0
  -11.3500   15.8048  -28.7107 C   0  0  0  0  0  0  0  0  0  0  0  0
  -10.4525   15.0360  -29.7407 C   0  0  0  0  0  0  0  0  0  0  0  0
  -10.4936   15.6730  -31.1342 C   0  0  0  0  0  0  0  0  0  0  0  0
   -9.9823   17.1281  -31.1108 C   0  0  0  0  0  0  0  0  0  0  0  0
  -10.2138   17.8392  -29.7624 C   0  0  0  0  0  0  0  0  0  0  0  0
  -11.4702   17.3155  -29.0600 C   0  0  0  0  0  0  0  0  0  0  0  0
  -14.4024   15.0307  -26.5673 C   0  0  0  0  0  0  0  0  0  0  0  0
  -14.8494   13.7463  -26.9397 C   0  0  0  0  0  0  0  0  0  0  0  0
  1  2  2  0
  2  3  1  0
  3  4  2  0
  3  5  1  0
  5  6  1  0
  6  7  2  0
  7  8  1  0
  8  9  2  0
  9 10  1  0
 10 11  2  0
 11 12  1  0
 12 13  2  0
 13 14  1  0
 13 21  1  0
 14 15  1  0
 15 16  1  0
 16 17  1  0
 17 18  1  0
 18 19  1  0
 19 20  1  0
 20 15  1  0
 21 22  2  0
 21  9  1  0
 22  6  1  0
M  END
$$$$
CHEMBL3133894_plants_07
     RDKit          3D

 22 24  0  0  0  0  0  0  0  0999 V2000
  -10.6036   16.7196  -32.2362 C   0  0  0  0  0  0  0  0  0  0  0  0
   -9.8761   17.0820  -31.1810 C   0  0  0  0  0  0  0  0  0  0  0  0
  -10.3065   16.8612  -29.7877 C   0  0  0  0  0  0  0  0  0  0  0  0
   -9.5895   17.3200  -28.8583 O   0  0  0  0  0  0  0  0  0  0  0  0
  -11.4831   16.0955  -29.4750 N   0  0  0  0  0  0  0  0  0  0  0  0
  -12.1645   16.1722  -28.2108 C   0  0  0  0  0  0  0  0  0  0  0  0
  -11.8869   17.2371  -27.3449 C   0  0  0  0  0  0  0  0  0  0  0  0
  -12.5210   17.3252  -26.1060 C   0  0  0  0  0  0  0  0  0  0  0  0
  -13.4386   16.3470  -25.7133 C   0  0  0  0  0  0  0  0  0  0  0  0
  -14.0394   16.4455  -24.5008 N   0  0  0  0  0  0  0  0  0  0  0  0
  -14.9268   15.5121  -24.0823 C   0  0  0  0  0  0  0  0  0  0  0  0
  -15.2373   14.4624  -24.8816 N   0  0  0  0  0  0  0  0  0  0  0  0
  -14.6798   14.3005  -26.1148 C   0  0  0  0  0  0  0  0  0  0  0  0
  -15.1036   13.1682  -26.9117 N   0  0  0  0  0  0  0  0  0  0  0  0
  -15.8501   12.0860  -26.1912 C   0  0  0  0  0  0  0  0  0  0  0  0
  -17.1237   12.5241  -25.3890 C   0  0  0  0  0  0  0  0  0  0  0  0
  -18.4195   12.2294  -26.1528 C   0  0  0  0  0  0  0  0  0  0  0  0
  -18.5816   10.7226  -26.4397 C   0  0  0  0  0  0  0  0  0  0  0  0
  -17.2399    9.9744  -26.5729 C   0  0  0  0  0  0  0  0  0  0  0  0
  -16.1431   10.8845  -27.1342 C   0  0  0  0  0  0  0  0  0  0  0  0
  -13.7313   15.2564  -26.5670 C   0  0  0  0  0  0  0  0  0  0  0  0
  -13.0653   15.1702  -27.8068 C   0  0  0  0  0  0  0  0  0  0  0  0
  1  2  2  0
  2  3  1  0
  3  4  2  0
  3  5  1  0
  5  6  1  0
  6  7  2  0
  7  8  1  0
  8  9  2  0
  9 10  1  0
 10 11  2  0
 11 12  1  0
 12 13  2  0
 13 14  1  0
 13 21  1  0
 14 15  1  0
 15 16  1  0
 16 17  1  0
 17 18  1  0
 18 19  1  0
 19 20  1  0
 20 15  1  0
 21 22  2  0
 21  9  1  0
 22  6  1  0
M  END
$$$$
CHEMBL3133894_plants_08
     RDKit          3D

 22 24  0  0  0  0  0  0  0  0999 V2000
  -13.6967   20.6604  -25.8257 C   0  0  0  0  0  0  0  0  0  0  0  0
  -14.8477   20.0109  -25.6593 C   0  0  0  0  0  0  0  0  0  0  0  0
  -14.9635   18.5419  -25.7205 C   0  0  0  0  0  0  0  0  0  0  0  0
  -16.0936   18.0202  -25.5223 O   0  0  0  0  0  0  0  0  0  0  0  0
  -13.8160   17.7044  -25.9445 N   0  0  0  0  0  0  0  0  0  0  0  0
  -13.9063   16.3434  -26.4005 C   0  0  0  0  0  0  0  0  0  0  0  0
  -14.9791   15.5480  -25.9791 C   0  0  0  0  0  0  0  0  0  0  0  0
  -15.0804   14.2202  -26.3928 C   0  0  0  0  0  0  0  0  0  0  0  0
  -14.1079   13.6673  -27.2305 C   0  0  0  0  0  0  0  0  0  0  0  0
  -14.2194   12.3711  -27.6160 N   0  0  0  0  0  0  0  0  0  0  0  0
  -13.2919   11.7984  -28.4194 C   0  0  0  0  0  0  0  0  0  0  0  0
  -12.2352   12.5227  -28.8620 N   0  0  0  0  0  0  0  0  0  0  0  0
  -12.0602   13.8311  -28.5227 C   0  0  0  0  0  0  0  0  0  0  0  0
  -10.9211   14.5330  -29.0765 N   0  0  0  0  0  0  0  0  0  0  0  0
  -11.1935   15.8786  -29.6787 C   0  0  0  0  0  0  0  0  0  0  0  0
  -10.7677   17.1274  -28.8320 C   0  0  0  0  0  0  0  0  0  0  0  0
   -9.4417   17.7280  -29.3117 C   0  0  0  0  0  0  0  0  0  0  0  0
   -9.5282   18.2031  -30.7766 C   0  0  0  0  0  0  0  0  0  0  0  0
  -10.5411   17.4056  -31.6226 C   0  0  0  0  0  0  0  0  0  0  0  0
  -10.6605   15.9576  -31.1375 C   0  0  0  0  0  0  0  0  0  0  0  0
  -13.0097   14.4478  -27.6647 C   0  0  0  0  0  0  0  0  0  0  0  0
  -12.9102   15.7820  -27.2197 C   0  0  0  0  0  0  0  0  0  0  0  0
  1  2  2  0
  2  3  1  0
  3  4  2  0
  3  5  1  0
  5  6  1  0
  6  7  2  0
  7  8  1  0
  8  9  2  0
  9 10  1  0
 10 11  2  0
 11 12  1  0
 12 13  2  0
 13 14  1  0
 13 21  1  0
 14 15  1  0
 15 16  1  0
 16 17  1  0
 17 18  1  0
 18 19  1  0
 19 20  1  0
 20 15  1  0
 21 22  2  0
 21  9  1  0
 22  6  1  0
M  END
$$$$
CHEMBL3133894_plants_09
     RDKit          3D

 22 24  0  0  0  0  0  0  0  0999 V2000
   -9.2597   16.0611  -29.8909 C   0  0  0  0  0  0  0  0  0  0  0  0
   -9.3980   14.7367  -29.8594 C   0  0  0  0  0  0  0  0  0  0  0  0
  -10.6452   14.0633  -29.4516 C   0  0  0  0  0  0  0  0  0  0  0  0
  -10.7243   12.8129  -29.5880 O   0  0  0  0  0  0  0  0  0  0  0  0
  -11.7755   14.8044  -28.9599 N   0  0  0  0  0  0  0  0  0  0  0  0
  -12.8386   14.2110  -28.1944 C   0  0  0  0  0  0  0  0  0  0  0  0
  -13.2394   12.8995  -28.4780 C   0  0  0  0  0  0  0  0  0  0  0  0
  -14.2793   12.3073  -27.7621 C   0  0  0  0  0  0  0  0  0  0  0  0
  -14.9365   13.0197  -26.7553 C   0  0  0  0  0  0  0  0  0  0  0  0
  -15.9514   12.4294  -26.0752 N   0  0  0  0  0  0  0  0  0  0  0  0
  -16.6174   13.0915  -25.0996 C   0  0  0  0  0  0  0  0  0  0  0  0
  -16.2685   14.3614  -24.7794 N   0  0  0  0  0  0  0  0  0  0  0  0
  -15.2556   15.0167  -25.4137 C   0  0  0  0  0  0  0  0  0  0  0  0
  -14.9307   16.3580  -24.9751 N   0  0  0  0  0  0  0  0  0  0  0  0
  -15.5264   17.4827  -25.7674 C   0  0  0  0  0  0  0  0  0  0  0  0
  -16.2039   18.6367  -24.9508 C   0  0  0  0  0  0  0  0  0  0  0  0
  -15.2956   19.8644  -24.8196 C   0  0  0  0  0  0  0  0  0  0  0  0
  -14.9368   20.4575  -26.1976 C   0  0  0  0  0  0  0  0  0  0  0  0
  -14.9198   19.4122  -27.3311 C   0  0  0  0  0  0  0  0  0  0  0  0
  -14.5133   18.0292  -26.8131 C   0  0  0  0  0  0  0  0  0  0  0  0
  -14.5556   14.3494  -26.4542 C   0  0  0  0  0  0  0  0  0  0  0  0
  -13.5170   14.9413  -27.2020 C   0  0  0  0  0  0  0  0  0  0  0  0
  1  2  2  0
  2  3  1  0
  3  4  2  0
  3  5  1  0
  5  6  1  0
  6  7  2  0
  7  8  1  0
  8  9  2  0
  9 10  1  0
 10 11  2  0
 11 12  1  0
 12 13  2  0
 13 14  1  0
 13 21  1  0
 14 15  1  0
 15 16  1  0
 16 17  1  0
 17 18  1  0
 18 19  1  0
 19 20  1  0
 20 15  1  0
 21 22  2  0
 21  9  1  0
 22  6  1  0
M  END
$$$$
CHEMBL3133894_plants_10
     RDKit          3D

 22 24  0  0  0  0  0  0  0  0999 V2000
  -10.6738   13.9428  -29.4526 C   0  0  0  0  0  0  0  0  0  0  0  0
  -11.7731   13.1919  -29.4102 C   0  0  0  0  0  0  0  0  0  0  0  0
  -12.6359   13.0876  -28.2185 C   0  0  0  0  0  0  0  0  0  0  0  0
  -12.3978   13.8420  -27.2374 O   0  0  0  0  0  0  0  0  0  0  0  0
  -13.6935   12.1163  -28.1368 N   0  0  0  0  0  0  0  0  0  0  0  0
  -14.7905   12.2167  -27.2122 C   0  0  0  0  0  0  0  0  0  0  0  0
  -15.6884   11.1486  -27.0938 C   0  0  0  0  0  0  0  0  0  0  0  0
  -16.7702   11.2279  -26.2175 C   0  0  0  0  0  0  0  0  0  0  0  0
  -16.9723   12.3784  -25.4502 C   0  0  0  0  0  0  0  0  0  0  0  0
  -18.0352   12.4400  -24.6090 N   0  0  0  0  0  0  0  0  0  0  0  0
  -18.2685   13.5416  -23.8568 C   0  0  0  0  0  0  0  0  0  0  0  0
  -17.4290   14.6033  -23.9271 N   0  0  0  0  0  0  0  0  0  0  0  0
  -16.3375   14.6115  -24.7433 C   0  0  0  0  0  0  0  0  0  0  0  0
  -15.4775   15.7764  -24.7208 N   0  0  0  0  0  0  0  0  0  0  0  0
  -15.1050   16.3578  -26.0515 C   0  0  0  0  0  0  0  0  0  0  0  0
  -15.6908   17.7719  -26.3902 C   0  0  0  0  0  0  0  0  0  0  0  0
  -14.6677   18.8914  -26.1677 C   0  0  0  0  0  0  0  0  0  0  0  0
  -13.4220   18.7102  -27.0592 C   0  0  0  0  0  0  0  0  0  0  0  0
  -13.1204   17.2374  -27.4019 C   0  0  0  0  0  0  0  0  0  0  0  0
  -13.5677   16.2968  -26.2787 C   0  0  0  0  0  0  0  0  0  0  0  0
  -16.0835   13.4749  -25.5567 C   0  0  0  0  0  0  0  0  0  0  0  0
  -15.0073   13.3876  -26.4635 C   0  0  0  0  0  0  0  0  0  0  0  0
  1  2  2  0
  2  3  1  0
  3  4  2  0
  3  5  1  0
  5  6  1  0
  6  7  2  0
  7  8  1  0
  8  9  2  0
  9 10  1  0
 10 11  2  0
 11 12  1  0
 12 13  2  0
 13 14  1  0
 13 21  1  0
 14 15  1  0
 15 16  1  0
 16 17  1  0
 17 18  1  0
 18 19  1  0
 19 20  1  0
 20 15  1  0
 21 22  2  0
 21  9  1  0
 22  6  1  0
M  END
$$$$
