HIPS314


 19 20  0  0  0  0  0  0  0  0999 V2000
   68.1909   73.3841   91.3952 C   0  0  0  0  0  0  0  0  0  0  0  0
   69.5640   73.1188   91.5116 C   0  0  0  0  0  0  0  0  0  0  0  0
   70.1396   72.9247   92.7691 C   0  0  0  0  0  0  0  0  0  0  0  0
   69.3531   72.9932   93.9214 C   0  0  0  0  0  0  0  0  0  0  0  0
   67.9737   73.2586   93.8230 C   0  0  0  0  0  0  0  0  0  0  0  0
   67.4038   73.4520   92.5578 C   0  0  0  0  0  0  0  0  0  0  0  0
   66.0042   72.5780   87.1616 N   0  0  0  0  0  0  0  0  0  0  0  0
   66.6474   73.2377   88.2480 C   0  0  0  0  0  0  0  0  0  0  0  0
   66.9017   74.5575   88.2793 N   0  0  0  0  0  0  0  0  0  0  0  0
   67.5011   74.7814   89.4386 N   0  0  0  0  0  0  0  0  0  0  0  0
   67.5863   73.5885   90.0641 C   0  0  0  0  0  0  0  0  0  0  0  0
   67.0608   72.6325   89.3332 O   0  0  0  0  0  0  0  0  0  0  0  0
   65.7175   73.0931   86.3731 H   0  0  0  0  0  0  0  0  0  0  0  0
   65.8464   71.6069   87.1992 H   0  0  0  0  0  0  0  0  0  0  0  0
   67.1345   73.3389   94.9462 O   0  0  0  0  0  0  0  0  0  0  0  0
   66.6580   74.5475   95.5343 C   0  0  0  0  0  0  0  0  0  0  0  0
   66.6895   74.4513   96.9140 F   0  0  0  0  0  0  0  0  0  0  0  0
   67.4301   75.6172   95.1179 F   0  0  0  0  0  0  0  0  0  0  0  0
   65.3531   74.7573   95.1324 F   0  0  0  0  0  0  0  0  0  0  0  0
  7  8  1  0  0  0
  8  9  2  0  0  0
  9 10  1  0  0  0
 10 11  2  0  0  0
 11  1  1  0  0  0
  1  2  2  0  0  0
  2  3  1  0  0  0
  3  4  2  0  0  0
  4  5  1  0  0  0
  5 15  1  0  0  0
 15 16  1  0  0  0
 16 17  1  0  0  0
 16 18  1  0  0  0
 16 19  1  0  0  0
  5  6  2  0  0  0
 11 12  1  0  0  0
 12  8  1  0  0  0
  6  1  1  0  0  0
  7 13  1  0  0  0
  7 14  1  0  0  0
M  END
> <score>
0.493686

> <minimizedAffinity>
-6.66493

> <CNNscore>
0.8810666203

> <CNNaffinity>
5.1966133118

> <CNN_VS>
4.5785627365

$$$$
HIPS314


 19 20  0  0  0  0  0  0  0  0999 V2000
   67.5816   79.7277   88.2935 C   0  0  0  0  0  0  0  0  0  0  0  0
   68.1488   79.0790   89.4011 C   0  0  0  0  0  0  0  0  0  0  0  0
   68.1753   77.6842   89.4629 C   0  0  0  0  0  0  0  0  0  0  0  0
   67.6372   76.9231   88.4224 C   0  0  0  0  0  0  0  0  0  0  0  0
   67.0641   77.5576   87.3036 C   0  0  0  0  0  0  0  0  0  0  0  0
   67.0415   78.9574   87.2491 C   0  0  0  0  0  0  0  0  0  0  0  0
   67.4048   84.2614   86.6292 N   0  0  0  0  0  0  0  0  0  0  0  0
   67.4796   83.1466   87.5130 C   0  0  0  0  0  0  0  0  0  0  0  0
   67.5663   83.2544   88.8504 N   0  0  0  0  0  0  0  0  0  0  0  0
   67.6149   82.0133   89.3092 N   0  0  0  0  0  0  0  0  0  0  0  0
   67.5557   81.2024   88.2320 C   0  0  0  0  0  0  0  0  0  0  0  0
   67.4722   81.8972   87.1209 O   0  0  0  0  0  0  0  0  0  0  0  0
   67.4150   85.1773   86.9902 H   0  0  0  0  0  0  0  0  0  0  0  0
   67.3428   84.1159   85.6575 H   0  0  0  0  0  0  0  0  0  0  0  0
   66.5086   76.8444   86.2288 O   0  0  0  0  0  0  0  0  0  0  0  0
   67.2455   76.2742   85.1492 C   0  0  0  0  0  0  0  0  0  0  0  0
   67.4017   74.9136   85.3445 F   0  0  0  0  0  0  0  0  0  0  0  0
   66.5939   76.5074   83.9514 F   0  0  0  0  0  0  0  0  0  0  0  0
   68.4941   76.8629   85.0987 F   0  0  0  0  0  0  0  0  0  0  0  0
  7  8  1  0  0  0
  8  9  2  0  0  0
  9 10  1  0  0  0
 10 11  2  0  0  0
 11  1  1  0  0  0
  1  2  2  0  0  0
  2  3  1  0  0  0
  3  4  2  0  0  0
  4  5  1  0  0  0
  5 15  1  0  0  0
 15 16  1  0  0  0
 16 17  1  0  0  0
 16 18  1  0  0  0
 16 19  1  0  0  0
  5  6  2  0  0  0
 11 12  1  0  0  0
 12  8  1  0  0  0
  6  1  1  0  0  0
  7 13  1  0  0  0
  7 14  1  0  0  0
M  END
> <score>
0.493686

> <minimizedAffinity>
-5.72351

> <CNNscore>
0.7941305041

> <CNNaffinity>
5.3596706390

> <CNN_VS>
4.2562780380

$$$$
HIPS314


 19 20  0  0  0  0  0  0  0  0999 V2000
   69.1586   74.9651   91.7529 C   0  0  0  0  0  0  0  0  0  0  0  0
   68.6375   74.2386   90.6712 C   0  0  0  0  0  0  0  0  0  0  0  0
   67.7895   73.1520   90.8959 C   0  0  0  0  0  0  0  0  0  0  0  0
   67.4530   72.7794   92.1994 C   0  0  0  0  0  0  0  0  0  0  0  0
   67.9670   73.4973   93.2965 C   0  0  0  0  0  0  0  0  0  0  0  0
   68.8170   74.5861   93.0627 C   0  0  0  0  0  0  0  0  0  0  0  0
   70.9637   79.1174   90.0631 N   0  0  0  0  0  0  0  0  0  0  0  0
   70.8253   77.8960   90.7831 C   0  0  0  0  0  0  0  0  0  0  0  0
   71.7547   77.4130   91.6261 N   0  0  0  0  0  0  0  0  0  0  0  0
   71.2627   76.2749   92.0908 N   0  0  0  0  0  0  0  0  0  0  0  0
   70.0546   76.1131   91.5111 C   0  0  0  0  0  0  0  0  0  0  0  0
   69.7802   77.1110   90.7030 O   0  0  0  0  0  0  0  0  0  0  0  0
   71.7771   79.6618   90.1690 H   0  0  0  0  0  0  0  0  0  0  0  0
   70.2458   79.4172   89.4597 H   0  0  0  0  0  0  0  0  0  0  0  0
   67.6633   73.1685   94.6277 O   0  0  0  0  0  0  0  0  0  0  0  0
   66.7266   73.8570   95.4536 C   0  0  0  0  0  0  0  0  0  0  0  0
   67.0891   75.1860   95.5803 F   0  0  0  0  0  0  0  0  0  0  0  0
   65.4562   73.7636   94.9139 F   0  0  0  0  0  0  0  0  0  0  0  0
   66.7217   73.2754   96.7066 F   0  0  0  0  0  0  0  0  0  0  0  0
  7  8  1  0  0  0
  8  9  2  0  0  0
  9 10  1  0  0  0
 10 11  2  0  0  0
 11  1  1  0  0  0
  1  2  2  0  0  0
  2  3  1  0  0  0
  3  4  2  0  0  0
  4  5  1  0  0  0
  5 15  1  0  0  0
 15 16  1  0  0  0
 16 17  1  0  0  0
 16 18  1  0  0  0
 16 19  1  0  0  0
  5  6  2  0  0  0
 11 12  1  0  0  0
 12  8  1  0  0  0
  6  1  1  0  0  0
  7 13  1  0  0  0
  7 14  1  0  0  0
M  END
> <score>
0.493686

> <minimizedAffinity>
-6.79467

> <CNNscore>
0.7786121964

> <CNNaffinity>
5.0351457596

> <CNN_VS>
3.9204258919

$$$$
HIPS341


 31 33  0  0  0  0  0  0  0  0999 V2000
   68.6939   80.9490   89.7730 C   0  0  0  0  0  0  0  0  0  0  0  0
   69.7328   81.8990   89.7683 C   0  0  0  0  0  0  0  0  0  0  0  0
   69.5301   82.9505   88.8739 C   0  0  0  0  0  0  0  0  0  0  0  0
   68.0474   82.6985   88.1133 S   0  0  0  0  0  0  0  0  0  0  0  0
   67.6504   81.2647   88.8953 C   0  0  0  0  0  0  0  0  0  0  0  0
   70.4346   84.1049   88.6392 C   0  0  0  0  0  0  0  0  0  0  0  0
   71.7984   83.8939   88.3663 C   0  0  0  0  0  0  0  0  0  0  0  0
   72.6548   84.9754   88.1453 C   0  0  0  0  0  0  0  0  0  0  0  0
   72.1677   86.2842   88.1961 C   0  0  0  0  0  0  0  0  0  0  0  0
   73.2777   87.6184   87.9128 Cl  0  0  0  0  0  0  0  0  0  0  0  0
   70.8106   86.5110   88.4730 C   0  0  0  0  0  0  0  0  0  0  0  0
   70.1590   88.1425   88.5553 Cl  0  0  0  0  0  0  0  0  0  0  0  0
   69.9525   85.4267   88.6938 C   0  0  0  0  0  0  0  0  0  0  0  0
   69.0356   77.4083   91.2219 N   0  0  0  0  0  0  0  0  0  0  0  0
   69.1092   78.5022   90.2862 C   0  0  0  0  0  0  0  0  0  0  0  0
   69.5688   78.2949   89.1305 O   0  0  0  0  0  0  0  0  0  0  0  0
   68.6681   79.8194   90.6612 N   0  0  0  0  0  0  0  0  0  0  0  0
   68.3303   79.9543   91.5760 H   0  0  0  0  0  0  0  0  0  0  0  0
   71.4468   77.1303   91.6869 C   0  0  0  0  0  0  0  0  0  0  0  0
   70.1444   76.4457   91.2828 C   0  0  0  0  0  0  0  0  0  0  0  0
   67.8361   77.2007   92.0498 C   0  0  0  0  0  0  0  0  0  0  0  0
   68.0806   76.1355   93.0885 C   0  0  0  0  0  0  0  0  0  0  0  0
   68.8743   76.4094   94.2154 C   0  0  0  0  0  0  0  0  0  0  0  0
   69.0850   75.4264   95.1870 C   0  0  0  0  0  0  0  0  0  0  0  0
   68.5068   74.1629   95.0419 C   0  0  0  0  0  0  0  0  0  0  0  0
   67.7183   73.8800   93.9237 C   0  0  0  0  0  0  0  0  0  0  0  0
   67.5053   74.8604   92.9497 C   0  0  0  0  0  0  0  0  0  0  0  0
   66.4168   80.5034   88.6319 C   0  0  0  0  0  0  0  0  0  0  0  0
   65.8283   80.5864   87.5218 O   0  0  0  0  0  0  0  0  0  0  0  0
   65.8870   79.6896   89.6285 O   0  0  0  0  0  0  0  0  0  0  0  0
   66.3188   79.6224   90.4573 H   0  0  0  0  0  0  0  0  0  0  0  0
 19 20  1  0  0  0
 20 14  1  0  0  0
 14 21  1  0  0  0
 21 22  1  0  0  0
 22 23  2  0  0  0
 23 24  1  0  0  0
 24 25  2  0  0  0
 25 26  1  0  0  0
 26 27  2  0  0  0
 14 15  1  0  0  0
 15 16  2  0  0  0
 15 17  1  0  0  0
 17  1  1  0  0  0
  1  2  1  0  0  0
  2  3  2  0  0  0
  3  6  1  0  0  0
  6  7  2  0  0  0
  7  8  1  0  0  0
  8  9  2  0  0  0
  9 10  1  0  0  0
  9 11  1  0  0  0
 11 12  1  0  0  0
 11 13  2  0  0  0
  3  4  1  0  0  0
  4  5  1  0  0  0
  5 28  1  0  0  0
 28 29  2  0  0  0
 28 30  1  0  0  0
 27 22  1  0  0  0
  5  1  2  0  0  0
 13  6  1  0  0  0
 17 18  1  0  0  0
 30 31  1  0  0  0
M  END
> <score>
-0.265965

> <minimizedAffinity>
-7.77134

> <CNNscore>
0.3771519363

> <CNNaffinity>
6.0932388306

> <CNN_VS>
2.2980768681

$$$$
HIPS341


 31 33  0  0  0  0  0  0  0  0999 V2000
   68.8227   80.6311   89.7205 C   0  0  0  0  0  0  0  0  0  0  0  0
   69.8429   81.6011   89.7187 C   0  0  0  0  0  0  0  0  0  0  0  0
   69.5740   82.6993   88.9011 C   0  0  0  0  0  0  0  0  0  0  0  0
   68.0573   82.4620   88.2057 S   0  0  0  0  0  0  0  0  0  0  0  0
   67.7282   80.9764   88.9195 C   0  0  0  0  0  0  0  0  0  0  0  0
   70.4442   83.8842   88.6893 C   0  0  0  0  0  0  0  0  0  0  0  0
   71.8284   83.7230   88.4979 C   0  0  0  0  0  0  0  0  0  0  0  0
   72.6527   84.8333   88.2989 C   0  0  0  0  0  0  0  0  0  0  0  0
   72.1123   86.1220   88.2908 C   0  0  0  0  0  0  0  0  0  0  0  0
   73.1830   87.4937   88.0375 Cl  0  0  0  0  0  0  0  0  0  0  0  0
   70.7337   86.2993   88.4862 C   0  0  0  0  0  0  0  0  0  0  0  0
   70.0147   87.9044   88.4926 Cl  0  0  0  0  0  0  0  0  0  0  0  0
   69.9079   85.1861   88.6850 C   0  0  0  0  0  0  0  0  0  0  0  0
   69.7140   77.1733   91.1357 N   0  0  0  0  0  0  0  0  0  0  0  0
   69.7393   78.3368   90.2851 C   0  0  0  0  0  0  0  0  0  0  0  0
   70.5410   78.3720   89.3127 O   0  0  0  0  0  0  0  0  0  0  0  0
   68.8645   79.4505   90.5392 N   0  0  0  0  0  0  0  0  0  0  0  0
   68.2618   79.4012   91.3160 H   0  0  0  0  0  0  0  0  0  0  0  0
   71.9444   77.5294   92.1386 C   0  0  0  0  0  0  0  0  0  0  0  0
   70.9833   76.5297   91.5020 C   0  0  0  0  0  0  0  0  0  0  0  0
   68.4379   76.5806   91.5686 C   0  0  0  0  0  0  0  0  0  0  0  0
   68.0179   75.4739   90.6346 C   0  0  0  0  0  0  0  0  0  0  0  0
   68.2679   74.1310   90.9649 C   0  0  0  0  0  0  0  0  0  0  0  0
   67.8614   73.1049   90.1067 C   0  0  0  0  0  0  0  0  0  0  0  0
   67.2035   73.4100   88.9126 C   0  0  0  0  0  0  0  0  0  0  0  0
   66.9527   74.7421   88.5740 C   0  0  0  0  0  0  0  0  0  0  0  0
   67.3578   75.7712   89.4297 C   0  0  0  0  0  0  0  0  0  0  0  0
   66.4958   80.2066   88.6758 C   0  0  0  0  0  0  0  0  0  0  0  0
   66.3472   79.5383   87.6190 O   0  0  0  0  0  0  0  0  0  0  0  0
   65.4756   80.2276   89.6219 O   0  0  0  0  0  0  0  0  0  0  0  0
   65.5784   80.7225   90.4108 H   0  0  0  0  0  0  0  0  0  0  0  0
 19 20  1  0  0  0
 20 14  1  0  0  0
 14 21  1  0  0  0
 21 22  1  0  0  0
 22 23  2  0  0  0
 23 24  1  0  0  0
 24 25  2  0  0  0
 25 26  1  0  0  0
 26 27  2  0  0  0
 14 15  1  0  0  0
 15 16  2  0  0  0
 15 17  1  0  0  0
 17  1  1  0  0  0
  1  2  1  0  0  0
  2  3  2  0  0  0
  3  6  1  0  0  0
  6  7  2  0  0  0
  7  8  1  0  0  0
  8  9  2  0  0  0
  9 10  1  0  0  0
  9 11  1  0  0  0
 11 12  1  0  0  0
 11 13  2  0  0  0
  3  4  1  0  0  0
  4  5  1  0  0  0
  5 28  1  0  0  0
 28 29  2  0  0  0
 28 30  1  0  0  0
 27 22  1  0  0  0
  5  1  2  0  0  0
 13  6  1  0  0  0
 17 18  1  0  0  0
 30 31  1  0  0  0
M  END
> <score>
-0.265965

> <minimizedAffinity>
-8.07241

> <CNNscore>
0.3593167067

> <CNNaffinity>
6.2334060669

> <CNN_VS>
2.2397668362

$$$$
HIPS341


 31 33  0  0  0  0  0  0  0  0999 V2000
   67.9541   78.8059   90.0118 C   0  0  0  0  0  0  0  0  0  0  0  0
   67.9414   78.3011   91.3259 C   0  0  0  0  0  0  0  0  0  0  0  0
   67.4648   76.9933   91.4219 C   0  0  0  0  0  0  0  0  0  0  0  0
   67.0849   76.4701   89.8656 S   0  0  0  0  0  0  0  0  0  0  0  0
   67.5091   77.8822   89.0591 C   0  0  0  0  0  0  0  0  0  0  0  0
   67.3327   76.1839   92.6603 C   0  0  0  0  0  0  0  0  0  0  0  0
   66.1706   76.2758   93.4476 C   0  0  0  0  0  0  0  0  0  0  0  0
   66.0403   75.5178   94.6139 C   0  0  0  0  0  0  0  0  0  0  0  0
   67.0664   74.6590   95.0168 C   0  0  0  0  0  0  0  0  0  0  0  0
   66.8643   73.7221   96.4911 Cl  0  0  0  0  0  0  0  0  0  0  0  0
   68.2344   74.5608   94.2447 C   0  0  0  0  0  0  0  0  0  0  0  0
   69.5533   73.4991   94.7210 Cl  0  0  0  0  0  0  0  0  0  0  0  0
   68.3643   75.3201   93.0755 C   0  0  0  0  0  0  0  0  0  0  0  0
   68.2301   82.5711   89.3045 N   0  0  0  0  0  0  0  0  0  0  0  0
   67.6586   81.2999   89.6722 C   0  0  0  0  0  0  0  0  0  0  0  0
   66.4411   81.2416   89.9946 O   0  0  0  0  0  0  0  0  0  0  0  0
   68.4635   80.1073   89.6766 N   0  0  0  0  0  0  0  0  0  0  0  0
   69.4151   80.1871   89.4369 H   0  0  0  0  0  0  0  0  0  0  0  0
   67.3671   84.8805   89.1330 C   0  0  0  0  0  0  0  0  0  0  0  0
   67.8489   83.7708   90.0629 C   0  0  0  0  0  0  0  0  0  0  0  0
   69.1182   82.6915   88.1366 C   0  0  0  0  0  0  0  0  0  0  0  0
   70.5208   83.0417   88.5649 C   0  0  0  0  0  0  0  0  0  0  0  0
   71.1413   82.3393   89.6121 C   0  0  0  0  0  0  0  0  0  0  0  0
   72.4486   82.6528   89.9959 C   0  0  0  0  0  0  0  0  0  0  0  0
   73.1467   83.6693   89.3392 C   0  0  0  0  0  0  0  0  0  0  0  0
   72.5375   84.3752   88.2986 C   0  0  0  0  0  0  0  0  0  0  0  0
   71.2301   84.0648   87.9119 C   0  0  0  0  0  0  0  0  0  0  0  0
   67.3791   78.0634   87.6027 C   0  0  0  0  0  0  0  0  0  0  0  0
   67.3633   79.2139   87.0913 O   0  0  0  0  0  0  0  0  0  0  0  0
   67.2601   76.9470   86.7805 O   0  0  0  0  0  0  0  0  0  0  0  0
   67.2710   76.0874   87.1532 H   0  0  0  0  0  0  0  0  0  0  0  0
 19 20  1  0  0  0
 20 14  1  0  0  0
 14 21  1  0  0  0
 21 22  1  0  0  0
 22 23  2  0  0  0
 23 24  1  0  0  0
 24 25  2  0  0  0
 25 26  1  0  0  0
 26 27  2  0  0  0
 14 15  1  0  0  0
 15 16  2  0  0  0
 15 17  1  0  0  0
 17  1  1  0  0  0
  1  2  1  0  0  0
  2  3  2  0  0  0
  3  6  1  0  0  0
  6  7  2  0  0  0
  7  8  1  0  0  0
  8  9  2  0  0  0
  9 10  1  0  0  0
  9 11  1  0  0  0
 11 12  1  0  0  0
 11 13  2  0  0  0
  3  4  1  0  0  0
  4  5  1  0  0  0
  5 28  1  0  0  0
 28 29  2  0  0  0
 28 30  1  0  0  0
 27 22  1  0  0  0
  5  1  2  0  0  0
 13  6  1  0  0  0
 17 18  1  0  0  0
 30 31  1  0  0  0
M  END
> <score>
-0.265965

> <minimizedAffinity>
-8.06954

> <CNNscore>
0.2963232100

> <CNNaffinity>
6.1987905502

> <CNN_VS>
1.8368455172

$$$$
HIPS342


 29 30  0  0  0  0  0  0  0  0999 V2000
   69.0854   78.0078   90.9192 C   0  0  0  0  0  0  0  0  0  0  0  0
   68.6062   79.2200   90.3893 C   0  0  0  0  0  0  0  0  0  0  0  0
   69.6145   80.1086   90.0144 C   0  0  0  0  0  0  0  0  0  0  0  0
   71.0945   79.3678   90.3372 S   0  0  0  0  0  0  0  0  0  0  0  0
   70.4804   77.9290   90.9538 C   0  0  0  0  0  0  0  0  0  0  0  0
   69.4353   81.4542   89.4104 C   0  0  0  0  0  0  0  0  0  0  0  0
   68.1652   81.8722   88.9728 C   0  0  0  0  0  0  0  0  0  0  0  0
   67.9887   83.1369   88.4062 C   0  0  0  0  0  0  0  0  0  0  0  0
   69.0743   84.0050   88.2635 C   0  0  0  0  0  0  0  0  0  0  0  0
   68.8109   85.5886   87.5459 Cl  0  0  0  0  0  0  0  0  0  0  0  0
   70.3487   83.6009   88.6906 C   0  0  0  0  0  0  0  0  0  0  0  0
   71.7429   84.6598   88.5227 Cl  0  0  0  0  0  0  0  0  0  0  0  0
   70.5252   82.3333   89.2584 C   0  0  0  0  0  0  0  0  0  0  0  0
   66.5252   75.9418   92.7969 N   0  0  0  0  0  0  0  0  0  0  0  0
   67.7035   76.7344   92.6004 C   0  0  0  0  0  0  0  0  0  0  0  0
   68.2864   77.2629   93.5864 O   0  0  0  0  0  0  0  0  0  0  0  0
   68.2190   76.9195   91.2757 N   0  0  0  0  0  0  0  0  0  0  0  0
   66.1537   75.4578   92.0242 H   0  0  0  0  0  0  0  0  0  0  0  0
   67.9678   76.2711   90.5788 H   0  0  0  0  0  0  0  0  0  0  0  0
   65.8463   75.8153   94.0874 C   0  0  0  0  0  0  0  0  0  0  0  0
   65.6515   74.3356   94.4606 C   0  0  0  0  0  0  0  0  0  0  0  0
   66.5807   73.8439   95.5881 C   0  0  0  0  0  0  0  0  0  0  0  0
   67.9664   74.5098   95.6407 C   0  0  0  0  0  0  0  0  0  0  0  0
   69.0051   73.2331   93.7281 C   0  0  0  0  0  0  0  0  0  0  0  0
   69.1037   73.5717   95.2129 C   0  0  0  0  0  0  0  0  0  0  0  0
   71.3115   76.8289   91.4717 C   0  0  0  0  0  0  0  0  0  0  0  0
   72.5349   76.7774   91.1743 O   0  0  0  0  0  0  0  0  0  0  0  0
   70.7688   75.8579   92.3070 O   0  0  0  0  0  0  0  0  0  0  0  0
   69.8600   75.8890   92.5329 H   0  0  0  0  0  0  0  0  0  0  0  0
 24 25  1  0  0  0
 25 23  1  0  0  0
 23 22  1  0  0  0
 22 21  1  0  0  0
 21 20  1  0  0  0
 20 14  1  0  0  0
 14 15  1  0  0  0
 15 16  2  0  0  0
 15 17  1  0  0  0
 17  1  1  0  0  0
  1  2  1  0  0  0
  2  3  2  0  0  0
  3  6  1  0  0  0
  6  7  2  0  0  0
  7  8  1  0  0  0
  8  9  2  0  0  0
  9 10  1  0  0  0
  9 11  1  0  0  0
 11 12  1  0  0  0
 11 13  2  0  0  0
  3  4  1  0  0  0
  4  5  1  0  0  0
  5 26  1  0  0  0
 26 27  2  0  0  0
 26 28  1  0  0  0
  5  1  2  0  0  0
 13  6  1  0  0  0
 14 18  1  0  0  0
 17 19  1  0  0  0
 28 29  1  0  0  0
M  END
> <score>
-0.371074

> <minimizedAffinity>
-6.71165

> <CNNscore>
0.5271621943

> <CNNaffinity>
6.0390491486

> <CNN_VS>
3.1835584641

$$$$
HIPS342


 29 30  0  0  0  0  0  0  0  0999 V2000
   66.6149   80.6213   90.9092 C   0  0  0  0  0  0  0  0  0  0  0  0
   66.7541   80.0268   89.6415 C   0  0  0  0  0  0  0  0  0  0  0  0
   66.8923   78.6390   89.6822 C   0  0  0  0  0  0  0  0  0  0  0  0
   66.8276   78.1662   91.2995 S   0  0  0  0  0  0  0  0  0  0  0  0
   66.6305   79.7000   91.9601 C   0  0  0  0  0  0  0  0  0  0  0  0
   67.0395   77.7250   88.5201 C   0  0  0  0  0  0  0  0  0  0  0  0
   66.6461   76.3781   88.6223 C   0  0  0  0  0  0  0  0  0  0  0  0
   66.7793   75.5135   87.5331 C   0  0  0  0  0  0  0  0  0  0  0  0
   67.3087   75.9751   86.3251 C   0  0  0  0  0  0  0  0  0  0  0  0
   67.4595   74.8558   84.9774 Cl  0  0  0  0  0  0  0  0  0  0  0  0
   67.7104   77.3149   86.2088 C   0  0  0  0  0  0  0  0  0  0  0  0
   68.3883   77.9346   84.7089 Cl  0  0  0  0  0  0  0  0  0  0  0  0
   67.5768   78.1811   87.3006 C   0  0  0  0  0  0  0  0  0  0  0  0
   67.1343   84.3734   90.9279 N   0  0  0  0  0  0  0  0  0  0  0  0
   67.4109   82.9950   91.2084 C   0  0  0  0  0  0  0  0  0  0  0  0
   68.5671   82.6379   91.5648 O   0  0  0  0  0  0  0  0  0  0  0  0
   66.3635   82.0240   91.0860 N   0  0  0  0  0  0  0  0  0  0  0  0
   66.2016   84.6367   90.7544 H   0  0  0  0  0  0  0  0  0  0  0  0
   65.4295   82.3327   91.1249 H   0  0  0  0  0  0  0  0  0  0  0  0
   68.1674   85.4093   90.8865 C   0  0  0  0  0  0  0  0  0  0  0  0
   68.5161   85.7769   89.4338 C   0  0  0  0  0  0  0  0  0  0  0  0
   69.9636   85.4350   89.0289 C   0  0  0  0  0  0  0  0  0  0  0  0
   70.4509   86.0715   87.7160 C   0  0  0  0  0  0  0  0  0  0  0  0
   70.7302   83.6963   86.9115 C   0  0  0  0  0  0  0  0  0  0  0  0
   70.3580   85.1217   86.5135 C   0  0  0  0  0  0  0  0  0  0  0  0
   66.5432   79.9740   93.4045 C   0  0  0  0  0  0  0  0  0  0  0  0
   65.8142   79.2504   94.1344 O   0  0  0  0  0  0  0  0  0  0  0  0
   67.2759   81.0074   93.9794 O   0  0  0  0  0  0  0  0  0  0  0  0
   67.8204   81.5501   93.4436 H   0  0  0  0  0  0  0  0  0  0  0  0
 24 25  1  0  0  0
 25 23  1  0  0  0
 23 22  1  0  0  0
 22 21  1  0  0  0
 21 20  1  0  0  0
 20 14  1  0  0  0
 14 15  1  0  0  0
 15 16  2  0  0  0
 15 17  1  0  0  0
 17  1  1  0  0  0
  1  2  1  0  0  0
  2  3  2  0  0  0
  3  6  1  0  0  0
  6  7  2  0  0  0
  7  8  1  0  0  0
  8  9  2  0  0  0
  9 10  1  0  0  0
  9 11  1  0  0  0
 11 12  1  0  0  0
 11 13  2  0  0  0
  3  4  1  0  0  0
  4  5  1  0  0  0
  5 26  1  0  0  0
 26 27  2  0  0  0
 26 28  1  0  0  0
  5  1  2  0  0  0
 13  6  1  0  0  0
 14 18  1  0  0  0
 17 19  1  0  0  0
 28 29  1  0  0  0
M  END
> <score>
-0.371074

> <minimizedAffinity>
-5.46024

> <CNNscore>
0.3248119950

> <CNNaffinity>
6.1646823883

> <CNN_VS>
2.0023627281

$$$$
HIPS342


 29 30  0  0  0  0  0  0  0  0999 V2000
   66.7951   80.5814   88.9067 C   0  0  0  0  0  0  0  0  0  0  0  0
   67.8326   81.3337   88.3257 C   0  0  0  0  0  0  0  0  0  0  0  0
   68.2301   82.4305   89.0911 C   0  0  0  0  0  0  0  0  0  0  0  0
   67.2906   82.4438   90.4914 S   0  0  0  0  0  0  0  0  0  0  0  0
   66.3755   81.0763   90.1446 C   0  0  0  0  0  0  0  0  0  0  0  0
   69.3049   83.4024   88.7625 C   0  0  0  0  0  0  0  0  0  0  0  0
   69.0120   84.5588   88.0167 C   0  0  0  0  0  0  0  0  0  0  0  0
   70.0169   85.4782   87.7060 C   0  0  0  0  0  0  0  0  0  0  0  0
   71.3302   85.2600   88.1305 C   0  0  0  0  0  0  0  0  0  0  0  0
   72.5663   86.4412   87.7196 Cl  0  0  0  0  0  0  0  0  0  0  0  0
   71.6393   84.1086   88.8711 C   0  0  0  0  0  0  0  0  0  0  0  0
   73.2806   83.7922   89.4184 Cl  0  0  0  0  0  0  0  0  0  0  0  0
   70.6320   83.1873   89.1823 C   0  0  0  0  0  0  0  0  0  0  0  0
   66.4098   76.8923   88.1384 N   0  0  0  0  0  0  0  0  0  0  0  0
   67.0761   78.1523   88.2918 C   0  0  0  0  0  0  0  0  0  0  0  0
   68.3331   78.1999   88.3870 O   0  0  0  0  0  0  0  0  0  0  0  0
   66.3052   79.3603   88.3317 N   0  0  0  0  0  0  0  0  0  0  0  0
   65.4412   76.8946   87.9622 H   0  0  0  0  0  0  0  0  0  0  0  0
   65.3987   79.3522   87.9476 H   0  0  0  0  0  0  0  0  0  0  0  0
   67.0959   75.6027   88.2303 C   0  0  0  0  0  0  0  0  0  0  0  0
   67.4560   75.2771   89.6901 C   0  0  0  0  0  0  0  0  0  0  0  0
   67.8412   73.8037   89.9290 C   0  0  0  0  0  0  0  0  0  0  0  0
   68.8790   73.5630   91.0387 C   0  0  0  0  0  0  0  0  0  0  0  0
   69.3821   75.1912   92.8994 C   0  0  0  0  0  0  0  0  0  0  0  0
   69.6413   74.8341   91.4386 C   0  0  0  0  0  0  0  0  0  0  0  0
   65.2987   80.5605   91.0069 C   0  0  0  0  0  0  0  0  0  0  0  0
   64.1005   80.6418   90.6255 O   0  0  0  0  0  0  0  0  0  0  0  0
   65.5891   79.9609   92.2281 O   0  0  0  0  0  0  0  0  0  0  0  0
   66.4775   79.8965   92.5189 H   0  0  0  0  0  0  0  0  0  0  0  0
 24 25  1  0  0  0
 25 23  1  0  0  0
 23 22  1  0  0  0
 22 21  1  0  0  0
 21 20  1  0  0  0
 20 14  1  0  0  0
 14 15  1  0  0  0
 15 16  2  0  0  0
 15 17  1  0  0  0
 17  1  1  0  0  0
  1  2  1  0  0  0
  2  3  2  0  0  0
  3  6  1  0  0  0
  6  7  2  0  0  0
  7  8  1  0  0  0
  8  9  2  0  0  0
  9 10  1  0  0  0
  9 11  1  0  0  0
 11 12  1  0  0  0
 11 13  2  0  0  0
  3  4  1  0  0  0
  4  5  1  0  0  0
  5 26  1  0  0  0
 26 27  2  0  0  0
 26 28  1  0  0  0
  5  1  2  0  0  0
 13  6  1  0  0  0
 14 18  1  0  0  0
 17 19  1  0  0  0
 28 29  1  0  0  0
M  END
> <score>
-0.371074

> <minimizedAffinity>
-6.51617

> <CNNscore>
0.2599779665

> <CNNaffinity>
5.9453430176

> <CNN_VS>
1.5456582308

$$$$
HIPS343


 30 32  0  0  0  0  0  0  0  0999 V2000
   66.5287   79.8753   90.9210 C   0  0  0  0  0  0  0  0  0  0  0  0
   66.4652   79.1585   92.1305 C   0  0  0  0  0  0  0  0  0  0  0  0
   66.8278   77.8157   92.0090 C   0  0  0  0  0  0  0  0  0  0  0  0
   67.2311   77.5399   90.3951 S   0  0  0  0  0  0  0  0  0  0  0  0
   66.9568   79.1013   89.8378 C   0  0  0  0  0  0  0  0  0  0  0  0
   66.8677   76.7991   93.0928 C   0  0  0  0  0  0  0  0  0  0  0  0
   65.7132   76.5242   93.8488 C   0  0  0  0  0  0  0  0  0  0  0  0
   65.7412   75.5713   94.8700 C   0  0  0  0  0  0  0  0  0  0  0  0
   66.9184   74.8745   95.1541 C   0  0  0  0  0  0  0  0  0  0  0  0
   66.9129   73.6828   96.4472 Cl  0  0  0  0  0  0  0  0  0  0  0  0
   68.0776   75.1342   94.4067 C   0  0  0  0  0  0  0  0  0  0  0  0
   69.5782   74.2746   94.7273 Cl  0  0  0  0  0  0  0  0  0  0  0  0
   68.0494   76.0896   93.3835 C   0  0  0  0  0  0  0  0  0  0  0  0
   68.4109   81.9788   91.4464 O   0  0  0  0  0  0  0  0  0  0  0  0
   67.2682   82.2909   91.0129 C   0  0  0  0  0  0  0  0  0  0  0  0
   66.9591   83.6612   90.7259 N   0  0  0  0  0  0  0  0  0  0  0  0
   66.2616   81.2842   90.8339 N   0  0  0  0  0  0  0  0  0  0  0  0
   66.0682   83.8807   90.3691 H   0  0  0  0  0  0  0  0  0  0  0  0
   65.3406   81.5738   90.6415 H   0  0  0  0  0  0  0  0  0  0  0  0
   67.9153   84.7447   90.9423 C   0  0  0  0  0  0  0  0  0  0  0  0
   67.7312   85.3361   92.3134 C   0  0  0  0  0  0  0  0  0  0  0  0
   66.5039   85.2148   92.9867 C   0  0  0  0  0  0  0  0  0  0  0  0
   66.3358   85.7865   94.2519 C   0  0  0  0  0  0  0  0  0  0  0  0
   67.3880   86.4847   94.8508 C   0  0  0  0  0  0  0  0  0  0  0  0
   68.6100   86.6138   94.1850 C   0  0  0  0  0  0  0  0  0  0  0  0
   68.7822   86.0439   92.9197 C   0  0  0  0  0  0  0  0  0  0  0  0
   67.1023   79.5076   88.4296 C   0  0  0  0  0  0  0  0  0  0  0  0
   66.8493   78.7023   87.4948 O   0  0  0  0  0  0  0  0  0  0  0  0
   67.5464   80.7913   88.1276 O   0  0  0  0  0  0  0  0  0  0  0  0
   67.7366   81.3957   88.8178 H   0  0  0  0  0  0  0  0  0  0  0  0
 14 15  2  0  0  0
 15 16  1  0  0  0
 16 20  1  0  0  0
 20 21  1  0  0  0
 21 22  2  0  0  0
 22 23  1  0  0  0
 23 24  2  0  0  0
 24 25  1  0  0  0
 25 26  2  0  0  0
 15 17  1  0  0  0
 17  1  1  0  0  0
  1  2  1  0  0  0
  2  3  2  0  0  0
  3  6  1  0  0  0
  6  7  2  0  0  0
  7  8  1  0  0  0
  8  9  2  0  0  0
  9 10  1  0  0  0
  9 11  1  0  0  0
 11 12  1  0  0  0
 11 13  2  0  0  0
  3  4  1  0  0  0
  4  5  1  0  0  0
  5 27  1  0  0  0
 27 28  2  0  0  0
 27 29  1  0  0  0
 26 21  1  0  0  0
  5  1  2  0  0  0
 13  6  1  0  0  0
 16 18  1  0  0  0
 17 19  1  0  0  0
 29 30  1  0  0  0
M  END
> <score>
-0.357913

> <minimizedAffinity>
-6.07260

> <CNNscore>
0.3822784126

> <CNNaffinity>
5.7550258636

> <CNN_VS>
2.2000222206

$$$$
HIPS343


 30 32  0  0  0  0  0  0  0  0999 V2000
   67.9108   73.9216   92.4824 C   0  0  0  0  0  0  0  0  0  0  0  0
   68.0570   74.7293   91.3392 C   0  0  0  0  0  0  0  0  0  0  0  0
   67.4222   75.9687   91.4404 C   0  0  0  0  0  0  0  0  0  0  0  0
   66.6922   76.0457   92.9585 S   0  0  0  0  0  0  0  0  0  0  0  0
   67.1683   74.5282   93.5005 C   0  0  0  0  0  0  0  0  0  0  0  0
   67.3907   77.0433   90.4138 C   0  0  0  0  0  0  0  0  0  0  0  0
   67.0770   78.3648   90.7813 C   0  0  0  0  0  0  0  0  0  0  0  0
   67.0438   79.3812   89.8234 C   0  0  0  0  0  0  0  0  0  0  0  0
   67.3248   79.0994   88.4841 C   0  0  0  0  0  0  0  0  0  0  0  0
   67.2727   80.4063   87.3087 Cl  0  0  0  0  0  0  0  0  0  0  0  0
   67.6432   77.7871   88.1019 C   0  0  0  0  0  0  0  0  0  0  0  0
   68.0099   77.3909   86.4279 Cl  0  0  0  0  0  0  0  0  0  0  0  0
   67.6760   76.7684   89.0620 C   0  0  0  0  0  0  0  0  0  0  0  0
   70.3700   73.3872   93.8643 O   0  0  0  0  0  0  0  0  0  0  0  0
   69.7181   72.4117   93.4011 C   0  0  0  0  0  0  0  0  0  0  0  0
   70.1714   71.0712   93.6320 N   0  0  0  0  0  0  0  0  0  0  0  0
   68.5388   72.6364   92.6154 N   0  0  0  0  0  0  0  0  0  0  0  0
   69.6369   70.3235   93.2790 H   0  0  0  0  0  0  0  0  0  0  0  0
   68.1395   71.8704   92.1431 H   0  0  0  0  0  0  0  0  0  0  0  0
   71.3958   70.7716   94.3710 C   0  0  0  0  0  0  0  0  0  0  0  0
   72.4634   70.2785   93.4326 C   0  0  0  0  0  0  0  0  0  0  0  0
   73.7960   70.6994   93.5794 C   0  0  0  0  0  0  0  0  0  0  0  0
   74.7773   70.2523   92.6890 C   0  0  0  0  0  0  0  0  0  0  0  0
   74.4355   69.3868   91.6461 C   0  0  0  0  0  0  0  0  0  0  0  0
   73.1112   68.9679   91.4908 C   0  0  0  0  0  0  0  0  0  0  0  0
   72.1268   69.4128   92.3788 C   0  0  0  0  0  0  0  0  0  0  0  0
   66.7878   73.9668   94.8080 C   0  0  0  0  0  0  0  0  0  0  0  0
   65.5870   73.9691   95.1878 O   0  0  0  0  0  0  0  0  0  0  0  0
   67.7707   73.4468   95.6445 O   0  0  0  0  0  0  0  0  0  0  0  0
   68.6662   73.4419   95.3685 H   0  0  0  0  0  0  0  0  0  0  0  0
 14 15  2  0  0  0
 15 16  1  0  0  0
 16 20  1  0  0  0
 20 21  1  0  0  0
 21 22  2  0  0  0
 22 23  1  0  0  0
 23 24  2  0  0  0
 24 25  1  0  0  0
 25 26  2  0  0  0
 15 17  1  0  0  0
 17  1  1  0  0  0
  1  2  1  0  0  0
  2  3  2  0  0  0
  3  6  1  0  0  0
  6  7  2  0  0  0
  7  8  1  0  0  0
  8  9  2  0  0  0
  9 10  1  0  0  0
  9 11  1  0  0  0
 11 12  1  0  0  0
 11 13  2  0  0  0
  3  4  1  0  0  0
  4  5  1  0  0  0
  5 27  1  0  0  0
 27 28  2  0  0  0
 27 29  1  0  0  0
 26 21  1  0  0  0
  5  1  2  0  0  0
 13  6  1  0  0  0
 16 18  1  0  0  0
 17 19  1  0  0  0
 29 30  1  0  0  0
M  END
> <score>
-0.357913

> <minimizedAffinity>
-7.84667

> <CNNscore>
0.3409553766

> <CNNaffinity>
5.6867866516

> <CNN_VS>
1.9389405251

$$$$
HIPS343


 30 32  0  0  0  0  0  0  0  0999 V2000
   68.4919   74.9728   93.6685 C   0  0  0  0  0  0  0  0  0  0  0  0
   68.5199   75.7470   92.4936 C   0  0  0  0  0  0  0  0  0  0  0  0
   67.3804   76.5323   92.3094 C   0  0  0  0  0  0  0  0  0  0  0  0
   66.3540   76.2576   93.6187 S   0  0  0  0  0  0  0  0  0  0  0  0
   67.3310   75.1549   94.4269 C   0  0  0  0  0  0  0  0  0  0  0  0
   67.1051   77.4565   91.1780 C   0  0  0  0  0  0  0  0  0  0  0  0
   66.9489   78.8352   91.4117 C   0  0  0  0  0  0  0  0  0  0  0  0
   66.6889   79.7113   90.3551 C   0  0  0  0  0  0  0  0  0  0  0  0
   66.5824   79.2298   89.0478 C   0  0  0  0  0  0  0  0  0  0  0  0
   66.2545   80.3647   87.7452 Cl  0  0  0  0  0  0  0  0  0  0  0  0
   66.7395   77.8578   88.7974 C   0  0  0  0  0  0  0  0  0  0  0  0
   66.6200   77.2115   87.1660 Cl  0  0  0  0  0  0  0  0  0  0  0  0
   66.9997   76.9798   89.8567 C   0  0  0  0  0  0  0  0  0  0  0  0
   68.7024   72.1366   93.2747 O   0  0  0  0  0  0  0  0  0  0  0  0
   69.6866   72.7475   93.7739 C   0  0  0  0  0  0  0  0  0  0  0  0
   70.8992   72.0392   94.0635 N   0  0  0  0  0  0  0  0  0  0  0  0
   69.5901   74.1450   94.0841 N   0  0  0  0  0  0  0  0  0  0  0  0
   71.6622   72.5390   94.4341 H   0  0  0  0  0  0  0  0  0  0  0  0
   70.3136   74.5580   94.6087 H   0  0  0  0  0  0  0  0  0  0  0  0
   71.0464   70.6043   93.8300 C   0  0  0  0  0  0  0  0  0  0  0  0
   72.3968   70.3088   93.2363 C   0  0  0  0  0  0  0  0  0  0  0  0
   72.5179   69.4735   92.1129 C   0  0  0  0  0  0  0  0  0  0  0  0
   73.7794   69.1875   91.5812 C   0  0  0  0  0  0  0  0  0  0  0  0
   74.9264   69.7292   92.1681 C   0  0  0  0  0  0  0  0  0  0  0  0
   74.8142   70.5568   93.2887 C   0  0  0  0  0  0  0  0  0  0  0  0
   73.5547   70.8452   93.8235 C   0  0  0  0  0  0  0  0  0  0  0  0
   66.9493   74.4858   95.6822 C   0  0  0  0  0  0  0  0  0  0  0  0
   66.2478   75.0790   96.5437 O   0  0  0  0  0  0  0  0  0  0  0  0
   67.3876   73.1885   95.9297 O   0  0  0  0  0  0  0  0  0  0  0  0
   67.9099   72.7410   95.2934 H   0  0  0  0  0  0  0  0  0  0  0  0
 14 15  2  0  0  0
 15 16  1  0  0  0
 16 20  1  0  0  0
 20 21  1  0  0  0
 21 22  2  0  0  0
 22 23  1  0  0  0
 23 24  2  0  0  0
 24 25  1  0  0  0
 25 26  2  0  0  0
 15 17  1  0  0  0
 17  1  1  0  0  0
  1  2  1  0  0  0
  2  3  2  0  0  0
  3  6  1  0  0  0
  6  7  2  0  0  0
  7  8  1  0  0  0
  8  9  2  0  0  0
  9 10  1  0  0  0
  9 11  1  0  0  0
 11 12  1  0  0  0
 11 13  2  0  0  0
  3  4  1  0  0  0
  4  5  1  0  0  0
  5 27  1  0  0  0
 27 28  2  0  0  0
 27 29  1  0  0  0
 26 21  1  0  0  0
  5  1  2  0  0  0
 13  6  1  0  0  0
 16 18  1  0  0  0
 17 19  1  0  0  0
 29 30  1  0  0  0
M  END
> <score>
-0.357913

> <minimizedAffinity>
-7.53339

> <CNNscore>
0.2749208510

> <CNNaffinity>
5.4080333710

> <CNN_VS>
1.4867811203

$$$$
HIPS345


 30 32  0  0  0  0  0  0  0  0999 V2000
   69.3632   78.8747   90.6299 C   0  0  0  0  0  0  0  0  0  0  0  0
   69.3240   80.1896   90.1201 C   0  0  0  0  0  0  0  0  0  0  0  0
   70.5798   80.7550   89.9089 C   0  0  0  0  0  0  0  0  0  0  0  0
   71.7352   79.6080   90.3476 S   0  0  0  0  0  0  0  0  0  0  0  0
   70.6649   78.3962   90.8138 C   0  0  0  0  0  0  0  0  0  0  0  0
   70.8643   82.1257   89.4067 C   0  0  0  0  0  0  0  0  0  0  0  0
   72.1328   82.7005   89.5939 C   0  0  0  0  0  0  0  0  0  0  0  0
   72.4182   83.9759   89.0930 C   0  0  0  0  0  0  0  0  0  0  0  0
   71.4433   84.6984   88.3991 C   0  0  0  0  0  0  0  0  0  0  0  0
   71.8488   86.2900   87.7625 Cl  0  0  0  0  0  0  0  0  0  0  0  0
   70.1687   84.1444   88.2162 C   0  0  0  0  0  0  0  0  0  0  0  0
   68.9106   85.0141   87.3472 Cl  0  0  0  0  0  0  0  0  0  0  0  0
   69.8835   82.8685   88.7196 C   0  0  0  0  0  0  0  0  0  0  0  0
   65.4083   78.9010   93.5776 C   0  0  0  0  0  0  0  0  0  0  0  0
   66.6737   78.3928   93.0403 N   0  0  0  0  0  0  0  0  0  0  0  0
   67.1262   78.8558   91.7499 C   0  0  0  0  0  0  0  0  0  0  0  0
   66.6167   79.8898   91.2351 O   0  0  0  0  0  0  0  0  0  0  0  0
   68.1857   78.1827   91.0626 N   0  0  0  0  0  0  0  0  0  0  0  0
   68.1033   77.2183   90.8824 H   0  0  0  0  0  0  0  0  0  0  0  0
   67.5210   77.5057   93.8573 C   0  0  0  0  0  0  0  0  0  0  0  0
   66.9980   76.0894   93.8163 C   0  0  0  0  0  0  0  0  0  0  0  0
   67.4778   75.1725   92.8639 C   0  0  0  0  0  0  0  0  0  0  0  0
   67.0487   73.8366   92.8853 C   0  0  0  0  0  0  0  0  0  0  0  0
   66.1316   73.4123   93.8455 C   0  0  0  0  0  0  0  0  0  0  0  0
   65.6217   74.3228   94.7770 C   0  0  0  0  0  0  0  0  0  0  0  0
   66.0431   75.6583   94.7582 C   0  0  0  0  0  0  0  0  0  0  0  0
   71.0807   77.0622   91.2830 C   0  0  0  0  0  0  0  0  0  0  0  0
   70.2861   76.0835   91.2418 O   0  0  0  0  0  0  0  0  0  0  0  0
   72.3746   76.8716   91.7543 O   0  0  0  0  0  0  0  0  0  0  0  0
   72.9717   77.5928   91.7886 H   0  0  0  0  0  0  0  0  0  0  0  0
 14 15  1  0  0  0
 15 20  1  0  0  0
 20 21  1  0  0  0
 21 22  2  0  0  0
 22 23  1  0  0  0
 23 24  2  0  0  0
 24 25  1  0  0  0
 25 26  2  0  0  0
 15 16  1  0  0  0
 16 17  2  0  0  0
 16 18  1  0  0  0
 18  1  1  0  0  0
  1  2  1  0  0  0
  2  3  2  0  0  0
  3  6  1  0  0  0
  6  7  2  0  0  0
  7  8  1  0  0  0
  8  9  2  0  0  0
  9 10  1  0  0  0
  9 11  1  0  0  0
 11 12  1  0  0  0
 11 13  2  0  0  0
  3  4  1  0  0  0
  4  5  1  0  0  0
  5 27  1  0  0  0
 27 28  2  0  0  0
 27 29  1  0  0  0
 26 21  1  0  0  0
  5  1  2  0  0  0
 13  6  1  0  0  0
 18 19  1  0  0  0
 29 30  1  0  0  0
M  END
> <score>
-0.550434

> <minimizedAffinity>
-7.21556

> <CNNscore>
0.8015729785

> <CNNaffinity>
6.4074316025

> <CNN_VS>
5.1360239983

$$$$
HIPS345


 30 32  0  0  0  0  0  0  0  0999 V2000
   69.4830   78.5284   90.4882 C   0  0  0  0  0  0  0  0  0  0  0  0
   69.0535   79.7426   89.9125 C   0  0  0  0  0  0  0  0  0  0  0  0
   70.0571   80.7018   89.7940 C   0  0  0  0  0  0  0  0  0  0  0  0
   71.4800   80.0275   90.3967 S   0  0  0  0  0  0  0  0  0  0  0  0
   70.8425   78.5285   90.8185 C   0  0  0  0  0  0  0  0  0  0  0  0
   69.9102   82.0797   89.2539 C   0  0  0  0  0  0  0  0  0  0  0  0
   70.9085   83.0416   89.4835 C   0  0  0  0  0  0  0  0  0  0  0  0
   70.7934   84.3298   88.9484 C   0  0  0  0  0  0  0  0  0  0  0  0
   69.6809   84.6795   88.1776 C   0  0  0  0  0  0  0  0  0  0  0  0
   69.5846   86.3030   87.5010 Cl  0  0  0  0  0  0  0  0  0  0  0  0
   68.6698   83.7353   87.9512 C   0  0  0  0  0  0  0  0  0  0  0  0
   67.2531   84.1278   86.9853 Cl  0  0  0  0  0  0  0  0  0  0  0  0
   68.7851   82.4468   88.4887 C   0  0  0  0  0  0  0  0  0  0  0  0
   66.1007   76.9019   93.6889 C   0  0  0  0  0  0  0  0  0  0  0  0
   67.3569   76.8644   92.9349 N   0  0  0  0  0  0  0  0  0  0  0  0
   67.4979   77.6940   91.7618 C   0  0  0  0  0  0  0  0  0  0  0  0
   66.6949   78.6473   91.5617 O   0  0  0  0  0  0  0  0  0  0  0  0
   68.5721   77.4802   90.8407 N   0  0  0  0  0  0  0  0  0  0  0  0
   68.6883   76.5891   90.4386 H   0  0  0  0  0  0  0  0  0  0  0  0
   68.4951   76.0715   93.4330 C   0  0  0  0  0  0  0  0  0  0  0  0
   68.4624   74.6771   92.8537 C   0  0  0  0  0  0  0  0  0  0  0  0
   67.3702   73.8240   93.0930 C   0  0  0  0  0  0  0  0  0  0  0  0
   67.3084   72.5615   92.4834 C   0  0  0  0  0  0  0  0  0  0  0  0
   68.3386   72.1390   91.6449 C   0  0  0  0  0  0  0  0  0  0  0  0
   69.4462   72.9650   91.4258 C   0  0  0  0  0  0  0  0  0  0  0  0
   69.5154   74.2244   92.0345 C   0  0  0  0  0  0  0  0  0  0  0  0
   71.6347   77.4249   91.3905 C   0  0  0  0  0  0  0  0  0  0  0  0
   71.3720   76.9630   92.5344 O   0  0  0  0  0  0  0  0  0  0  0  0
   72.6705   76.8665   90.6503 O   0  0  0  0  0  0  0  0  0  0  0  0
   72.8729   77.2032   89.7996 H   0  0  0  0  0  0  0  0  0  0  0  0
 14 15  1  0  0  0
 15 20  1  0  0  0
 20 21  1  0  0  0
 21 22  2  0  0  0
 22 23  1  0  0  0
 23 24  2  0  0  0
 24 25  1  0  0  0
 25 26  2  0  0  0
 15 16  1  0  0  0
 16 17  2  0  0  0
 16 18  1  0  0  0
 18  1  1  0  0  0
  1  2  1  0  0  0
  2  3  2  0  0  0
  3  6  1  0  0  0
  6  7  2  0  0  0
  7  8  1  0  0  0
  8  9  2  0  0  0
  9 10  1  0  0  0
  9 11  1  0  0  0
 11 12  1  0  0  0
 11 13  2  0  0  0
  3  4  1  0  0  0
  4  5  1  0  0  0
  5 27  1  0  0  0
 27 28  2  0  0  0
 27 29  1  0  0  0
 26 21  1  0  0  0
  5  1  2  0  0  0
 13  6  1  0  0  0
 18 19  1  0  0  0
 29 30  1  0  0  0
M  END
> <score>
-0.550434

> <minimizedAffinity>
-7.65820

> <CNNscore>
0.7301390767

> <CNNaffinity>
6.4259538651

> <CNN_VS>
4.6918401718

$$$$
HIPS345


 30 32  0  0  0  0  0  0  0  0999 V2000
   69.1282   79.6317   90.3825 C   0  0  0  0  0  0  0  0  0  0  0  0
   69.3281   80.9551   89.9367 C   0  0  0  0  0  0  0  0  0  0  0  0
   70.6648   81.2899   89.7312 C   0  0  0  0  0  0  0  0  0  0  0  0
   71.5924   79.9297   90.0948 S   0  0  0  0  0  0  0  0  0  0  0  0
   70.3207   78.9134   90.5210 C   0  0  0  0  0  0  0  0  0  0  0  0
   71.1932   82.6083   89.2902 C   0  0  0  0  0  0  0  0  0  0  0  0
   72.5204   82.9718   89.5750 C   0  0  0  0  0  0  0  0  0  0  0  0
   73.0346   84.1960   89.1323 C   0  0  0  0  0  0  0  0  0  0  0  0
   72.2336   85.0772   88.4004 C   0  0  0  0  0  0  0  0  0  0  0  0
   72.9248   86.5973   87.8397 Cl  0  0  0  0  0  0  0  0  0  0  0  0
   70.9034   84.7352   88.1201 C   0  0  0  0  0  0  0  0  0  0  0  0
   69.8582   85.8099   87.1999 Cl  0  0  0  0  0  0  0  0  0  0  0  0
   70.3891   83.5105   88.5651 C   0  0  0  0  0  0  0  0  0  0  0  0
   64.2426   80.3093   90.3400 C   0  0  0  0  0  0  0  0  0  0  0  0
   65.5677   80.1600   90.9480 N   0  0  0  0  0  0  0  0  0  0  0  0
   66.6359   79.5766   90.1715 C   0  0  0  0  0  0  0  0  0  0  0  0
   66.5260   79.4803   88.9176 O   0  0  0  0  0  0  0  0  0  0  0  0
   67.8468   79.1470   90.8018 N   0  0  0  0  0  0  0  0  0  0  0  0
   67.7980   78.5013   91.5434 H   0  0  0  0  0  0  0  0  0  0  0  0
   65.8285   80.6985   92.2950 C   0  0  0  0  0  0  0  0  0  0  0  0
   66.6544   81.9600   92.2097 C   0  0  0  0  0  0  0  0  0  0  0  0
   67.7212   82.1830   93.0988 C   0  0  0  0  0  0  0  0  0  0  0  0
   68.5357   83.3174   92.9601 C   0  0  0  0  0  0  0  0  0  0  0  0
   68.2835   84.2392   91.9455 C   0  0  0  0  0  0  0  0  0  0  0  0
   67.2050   84.0455   91.0759 C   0  0  0  0  0  0  0  0  0  0  0  0
   66.3861   82.9175   91.2117 C   0  0  0  0  0  0  0  0  0  0  0  0
   70.4871   77.5039   90.9188 C   0  0  0  0  0  0  0  0  0  0  0  0
   69.5079   76.7089   90.9145 O   0  0  0  0  0  0  0  0  0  0  0  0
   71.7452   77.0354   91.2799 O   0  0  0  0  0  0  0  0  0  0  0  0
   72.4784   77.6188   91.2860 H   0  0  0  0  0  0  0  0  0  0  0  0
 14 15  1  0  0  0
 15 20  1  0  0  0
 20 21  1  0  0  0
 21 22  2  0  0  0
 22 23  1  0  0  0
 23 24  2  0  0  0
 24 25  1  0  0  0
 25 26  2  0  0  0
 15 16  1  0  0  0
 16 17  2  0  0  0
 16 18  1  0  0  0
 18  1  1  0  0  0
  1  2  1  0  0  0
  2  3  2  0  0  0
  3  6  1  0  0  0
  6  7  2  0  0  0
  7  8  1  0  0  0
  8  9  2  0  0  0
  9 10  1  0  0  0
  9 11  1  0  0  0
 11 12  1  0  0  0
 11 13  2  0  0  0
  3  4  1  0  0  0
  4  5  1  0  0  0
  5 27  1  0  0  0
 27 28  2  0  0  0
 27 29  1  0  0  0
 26 21  1  0  0  0
  5  1  2  0  0  0
 13  6  1  0  0  0
 18 19  1  0  0  0
 29 30  1  0  0  0
M  END
> <score>
-0.550434

> <minimizedAffinity>
-6.20102

> <CNNscore>
0.5692647099

> <CNNaffinity>
6.6133022308

> <CNN_VS>
3.7647194862

$$$$
HIPS346


 32 34  0  0  0  0  0  0  0  0999 V2000
   68.5324   77.5227   91.2644 C   0  0  0  0  0  0  0  0  0  0  0  0
   67.9379   78.6081   90.5947 C   0  0  0  0  0  0  0  0  0  0  0  0
   68.8542   79.4702   89.9920 C   0  0  0  0  0  0  0  0  0  0  0  0
   70.3986   78.8609   90.2903 S   0  0  0  0  0  0  0  0  0  0  0  0
   69.9279   77.5144   91.1808 C   0  0  0  0  0  0  0  0  0  0  0  0
   68.5407   80.6900   89.2024 C   0  0  0  0  0  0  0  0  0  0  0  0
   67.4957   80.6767   88.2605 C   0  0  0  0  0  0  0  0  0  0  0  0
   67.1922   81.8208   87.5184 C   0  0  0  0  0  0  0  0  0  0  0  0
   67.9252   82.9965   87.7004 C   0  0  0  0  0  0  0  0  0  0  0  0
   67.5111   84.4156   86.7482 Cl  0  0  0  0  0  0  0  0  0  0  0  0
   68.9738   83.0247   88.6328 C   0  0  0  0  0  0  0  0  0  0  0  0
   69.9249   84.4818   88.8896 Cl  0  0  0  0  0  0  0  0  0  0  0  0
   69.2785   81.8779   89.3755 C   0  0  0  0  0  0  0  0  0  0  0  0
   67.4750   74.0389   92.2127 N   0  0  0  0  0  0  0  0  0  0  0  0
   67.6935   75.1563   91.3424 C   0  0  0  0  0  0  0  0  0  0  0  0
   67.8315   74.9743   90.1017 O   0  0  0  0  0  0  0  0  0  0  0  0
   67.7623   76.4807   91.8842 N   0  0  0  0  0  0  0  0  0  0  0  0
   67.1450   74.2026   93.1257 H   0  0  0  0  0  0  0  0  0  0  0  0
   67.2649   76.6835   92.7092 H   0  0  0  0  0  0  0  0  0  0  0  0
   67.7270   72.6636   91.7867 C   0  0  0  0  0  0  0  0  0  0  0  0
   71.3543   71.2665   93.6759 C   0  0  0  0  0  0  0  0  0  0  0  0
   70.9406   70.7218   92.4453 C   0  0  0  0  0  0  0  0  0  0  0  0
   69.7523   71.1524   91.8479 C   0  0  0  0  0  0  0  0  0  0  0  0
   68.9601   72.1311   92.4681 C   0  0  0  0  0  0  0  0  0  0  0  0
   69.3717   72.6707   93.6957 C   0  0  0  0  0  0  0  0  0  0  0  0
   70.5575   72.2364   94.2951 C   0  0  0  0  0  0  0  0  0  0  0  0
   73.7913   70.7108   93.6416 C   0  0  0  0  0  0  0  0  0  0  0  0
   72.5443   70.8774   94.3085 O   0  0  0  0  0  0  0  0  0  0  0  0
   70.8689   76.5540   91.7810 C   0  0  0  0  0  0  0  0  0  0  0  0
   71.9437   76.9461   92.3080 O   0  0  0  0  0  0  0  0  0  0  0  0
   70.5771   75.1938   91.7481 O   0  0  0  0  0  0  0  0  0  0  0  0
   69.7795   74.8950   91.3576 H   0  0  0  0  0  0  0  0  0  0  0  0
 27 28  1  0  0  0
 28 21  1  0  0  0
 21 22  2  0  0  0
 22 23  1  0  0  0
 23 24  2  0  0  0
 24 20  1  0  0  0
 20 14  1  0  0  0
 14 15  1  0  0  0
 15 16  2  0  0  0
 15 17  1  0  0  0
 17  1  1  0  0  0
  1  2  1  0  0  0
  2  3  2  0  0  0
  3  6  1  0  0  0
  6  7  2  0  0  0
  7  8  1  0  0  0
  8  9  2  0  0  0
  9 10  1  0  0  0
  9 11  1  0  0  0
 11 12  1  0  0  0
 11 13  2  0  0  0
  3  4  1  0  0  0
  4  5  1  0  0  0
  5 29  1  0  0  0
 29 30  2  0  0  0
 29 31  1  0  0  0
 24 25  1  0  0  0
 25 26  2  0  0  0
 26 21  1  0  0  0
  5  1  2  0  0  0
 13  6  1  0  0  0
 14 18  1  0  0  0
 17 19  1  0  0  0
 31 32  1  0  0  0
M  END
> <score>
-0.461449

> <minimizedAffinity>
-7.63120

> <CNNscore>
0.4174753726

> <CNNaffinity>
5.9402427673

> <CNN_VS>
2.4799051285

$$$$
HIPS346


 32 34  0  0  0  0  0  0  0  0999 V2000
   67.9639   78.0026   89.4090 C   0  0  0  0  0  0  0  0  0  0  0  0
   67.9725   77.5941   90.7555 C   0  0  0  0  0  0  0  0  0  0  0  0
   67.5888   76.2664   90.9454 C   0  0  0  0  0  0  0  0  0  0  0  0
   67.2551   75.6110   89.4273 S   0  0  0  0  0  0  0  0  0  0  0  0
   67.5857   76.9896   88.5229 C   0  0  0  0  0  0  0  0  0  0  0  0
   67.5122   75.5395   92.2398 C   0  0  0  0  0  0  0  0  0  0  0  0
   68.3635   74.4482   92.4924 C   0  0  0  0  0  0  0  0  0  0  0  0
   68.3007   73.7635   93.7085 C   0  0  0  0  0  0  0  0  0  0  0  0
   67.3879   74.1526   94.6924 C   0  0  0  0  0  0  0  0  0  0  0  0
   67.3408   73.2661   96.2103 Cl  0  0  0  0  0  0  0  0  0  0  0  0
   66.5285   75.2362   94.4541 C   0  0  0  0  0  0  0  0  0  0  0  0
   65.3615   75.7558   95.6630 Cl  0  0  0  0  0  0  0  0  0  0  0  0
   66.5910   75.9215   93.2350 C   0  0  0  0  0  0  0  0  0  0  0  0
   68.1957   81.7567   89.3249 N   0  0  0  0  0  0  0  0  0  0  0  0
   67.5823   80.4725   89.1567 C   0  0  0  0  0  0  0  0  0  0  0  0
   66.3252   80.3667   89.1583 O   0  0  0  0  0  0  0  0  0  0  0  0
   68.3990   79.3068   88.9937 N   0  0  0  0  0  0  0  0  0  0  0  0
   69.1473   81.8645   89.0967 H   0  0  0  0  0  0  0  0  0  0  0  0
   69.2886   79.4030   88.5831 H   0  0  0  0  0  0  0  0  0  0  0  0
   67.4521   82.9115   89.8247 C   0  0  0  0  0  0  0  0  0  0  0  0
   68.8408   84.1386   93.7290 C   0  0  0  0  0  0  0  0  0  0  0  0
   69.7629   83.7549   92.7367 C   0  0  0  0  0  0  0  0  0  0  0  0
   69.3132   83.3301   91.4831 C   0  0  0  0  0  0  0  0  0  0  0  0
   67.9391   83.2815   91.2010 C   0  0  0  0  0  0  0  0  0  0  0  0
   67.0213   83.6609   92.1915 C   0  0  0  0  0  0  0  0  0  0  0  0
   67.4711   84.0811   93.4465 C   0  0  0  0  0  0  0  0  0  0  0  0
   68.3554   84.8071   96.0882 C   0  0  0  0  0  0  0  0  0  0  0  0
   69.2424   84.5846   94.9969 O   0  0  0  0  0  0  0  0  0  0  0  0
   67.4406   77.0688   87.0598 C   0  0  0  0  0  0  0  0  0  0  0  0
   67.0003   76.0902   86.4003 O   0  0  0  0  0  0  0  0  0  0  0  0
   67.8133   78.2328   86.3943 O   0  0  0  0  0  0  0  0  0  0  0  0
   68.1416   78.9647   86.8785 H   0  0  0  0  0  0  0  0  0  0  0  0
 27 28  1  0  0  0
 28 21  1  0  0  0
 21 22  2  0  0  0
 22 23  1  0  0  0
 23 24  2  0  0  0
 24 20  1  0  0  0
 20 14  1  0  0  0
 14 15  1  0  0  0
 15 16  2  0  0  0
 15 17  1  0  0  0
 17  1  1  0  0  0
  1  2  1  0  0  0
  2  3  2  0  0  0
  3  6  1  0  0  0
  6  7  2  0  0  0
  7  8  1  0  0  0
  8  9  2  0  0  0
  9 10  1  0  0  0
  9 11  1  0  0  0
 11 12  1  0  0  0
 11 13  2  0  0  0
  3  4  1  0  0  0
  4  5  1  0  0  0
  5 29  1  0  0  0
 29 30  2  0  0  0
 29 31  1  0  0  0
 24 25  1  0  0  0
 25 26  2  0  0  0
 26 21  1  0  0  0
  5  1  2  0  0  0
 13  6  1  0  0  0
 14 18  1  0  0  0
 17 19  1  0  0  0
 31 32  1  0  0  0
M  END
> <score>
-0.461449

> <minimizedAffinity>
-6.13908

> <CNNscore>
0.3767629564

> <CNNaffinity>
6.1564540863

> <CNN_VS>
2.3195238113

$$$$
HIPS346


 32 34  0  0  0  0  0  0  0  0999 V2000
   68.4894   82.3492   90.0543 C   0  0  0  0  0  0  0  0  0  0  0  0
   68.1271   81.5372   91.1449 C   0  0  0  0  0  0  0  0  0  0  0  0
   67.6030   80.2979   90.7767 C   0  0  0  0  0  0  0  0  0  0  0  0
   67.6095   80.2228   89.0915 S   0  0  0  0  0  0  0  0  0  0  0  0
   68.2657   81.7458   88.8132 C   0  0  0  0  0  0  0  0  0  0  0  0
   67.1462   79.2187   91.6912 C   0  0  0  0  0  0  0  0  0  0  0  0
   67.6087   77.9009   91.5208 C   0  0  0  0  0  0  0  0  0  0  0  0
   67.1875   76.8825   92.3794 C   0  0  0  0  0  0  0  0  0  0  0  0
   66.2975   77.1587   93.4206 C   0  0  0  0  0  0  0  0  0  0  0  0
   65.7925   75.8498   94.4806 Cl  0  0  0  0  0  0  0  0  0  0  0  0
   65.8232   78.4672   93.6011 C   0  0  0  0  0  0  0  0  0  0  0  0
   64.6982   78.8575   94.8955 Cl  0  0  0  0  0  0  0  0  0  0  0  0
   66.2445   79.4873   92.7399 C   0  0  0  0  0  0  0  0  0  0  0  0
   68.8685   85.9692   91.0062 N   0  0  0  0  0  0  0  0  0  0  0  0
   68.3666   84.8491   90.2664 C   0  0  0  0  0  0  0  0  0  0  0  0
   67.2621   84.9334   89.6628 O   0  0  0  0  0  0  0  0  0  0  0  0
   69.1178   83.6302   90.2189 N   0  0  0  0  0  0  0  0  0  0  0  0
   69.8152   85.9770   91.2763 H   0  0  0  0  0  0  0  0  0  0  0  0
   70.0979   83.6720   90.3020 H   0  0  0  0  0  0  0  0  0  0  0  0
   68.0183   87.1004   91.3721 C   0  0  0  0  0  0  0  0  0  0  0  0
   65.6218   86.1677   94.8456 C   0  0  0  0  0  0  0  0  0  0  0  0
   66.7390   85.3747   94.5212 C   0  0  0  0  0  0  0  0  0  0  0  0
   67.4976   85.6582   93.3817 C   0  0  0  0  0  0  0  0  0  0  0  0
   67.1535   86.7351   92.5498 C   0  0  0  0  0  0  0  0  0  0  0  0
   66.0382   87.5224   92.8722 C   0  0  0  0  0  0  0  0  0  0  0  0
   65.2772   87.2357   94.0091 C   0  0  0  0  0  0  0  0  0  0  0  0
   64.6077   86.8891   97.0134 C   0  0  0  0  0  0  0  0  0  0  0  0
   64.8375   85.9322   95.9845 O   0  0  0  0  0  0  0  0  0  0  0  0
   68.4992   82.3094   87.4730 C   0  0  0  0  0  0  0  0  0  0  0  0
   67.7312   82.0337   86.5135 O   0  0  0  0  0  0  0  0  0  0  0  0
   69.5938   83.1415   87.2585 O   0  0  0  0  0  0  0  0  0  0  0  0
   70.1693   83.3508   87.9678 H   0  0  0  0  0  0  0  0  0  0  0  0
 27 28  1  0  0  0
 28 21  1  0  0  0
 21 22  2  0  0  0
 22 23  1  0  0  0
 23 24  2  0  0  0
 24 20  1  0  0  0
 20 14  1  0  0  0
 14 15  1  0  0  0
 15 16  2  0  0  0
 15 17  1  0  0  0
 17  1  1  0  0  0
  1  2  1  0  0  0
  2  3  2  0  0  0
  3  6  1  0  0  0
  6  7  2  0  0  0
  7  8  1  0  0  0
  8  9  2  0  0  0
  9 10  1  0  0  0
  9 11  1  0  0  0
 11 12  1  0  0  0
 11 13  2  0  0  0
  3  4  1  0  0  0
  4  5  1  0  0  0
  5 29  1  0  0  0
 29 30  2  0  0  0
 29 31  1  0  0  0
 24 25  1  0  0  0
 25 26  2  0  0  0
 26 21  1  0  0  0
  5  1  2  0  0  0
 13  6  1  0  0  0
 14 18  1  0  0  0
 17 19  1  0  0  0
 31 32  1  0  0  0
M  END
> <score>
-0.461449

> <minimizedAffinity>
-5.29737

> <CNNscore>
0.3098390996

> <CNNaffinity>
6.0386409760

> <CNN_VS>
1.8710070848

$$$$
HIPS347


 30 31  0  0  0  0  0  0  0  0999 V2000
   68.8153   77.6146   91.1687 C   0  0  0  0  0  0  0  0  0  0  0  0
   68.1258   78.6613   90.5289 C   0  0  0  0  0  0  0  0  0  0  0  0
   68.9629   79.6177   89.9530 C   0  0  0  0  0  0  0  0  0  0  0  0
   70.5552   79.1411   90.2352 S   0  0  0  0  0  0  0  0  0  0  0  0
   70.2065   77.7346   91.0866 C   0  0  0  0  0  0  0  0  0  0  0  0
   68.5445   80.8301   89.2032 C   0  0  0  0  0  0  0  0  0  0  0  0
   67.5451   80.7621   88.2143 C   0  0  0  0  0  0  0  0  0  0  0  0
   67.1584   81.9085   87.5157 C   0  0  0  0  0  0  0  0  0  0  0  0
   67.7580   83.1404   87.7908 C   0  0  0  0  0  0  0  0  0  0  0  0
   67.2429   84.5596   86.8892 Cl  0  0  0  0  0  0  0  0  0  0  0  0
   68.7529   83.2246   88.7772 C   0  0  0  0  0  0  0  0  0  0  0  0
   69.5325   84.7551   89.1553 Cl  0  0  0  0  0  0  0  0  0  0  0  0
   69.1397   82.0758   89.4775 C   0  0  0  0  0  0  0  0  0  0  0  0
   67.5932   74.0709   91.8484 N   0  0  0  0  0  0  0  0  0  0  0  0
   68.0185   75.2168   91.0977 C   0  0  0  0  0  0  0  0  0  0  0  0
   68.2587   75.1141   89.8637 O   0  0  0  0  0  0  0  0  0  0  0  0
   68.1487   76.4851   91.7554 N   0  0  0  0  0  0  0  0  0  0  0  0
   67.3646   74.1922   92.7983 H   0  0  0  0  0  0  0  0  0  0  0  0
   67.7615   76.5867   92.6549 H   0  0  0  0  0  0  0  0  0  0  0  0
   67.4822   72.7307   91.2720 C   0  0  0  0  0  0  0  0  0  0  0  0
   68.8654   72.0828   91.1172 C   0  0  0  0  0  0  0  0  0  0  0  0
   69.3664   71.4055   92.4034 C   0  0  0  0  0  0  0  0  0  0  0  0
   71.5937   71.6287   93.2522 O   0  0  0  0  0  0  0  0  0  0  0  0
   70.4728   72.1723   93.0617 C   0  0  0  0  0  0  0  0  0  0  0  0
   70.2653   73.4912   93.4530 O   0  0  0  0  0  0  0  0  0  0  0  0
   69.4323   73.8962   93.3118 H   0  0  0  0  0  0  0  0  0  0  0  0
   71.2321   76.8494   91.6642 C   0  0  0  0  0  0  0  0  0  0  0  0
   72.3974   76.8130   91.1878 O   0  0  0  0  0  0  0  0  0  0  0  0
   70.9034   76.0255   92.7363 O   0  0  0  0  0  0  0  0  0  0  0  0
   70.0384   76.0473   93.0959 H   0  0  0  0  0  0  0  0  0  0  0  0
 23 24  2  0  0  0
 24 25  1  0  0  0
 24 22  1  0  0  0
 22 21  1  0  0  0
 21 20  1  0  0  0
 20 14  1  0  0  0
 14 15  1  0  0  0
 15 16  2  0  0  0
 15 17  1  0  0  0
 17  1  1  0  0  0
  1  2  1  0  0  0
  2  3  2  0  0  0
  3  6  1  0  0  0
  6  7  2  0  0  0
  7  8  1  0  0  0
  8  9  2  0  0  0
  9 10  1  0  0  0
  9 11  1  0  0  0
 11 12  1  0  0  0
 11 13  2  0  0  0
  3  4  1  0  0  0
  4  5  1  0  0  0
  5 27  1  0  0  0
 27 28  2  0  0  0
 27 29  1  0  0  0
  5  1  2  0  0  0
 13  6  1  0  0  0
 25 26  1  0  0  0
 14 18  1  0  0  0
 17 19  1  0  0  0
 29 30  1  0  0  0
M  END
> <score>
0.284964

> <minimizedAffinity>
-6.71727

> <CNNscore>
0.5341991782

> <CNNaffinity>
5.7962465286

> <CNN_VS>
3.0963501930

$$$$
HIPS347


 30 31  0  0  0  0  0  0  0  0999 V2000
   68.8683   77.8295   90.9910 C   0  0  0  0  0  0  0  0  0  0  0  0
   68.3703   79.0021   90.3932 C   0  0  0  0  0  0  0  0  0  0  0  0
   69.3649   79.8845   89.9701 C   0  0  0  0  0  0  0  0  0  0  0  0
   70.8563   79.1873   90.3330 S   0  0  0  0  0  0  0  0  0  0  0  0
   70.2655   77.7760   91.0284 C   0  0  0  0  0  0  0  0  0  0  0  0
   69.1647   81.1946   89.2986 C   0  0  0  0  0  0  0  0  0  0  0  0
   67.9764   81.4765   88.5987 C   0  0  0  0  0  0  0  0  0  0  0  0
   67.7980   82.7122   87.9715 C   0  0  0  0  0  0  0  0  0  0  0  0
   68.7973   83.6871   88.0323 C   0  0  0  0  0  0  0  0  0  0  0  0
   68.5336   85.2293   87.2296 Cl  0  0  0  0  0  0  0  0  0  0  0  0
   69.9858   83.4220   88.7301 C   0  0  0  0  0  0  0  0  0  0  0  0
   71.2683   84.6211   88.8318 Cl  0  0  0  0  0  0  0  0  0  0  0  0
   70.1641   82.1840   89.3590 C   0  0  0  0  0  0  0  0  0  0  0  0
   66.4946   75.6835   93.0582 N   0  0  0  0  0  0  0  0  0  0  0  0
   67.5491   76.6124   92.7707 C   0  0  0  0  0  0  0  0  0  0  0  0
   68.0713   77.2875   93.6995 O   0  0  0  0  0  0  0  0  0  0  0  0
   68.0202   76.7531   91.4231 N   0  0  0  0  0  0  0  0  0  0  0  0
   66.1410   75.1342   92.3216 H   0  0  0  0  0  0  0  0  0  0  0  0
   67.7486   76.0776   90.7604 H   0  0  0  0  0  0  0  0  0  0  0  0
   65.9184   75.5120   94.3921 C   0  0  0  0  0  0  0  0  0  0  0  0
   66.1460   74.0846   94.9097 C   0  0  0  0  0  0  0  0  0  0  0  0
   67.3638   73.9628   95.8404 C   0  0  0  0  0  0  0  0  0  0  0  0
   68.9300   72.7840   94.4662 O   0  0  0  0  0  0  0  0  0  0  0  0
   68.6530   73.8459   95.0856 C   0  0  0  0  0  0  0  0  0  0  0  0
   69.5409   74.9167   95.0593 O   0  0  0  0  0  0  0  0  0  0  0  0
   69.3358   75.7067   95.5196 H   0  0  0  0  0  0  0  0  0  0  0  0
   71.1210   76.7247   91.6048 C   0  0  0  0  0  0  0  0  0  0  0  0
   72.3269   76.6109   91.2596 O   0  0  0  0  0  0  0  0  0  0  0  0
   70.5841   75.8310   92.5263 O   0  0  0  0  0  0  0  0  0  0  0  0
   69.6878   75.9096   92.7878 H   0  0  0  0  0  0  0  0  0  0  0  0
 23 24  2  0  0  0
 24 25  1  0  0  0
 24 22  1  0  0  0
 22 21  1  0  0  0
 21 20  1  0  0  0
 20 14  1  0  0  0
 14 15  1  0  0  0
 15 16  2  0  0  0
 15 17  1  0  0  0
 17  1  1  0  0  0
  1  2  1  0  0  0
  2  3  2  0  0  0
  3  6  1  0  0  0
  6  7  2  0  0  0
  7  8  1  0  0  0
  8  9  2  0  0  0
  9 10  1  0  0  0
  9 11  1  0  0  0
 11 12  1  0  0  0
 11 13  2  0  0  0
  3  4  1  0  0  0
  4  5  1  0  0  0
  5 27  1  0  0  0
 27 28  2  0  0  0
 27 29  1  0  0  0
  5  1  2  0  0  0
 13  6  1  0  0  0
 25 26  1  0  0  0
 14 18  1  0  0  0
 17 19  1  0  0  0
 29 30  1  0  0  0
M  END
> <score>
0.284964

> <minimizedAffinity>
-7.07590

> <CNNscore>
0.4281297028

> <CNNaffinity>
5.6493864059

> <CNN_VS>
2.4186701775

$$$$
HIPS347


 30 31  0  0  0  0  0  0  0  0999 V2000
   66.9118   74.0900   88.7244 C   0  0  0  0  0  0  0  0  0  0  0  0
   66.8150   75.4020   88.2247 C   0  0  0  0  0  0  0  0  0  0  0  0
   67.3977   76.3636   89.0510 C   0  0  0  0  0  0  0  0  0  0  0  0
   68.0406   75.5663   90.3903 S   0  0  0  0  0  0  0  0  0  0  0  0
   67.5879   74.0099   89.9463 C   0  0  0  0  0  0  0  0  0  0  0  0
   67.4688   77.8262   88.8007 C   0  0  0  0  0  0  0  0  0  0  0  0
   66.6363   78.4397   87.8456 C   0  0  0  0  0  0  0  0  0  0  0  0
   66.7105   79.8162   87.6187 C   0  0  0  0  0  0  0  0  0  0  0  0
   67.6121   80.6043   88.3391 C   0  0  0  0  0  0  0  0  0  0  0  0
   67.6745   82.3331   88.0236 Cl  0  0  0  0  0  0  0  0  0  0  0  0
   68.4455   80.0075   89.2977 C   0  0  0  0  0  0  0  0  0  0  0  0
   69.5935   80.9625   90.2267 Cl  0  0  0  0  0  0  0  0  0  0  0  0
   68.3705   78.6282   89.5254 C   0  0  0  0  0  0  0  0  0  0  0  0
   66.4518   71.4585   86.0083 N   0  0  0  0  0  0  0  0  0  0  0  0
   66.6974   72.7439   86.5957 C   0  0  0  0  0  0  0  0  0  0  0  0
   67.1102   73.6992   85.8831 O   0  0  0  0  0  0  0  0  0  0  0  0
   66.4505   72.9412   87.9950 N   0  0  0  0  0  0  0  0  0  0  0  0
   66.0824   70.7462   86.5787 H   0  0  0  0  0  0  0  0  0  0  0  0
   65.9388   72.2543   88.4804 H   0  0  0  0  0  0  0  0  0  0  0  0
   66.7232   71.1538   84.6033 C   0  0  0  0  0  0  0  0  0  0  0  0
   66.2850   69.7239   84.2564 C   0  0  0  0  0  0  0  0  0  0  0  0
   65.2081   69.6675   83.1605 C   0  0  0  0  0  0  0  0  0  0  0  0
   63.3764   70.9752   83.9763 O   0  0  0  0  0  0  0  0  0  0  0  0
   64.3293   70.8812   83.1570 C   0  0  0  0  0  0  0  0  0  0  0  0
   64.5733   71.9116   82.2546 O   0  0  0  0  0  0  0  0  0  0  0  0
   65.2816   71.8426   81.6451 H   0  0  0  0  0  0  0  0  0  0  0  0
   67.8439   72.8149   90.7684 C   0  0  0  0  0  0  0  0  0  0  0  0
   69.0202   72.4289   90.9993 O   0  0  0  0  0  0  0  0  0  0  0  0
   66.7714   72.0895   91.2781 O   0  0  0  0  0  0  0  0  0  0  0  0
   65.8935   72.3707   91.1103 H   0  0  0  0  0  0  0  0  0  0  0  0
 23 24  2  0  0  0
 24 25  1  0  0  0
 24 22  1  0  0  0
 22 21  1  0  0  0
 21 20  1  0  0  0
 20 14  1  0  0  0
 14 15  1  0  0  0
 15 16  2  0  0  0
 15 17  1  0  0  0
 17  1  1  0  0  0
  1  2  1  0  0  0
  2  3  2  0  0  0
  3  6  1  0  0  0
  6  7  2  0  0  0
  7  8  1  0  0  0
  8  9  2  0  0  0
  9 10  1  0  0  0
  9 11  1  0  0  0
 11 12  1  0  0  0
 11 13  2  0  0  0
  3  4  1  0  0  0
  4  5  1  0  0  0
  5 27  1  0  0  0
 27 28  2  0  0  0
 27 29  1  0  0  0
  5  1  2  0  0  0
 13  6  1  0  0  0
 25 26  1  0  0  0
 14 18  1  0  0  0
 17 19  1  0  0  0
 29 30  1  0  0  0
M  END
> <score>
0.284964

> <minimizedAffinity>
-7.67966

> <CNNscore>
0.3875252008

> <CNNaffinity>
5.8572864532

> <CNN_VS>
2.2698462009

$$$$
HIPS352


 27 28  0  0  0  0  0  0  0  0999 V2000
   69.7781   77.8115   90.6698 C   0  0  0  0  0  0  0  0  0  0  0  0
   68.7956   78.8174   90.6197 C   0  0  0  0  0  0  0  0  0  0  0  0
   69.3078   80.0937   90.3777 C   0  0  0  0  0  0  0  0  0  0  0  0
   70.9825   79.9523   90.2363 S   0  0  0  0  0  0  0  0  0  0  0  0
   71.0768   78.2915   90.4792 C   0  0  0  0  0  0  0  0  0  0  0  0
   69.3506   74.4988   92.5146 N   0  0  0  0  0  0  0  0  0  0  0  0
   69.5072   75.9103   92.3117 C   0  0  0  0  0  0  0  0  0  0  0  0
   69.6369   76.6820   93.3011 O   0  0  0  0  0  0  0  0  0  0  0  0
   69.4763   76.4421   90.9796 N   0  0  0  0  0  0  0  0  0  0  0  0
   69.3096   73.9125   91.7248 H   0  0  0  0  0  0  0  0  0  0  0  0
   69.2360   75.8377   90.2405 H   0  0  0  0  0  0  0  0  0  0  0  0
   69.2492   73.8908   93.8413 C   0  0  0  0  0  0  0  0  0  0  0  0
   67.7897   73.5757   94.1866 C   0  0  0  0  0  0  0  0  0  0  0  0
   67.3653   74.1982   95.5238 C   0  0  0  0  0  0  0  0  0  0  0  0
   66.0898   75.0331   95.3619 C   0  0  0  0  0  0  0  0  0  0  0  0
   65.8082   77.0608   93.8862 C   0  0  0  0  0  0  0  0  0  0  0  0
   65.9450   75.5416   93.9229 C   0  0  0  0  0  0  0  0  0  0  0  0
   68.5380   81.3612   90.2706 C   0  0  0  0  0  0  0  0  0  0  0  0
   67.9135   81.9106   91.4079 C   0  0  0  0  0  0  0  0  0  0  0  0
   67.1883   83.1024   91.3159 C   0  0  0  0  0  0  0  0  0  0  0  0
   67.0741   83.7607   90.0908 C   0  0  0  0  0  0  0  0  0  0  0  0
   67.6844   83.2280   88.9543 C   0  0  0  0  0  0  0  0  0  0  0  0
   68.4116   82.0366   89.0395 C   0  0  0  0  0  0  0  0  0  0  0  0
   72.3288   77.5174   90.4255 C   0  0  0  0  0  0  0  0  0  0  0  0
   72.6694   76.8120   91.4123 O   0  0  0  0  0  0  0  0  0  0  0  0
   73.1549   77.5749   89.3077 O   0  0  0  0  0  0  0  0  0  0  0  0
   72.9088   78.0971   88.5696 H   0  0  0  0  0  0  0  0  0  0  0  0
 16 17  1  0  0  0
 17 15  1  0  0  0
 15 14  1  0  0  0
 14 13  1  0  0  0
 13 12  1  0  0  0
 12  6  1  0  0  0
  6  7  1  0  0  0
  7  8  2  0  0  0
  7  9  1  0  0  0
  9  1  1  0  0  0
  1  2  1  0  0  0
  2  3  2  0  0  0
  3 18  1  0  0  0
 18 19  2  0  0  0
 19 20  1  0  0  0
 20 21  2  0  0  0
 21 22  1  0  0  0
 22 23  2  0  0  0
  3  4  1  0  0  0
  4  5  1  0  0  0
  5 24  1  0  0  0
 24 25  2  0  0  0
 24 26  1  0  0  0
  5  1  2  0  0  0
 23 18  1  0  0  0
  6 10  1  0  0  0
  9 11  1  0  0  0
 26 27  1  0  0  0
M  END
> <score>
0.247927

> <minimizedAffinity>
-5.72823

> <CNNscore>
0.4406304061

> <CNNaffinity>
5.6226043701

> <CNN_VS>
2.4774904251

$$$$
HIPS352


 27 28  0  0  0  0  0  0  0  0999 V2000
   66.8885   76.6141   88.6513 C   0  0  0  0  0  0  0  0  0  0  0  0
   66.7704   77.6899   89.5505 C   0  0  0  0  0  0  0  0  0  0  0  0
   66.8539   78.9442   88.9425 C   0  0  0  0  0  0  0  0  0  0  0  0
   67.0817   78.6954   87.2900 S   0  0  0  0  0  0  0  0  0  0  0  0
   67.0789   77.0146   87.3258 C   0  0  0  0  0  0  0  0  0  0  0  0
   67.9607   73.2712   90.1462 N   0  0  0  0  0  0  0  0  0  0  0  0
   67.9351   74.6847   89.9024 C   0  0  0  0  0  0  0  0  0  0  0  0
   68.7939   75.4360   90.4403 O   0  0  0  0  0  0  0  0  0  0  0  0
   66.9040   75.2422   89.0752 N   0  0  0  0  0  0  0  0  0  0  0  0
   67.3158   72.7006   89.6690 H   0  0  0  0  0  0  0  0  0  0  0  0
   66.1701   74.6545   88.7833 H   0  0  0  0  0  0  0  0  0  0  0  0
   68.9012   72.6390   91.0713 C   0  0  0  0  0  0  0  0  0  0  0  0
   68.1716   72.0979   92.3056 C   0  0  0  0  0  0  0  0  0  0  0  0
   67.0253   73.0176   92.7481 C   0  0  0  0  0  0  0  0  0  0  0  0
   67.5541   74.2013   93.5662 C   0  0  0  0  0  0  0  0  0  0  0  0
   66.7921   73.8027   95.9388 C   0  0  0  0  0  0  0  0  0  0  0  0
   67.9716   73.7547   94.9721 C   0  0  0  0  0  0  0  0  0  0  0  0
   66.7706   80.2697   89.6108 C   0  0  0  0  0  0  0  0  0  0  0  0
   67.7206   81.2700   89.3243 C   0  0  0  0  0  0  0  0  0  0  0  0
   67.6491   82.5193   89.9479 C   0  0  0  0  0  0  0  0  0  0  0  0
   66.6326   82.7875   90.8656 C   0  0  0  0  0  0  0  0  0  0  0  0
   65.6855   81.8063   91.1625 C   0  0  0  0  0  0  0  0  0  0  0  0
   65.7511   80.5549   90.5419 C   0  0  0  0  0  0  0  0  0  0  0  0
   67.1953   76.1615   86.1307 C   0  0  0  0  0  0  0  0  0  0  0  0
   66.9889   74.9222   86.2258 O   0  0  0  0  0  0  0  0  0  0  0  0
   67.5560   76.7028   84.9010 O   0  0  0  0  0  0  0  0  0  0  0  0
   67.7113   77.6235   84.8218 H   0  0  0  0  0  0  0  0  0  0  0  0
 16 17  1  0  0  0
 17 15  1  0  0  0
 15 14  1  0  0  0
 14 13  1  0  0  0
 13 12  1  0  0  0
 12  6  1  0  0  0
  6  7  1  0  0  0
  7  8  2  0  0  0
  7  9  1  0  0  0
  9  1  1  0  0  0
  1  2  1  0  0  0
  2  3  2  0  0  0
  3 18  1  0  0  0
 18 19  2  0  0  0
 19 20  1  0  0  0
 20 21  2  0  0  0
 21 22  1  0  0  0
 22 23  2  0  0  0
  3  4  1  0  0  0
  4  5  1  0  0  0
  5 24  1  0  0  0
 24 25  2  0  0  0
 24 26  1  0  0  0
  5  1  2  0  0  0
 23 18  1  0  0  0
  6 10  1  0  0  0
  9 11  1  0  0  0
 26 27  1  0  0  0
M  END
> <score>
0.247927

> <minimizedAffinity>
-5.76313

> <CNNscore>
0.3271377683

> <CNNaffinity>
5.5845584869

> <CNN_VS>
1.8269200325

$$$$
HIPS352


 27 28  0  0  0  0  0  0  0  0999 V2000
   67.0820   78.7973   89.5643 C   0  0  0  0  0  0  0  0  0  0  0  0
   67.2810   80.1834   89.7019 C   0  0  0  0  0  0  0  0  0  0  0  0
   67.3255   80.8697   88.4866 C   0  0  0  0  0  0  0  0  0  0  0  0
   67.1233   79.7365   87.2539 S   0  0  0  0  0  0  0  0  0  0  0  0
   66.9805   78.3786   88.2348 C   0  0  0  0  0  0  0  0  0  0  0  0
   68.1332   76.2190   92.1733 N   0  0  0  0  0  0  0  0  0  0  0  0
   68.2535   77.2234   91.1561 C   0  0  0  0  0  0  0  0  0  0  0  0
   69.3898   77.5368   90.7066 O   0  0  0  0  0  0  0  0  0  0  0  0
   67.0782   77.8958   90.6821 N   0  0  0  0  0  0  0  0  0  0  0  0
   67.2317   75.9520   92.4654 H   0  0  0  0  0  0  0  0  0  0  0  0
   66.2260   77.7309   91.1466 H   0  0  0  0  0  0  0  0  0  0  0  0
   69.2886   75.5734   92.7965 C   0  0  0  0  0  0  0  0  0  0  0  0
   69.5013   76.0943   94.2220 C   0  0  0  0  0  0  0  0  0  0  0  0
   68.3455   75.7097   95.1558 C   0  0  0  0  0  0  0  0  0  0  0  0
   68.1339   74.1914   95.1730 C   0  0  0  0  0  0  0  0  0  0  0  0
   65.6455   74.1253   94.7585 C   0  0  0  0  0  0  0  0  0  0  0  0
   66.7620   73.8345   95.7569 C   0  0  0  0  0  0  0  0  0  0  0  0
   67.5243   82.3299   88.2905 C   0  0  0  0  0  0  0  0  0  0  0  0
   67.4782   83.2069   89.3925 C   0  0  0  0  0  0  0  0  0  0  0  0
   67.6648   84.5813   89.2168 C   0  0  0  0  0  0  0  0  0  0  0  0
   67.8974   85.0999   87.9423 C   0  0  0  0  0  0  0  0  0  0  0  0
   67.9430   84.2450   86.8401 C   0  0  0  0  0  0  0  0  0  0  0  0
   67.7578   82.8693   87.0090 C   0  0  0  0  0  0  0  0  0  0  0  0
   66.7279   77.0175   87.7316 C   0  0  0  0  0  0  0  0  0  0  0  0
   66.7200   76.8025   86.4901 O   0  0  0  0  0  0  0  0  0  0  0  0
   66.4718   75.9691   88.6094 O   0  0  0  0  0  0  0  0  0  0  0  0
   66.4758   76.1207   89.5340 H   0  0  0  0  0  0  0  0  0  0  0  0
 16 17  1  0  0  0
 17 15  1  0  0  0
 15 14  1  0  0  0
 14 13  1  0  0  0
 13 12  1  0  0  0
 12  6  1  0  0  0
  6  7  1  0  0  0
  7  8  2  0  0  0
  7  9  1  0  0  0
  9  1  1  0  0  0
  1  2  1  0  0  0
  2  3  2  0  0  0
  3 18  1  0  0  0
 18 19  2  0  0  0
 19 20  1  0  0  0
 20 21  2  0  0  0
 21 22  1  0  0  0
 22 23  2  0  0  0
  3  4  1  0  0  0
  4  5  1  0  0  0
  5 24  1  0  0  0
 24 25  2  0  0  0
 24 26  1  0  0  0
  5  1  2  0  0  0
 23 18  1  0  0  0
  6 10  1  0  0  0
  9 11  1  0  0  0
 26 27  1  0  0  0
M  END
> <score>
0.247927

> <minimizedAffinity>
-5.77691

> <CNNscore>
0.2547158003

> <CNNaffinity>
5.3284082413

> <CNN_VS>
1.3572298288

$$$$
HIPS356


 28 29  0  0  0  0  0  0  0  0999 V2000
   68.9864   77.9603   90.9239 C   0  0  0  0  0  0  0  0  0  0  0  0
   68.4907   79.1164   90.3036 C   0  0  0  0  0  0  0  0  0  0  0  0
   69.4853   80.0209   89.9272 C   0  0  0  0  0  0  0  0  0  0  0  0
   70.9739   79.3525   90.3575 S   0  0  0  0  0  0  0  0  0  0  0  0
   70.3816   77.9254   91.0185 C   0  0  0  0  0  0  0  0  0  0  0  0
   69.2900   81.3378   89.2673 C   0  0  0  0  0  0  0  0  0  0  0  0
   68.0756   81.6334   88.6182 C   0  0  0  0  0  0  0  0  0  0  0  0
   67.8850   82.8701   87.9951 C   0  0  0  0  0  0  0  0  0  0  0  0
   68.8994   83.8283   88.0125 C   0  0  0  0  0  0  0  0  0  0  0  0
   70.1086   83.5528   88.6554 C   0  0  0  0  0  0  0  0  0  0  0  0
   71.3803   84.7611   88.6828 Cl  0  0  0  0  0  0  0  0  0  0  0  0
   70.3048   82.3158   89.2805 C   0  0  0  0  0  0  0  0  0  0  0  0
   66.5274   75.9976   93.0717 N   0  0  0  0  0  0  0  0  0  0  0  0
   67.3917   77.0597   92.6445 C   0  0  0  0  0  0  0  0  0  0  0  0
   67.5019   78.1079   93.3382 O   0  0  0  0  0  0  0  0  0  0  0  0
   68.1122   76.9344   91.4109 N   0  0  0  0  0  0  0  0  0  0  0  0
   66.4771   75.1839   92.5197 H   0  0  0  0  0  0  0  0  0  0  0  0
   68.0023   76.1133   90.8790 H   0  0  0  0  0  0  0  0  0  0  0  0
   65.7167   76.0647   94.2882 C   0  0  0  0  0  0  0  0  0  0  0  0
   65.6861   74.7035   94.9973 C   0  0  0  0  0  0  0  0  0  0  0  0
   66.7422   74.5737   96.1168 C   0  0  0  0  0  0  0  0  0  0  0  0
   67.8491   73.5516   95.8089 C   0  0  0  0  0  0  0  0  0  0  0  0
   69.7621   73.0496   94.2402 C   0  0  0  0  0  0  0  0  0  0  0  0
   68.9950   74.1433   94.9777 C   0  0  0  0  0  0  0  0  0  0  0  0
   71.2340   76.8249   91.4972 C   0  0  0  0  0  0  0  0  0  0  0  0
   70.7316   75.8277   92.0802 O   0  0  0  0  0  0  0  0  0  0  0  0
   72.6068   76.8713   91.2749 O   0  0  0  0  0  0  0  0  0  0  0  0
   72.9865   77.6103   90.8418 H   0  0  0  0  0  0  0  0  0  0  0  0
 23 24  1  0  0  0
 24 22  1  0  0  0
 22 21  1  0  0  0
 21 20  1  0  0  0
 20 19  1  0  0  0
 19 13  1  0  0  0
 13 14  1  0  0  0
 14 15  2  0  0  0
 14 16  1  0  0  0
 16  1  1  0  0  0
  1  2  1  0  0  0
  2  3  2  0  0  0
  3  6  1  0  0  0
  6  7  2  0  0  0
  7  8  1  0  0  0
  8  9  2  0  0  0
  9 10  1  0  0  0
 10 11  1  0  0  0
 10 12  2  0  0  0
  3  4  1  0  0  0
  4  5  1  0  0  0
  5 25  1  0  0  0
 25 26  2  0  0  0
 25 27  1  0  0  0
  5  1  2  0  0  0
 12  6  1  0  0  0
 13 17  1  0  0  0
 16 18  1  0  0  0
 27 28  1  0  0  0
M  END
> <score>
-0.014699

> <minimizedAffinity>
-6.31989

> <CNNscore>
0.3991000652

> <CNNaffinity>
5.8066673279

> <CNN_VS>
2.3174412251

$$$$
HIPS356


 28 29  0  0  0  0  0  0  0  0999 V2000
   68.6994   73.9486   94.0626 C   0  0  0  0  0  0  0  0  0  0  0  0
   69.4795   74.7748   93.2404 C   0  0  0  0  0  0  0  0  0  0  0  0
   68.7650   75.8256   92.6622 C   0  0  0  0  0  0  0  0  0  0  0  0
   67.1703   75.7189   93.2039 S   0  0  0  0  0  0  0  0  0  0  0  0
   67.3649   74.3549   94.1663 C   0  0  0  0  0  0  0  0  0  0  0  0
   69.2934   76.8601   91.7357 C   0  0  0  0  0  0  0  0  0  0  0  0
   68.4702   77.9220   91.3134 C   0  0  0  0  0  0  0  0  0  0  0  0
   68.9605   78.8986   90.4417 C   0  0  0  0  0  0  0  0  0  0  0  0
   70.2763   78.8317   89.9819 C   0  0  0  0  0  0  0  0  0  0  0  0
   71.1075   77.7874   90.3942 C   0  0  0  0  0  0  0  0  0  0  0  0
   72.7638   77.7087   89.8211 Cl  0  0  0  0  0  0  0  0  0  0  0  0
   70.6213   76.8066   91.2666 C   0  0  0  0  0  0  0  0  0  0  0  0
   70.9148   70.9696   94.9166 N   0  0  0  0  0  0  0  0  0  0  0  0
   70.4083   72.1125   94.2131 C   0  0  0  0  0  0  0  0  0  0  0  0
   70.9884   72.5268   93.1719 O   0  0  0  0  0  0  0  0  0  0  0  0
   69.2521   72.7976   94.7133 N   0  0  0  0  0  0  0  0  0  0  0  0
   70.4296   70.6579   95.7145 H   0  0  0  0  0  0  0  0  0  0  0  0
   68.8221   72.4649   95.5341 H   0  0  0  0  0  0  0  0  0  0  0  0
   72.1177   70.2445   94.5059 C   0  0  0  0  0  0  0  0  0  0  0  0
   71.8446   68.7356   94.4317 C   0  0  0  0  0  0  0  0  0  0  0  0
   71.0632   68.3175   93.1667 C   0  0  0  0  0  0  0  0  0  0  0  0
   71.5039   69.0583   91.8932 C   0  0  0  0  0  0  0  0  0  0  0  0
   70.2241   68.8587   89.7266 C   0  0  0  0  0  0  0  0  0  0  0  0
   70.3220   69.5818   91.0667 C   0  0  0  0  0  0  0  0  0  0  0  0
   66.3083   73.7980   95.0267 C   0  0  0  0  0  0  0  0  0  0  0  0
   66.5949   73.2373   96.1177 O   0  0  0  0  0  0  0  0  0  0  0  0
   64.9755   73.9204   94.6463 O   0  0  0  0  0  0  0  0  0  0  0  0
   64.7559   74.3364   93.8360 H   0  0  0  0  0  0  0  0  0  0  0  0
 23 24  1  0  0  0
 24 22  1  0  0  0
 22 21  1  0  0  0
 21 20  1  0  0  0
 20 19  1  0  0  0
 19 13  1  0  0  0
 13 14  1  0  0  0
 14 15  2  0  0  0
 14 16  1  0  0  0
 16  1  1  0  0  0
  1  2  1  0  0  0
  2  3  2  0  0  0
  3  6  1  0  0  0
  6  7  2  0  0  0
  7  8  1  0  0  0
  8  9  2  0  0  0
  9 10  1  0  0  0
 10 11  1  0  0  0
 10 12  2  0  0  0
  3  4  1  0  0  0
  4  5  1  0  0  0
  5 25  1  0  0  0
 25 26  2  0  0  0
 25 27  1  0  0  0
  5  1  2  0  0  0
 12  6  1  0  0  0
 13 17  1  0  0  0
 16 18  1  0  0  0
 27 28  1  0  0  0
M  END
> <score>
-0.014699

> <minimizedAffinity>
-7.13574

> <CNNscore>
0.3481856585

> <CNNaffinity>
5.8328742981

> <CNN_VS>
2.0309231281

$$$$
HIPS356


 28 29  0  0  0  0  0  0  0  0999 V2000
   68.7835   78.5771   90.6068 C   0  0  0  0  0  0  0  0  0  0  0  0
   67.8278   77.8370   91.3181 C   0  0  0  0  0  0  0  0  0  0  0  0
   68.3526   76.7135   91.9595 C   0  0  0  0  0  0  0  0  0  0  0  0
   70.0099   76.6724   91.6448 S   0  0  0  0  0  0  0  0  0  0  0  0
   70.0806   78.0621   90.7024 C   0  0  0  0  0  0  0  0  0  0  0  0
   67.6050   75.7217   92.7752 C   0  0  0  0  0  0  0  0  0  0  0  0
   67.5886   74.3637   92.4021 C   0  0  0  0  0  0  0  0  0  0  0  0
   66.8872   73.4252   93.1646 C   0  0  0  0  0  0  0  0  0  0  0  0
   66.1962   73.8262   94.3088 C   0  0  0  0  0  0  0  0  0  0  0  0
   66.2057   75.1686   94.6952 C   0  0  0  0  0  0  0  0  0  0  0  0
   65.3424   75.6700   96.1379 Cl  0  0  0  0  0  0  0  0  0  0  0  0
   66.9059   76.1125   93.9349 C   0  0  0  0  0  0  0  0  0  0  0  0
   67.6212   82.0818   89.6701 N   0  0  0  0  0  0  0  0  0  0  0  0
   67.9577   80.9469   90.4803 C   0  0  0  0  0  0  0  0  0  0  0  0
   67.8641   81.0125   91.7369 O   0  0  0  0  0  0  0  0  0  0  0  0
   68.4249   79.7436   89.8556 N   0  0  0  0  0  0  0  0  0  0  0  0
   67.6853   81.9942   88.6916 H   0  0  0  0  0  0  0  0  0  0  0  0
   68.5021   79.7180   88.8745 H   0  0  0  0  0  0  0  0  0  0  0  0
   67.1872   83.3635   90.2274 C   0  0  0  0  0  0  0  0  0  0  0  0
   68.3963   84.2475   90.5643 C   0  0  0  0  0  0  0  0  0  0  0  0
   69.3145   84.5152   89.3515 C   0  0  0  0  0  0  0  0  0  0  0  0
   68.7099   85.4801   88.3179 C   0  0  0  0  0  0  0  0  0  0  0  0
   67.6158   83.9606   86.6251 C   0  0  0  0  0  0  0  0  0  0  0  0
   68.7630   84.9322   86.8857 C   0  0  0  0  0  0  0  0  0  0  0  0
   71.3310   78.6439   90.1876 C   0  0  0  0  0  0  0  0  0  0  0  0
   72.2796   77.9043   89.8139 O   0  0  0  0  0  0  0  0  0  0  0  0
   71.4547   80.0259   90.0827 O   0  0  0  0  0  0  0  0  0  0  0  0
   70.7525   80.5814   90.3590 H   0  0  0  0  0  0  0  0  0  0  0  0
 23 24  1  0  0  0
 24 22  1  0  0  0
 22 21  1  0  0  0
 21 20  1  0  0  0
 20 19  1  0  0  0
 19 13  1  0  0  0
 13 14  1  0  0  0
 14 15  2  0  0  0
 14 16  1  0  0  0
 16  1  1  0  0  0
  1  2  1  0  0  0
  2  3  2  0  0  0
  3  6  1  0  0  0
  6  7  2  0  0  0
  7  8  1  0  0  0
  8  9  2  0  0  0
  9 10  1  0  0  0
 10 11  1  0  0  0
 10 12  2  0  0  0
  3  4  1  0  0  0
  4  5  1  0  0  0
  5 25  1  0  0  0
 25 26  2  0  0  0
 25 27  1  0  0  0
  5  1  2  0  0  0
 12  6  1  0  0  0
 13 17  1  0  0  0
 16 18  1  0  0  0
 27 28  1  0  0  0
M  END
> <score>
-0.014699

> <minimizedAffinity>
-5.68426

> <CNNscore>
0.2938715219

> <CNNaffinity>
5.6053752899

> <CNN_VS>
1.6472601891

$$$$
HIPS363


 24 25  0  0  0  0  0  0  0  0999 V2000
   67.6312   82.6649   88.0089 C   0  0  0  0  0  0  0  0  0  0  0  0
   67.5908   81.3273   87.5733 C   0  0  0  0  0  0  0  0  0  0  0  0
   67.2859   80.4144   88.5848 C   0  0  0  0  0  0  0  0  0  0  0  0
   67.0778   81.2858   90.0132 S   0  0  0  0  0  0  0  0  0  0  0  0
   67.3706   82.8125   89.3752 C   0  0  0  0  0  0  0  0  0  0  0  0
   67.1711   78.9383   88.4519 C   0  0  0  0  0  0  0  0  0  0  0  0
   66.9778   78.1375   89.5926 C   0  0  0  0  0  0  0  0  0  0  0  0
   66.8679   76.7496   89.4776 C   0  0  0  0  0  0  0  0  0  0  0  0
   66.9510   76.1356   88.2253 C   0  0  0  0  0  0  0  0  0  0  0  0
   66.8080   74.3859   88.1225 Cl  0  0  0  0  0  0  0  0  0  0  0  0
   67.1475   76.9199   87.0781 C   0  0  0  0  0  0  0  0  0  0  0  0
   67.2647   76.1863   85.4839 Cl  0  0  0  0  0  0  0  0  0  0  0  0
   67.2571   78.3110   87.1937 C   0  0  0  0  0  0  0  0  0  0  0  0
   69.6253   85.3408   86.1674 N   0  0  0  0  0  0  0  0  0  0  0  0
   69.3502   84.1338   86.8767 C   0  0  0  0  0  0  0  0  0  0  0  0
   70.3057   83.3937   87.2341 O   0  0  0  0  0  0  0  0  0  0  0  0
   67.9925   83.7563   87.1469 N   0  0  0  0  0  0  0  0  0  0  0  0
   70.5563   85.6011   85.9813 H   0  0  0  0  0  0  0  0  0  0  0  0
   68.8840   85.9133   85.8641 H   0  0  0  0  0  0  0  0  0  0  0  0
   67.2710   84.2720   86.7195 H   0  0  0  0  0  0  0  0  0  0  0  0
   67.2941   84.0575   90.1584 C   0  0  0  0  0  0  0  0  0  0  0  0
   67.9473   85.0784   89.8157 O   0  0  0  0  0  0  0  0  0  0  0  0
   66.4723   84.1139   91.2799 O   0  0  0  0  0  0  0  0  0  0  0  0
   65.9834   83.3583   91.5409 H   0  0  0  0  0  0  0  0  0  0  0  0
 14 15  1  0  0  0
 15 16  2  0  0  0
 15 17  1  0  0  0
 17  1  1  0  0  0
  1  2  1  0  0  0
  2  3  2  0  0  0
  3  6  1  0  0  0
  6  7  2  0  0  0
  7  8  1  0  0  0
  8  9  2  0  0  0
  9 10  1  0  0  0
  9 11  1  0  0  0
 11 12  1  0  0  0
 11 13  2  0  0  0
  3  4  1  0  0  0
  4  5  1  0  0  0
  5 21  1  0  0  0
 21 22  2  0  0  0
 21 23  1  0  0  0
  5  1  2  0  0  0
 13  6  1  0  0  0
 14 18  1  0  0  0
 14 19  1  0  0  0
 17 20  1  0  0  0
 23 24  1  0  0  0
M  END
> <score>
0.089678

> <minimizedAffinity>
-5.88596

> <CNNscore>
0.6097621918

> <CNNaffinity>
5.7093868256

> <CNN_VS>
3.4813683033

$$$$
HIPS363


 24 25  0  0  0  0  0  0  0  0999 V2000
   66.9855   73.3490   88.6645 C   0  0  0  0  0  0  0  0  0  0  0  0
   67.5853   72.4638   89.5796 C   0  0  0  0  0  0  0  0  0  0  0  0
   68.3464   73.0998   90.5624 C   0  0  0  0  0  0  0  0  0  0  0  0
   68.2687   74.7593   90.2739 S   0  0  0  0  0  0  0  0  0  0  0  0
   67.2834   74.6927   88.9144 C   0  0  0  0  0  0  0  0  0  0  0  0
   69.1041   72.4519   91.6649 C   0  0  0  0  0  0  0  0  0  0  0  0
   69.4163   73.1756   92.8305 C   0  0  0  0  0  0  0  0  0  0  0  0
   70.1272   72.5750   93.8723 C   0  0  0  0  0  0  0  0  0  0  0  0
   70.5412   71.2445   93.7701 C   0  0  0  0  0  0  0  0  0  0  0  0
   71.4341   70.5246   95.1031 Cl  0  0  0  0  0  0  0  0  0  0  0  0
   70.2412   70.5099   92.6125 C   0  0  0  0  0  0  0  0  0  0  0  0
   70.7498   68.8351   92.4407 Cl  0  0  0  0  0  0  0  0  0  0  0  0
   69.5281   71.1121   91.5686 C   0  0  0  0  0  0  0  0  0  0  0  0
   65.8909   71.5341   85.4967 N   0  0  0  0  0  0  0  0  0  0  0  0
   66.6003   71.7959   86.7066 C   0  0  0  0  0  0  0  0  0  0  0  0
   67.5411   71.0312   87.0509 O   0  0  0  0  0  0  0  0  0  0  0  0
   66.2171   72.9026   87.5354 N   0  0  0  0  0  0  0  0  0  0  0  0
   66.1527   70.7751   84.9269 H   0  0  0  0  0  0  0  0  0  0  0  0
   65.1396   72.1125   85.2316 H   0  0  0  0  0  0  0  0  0  0  0  0
   65.3843   73.3811   87.3193 H   0  0  0  0  0  0  0  0  0  0  0  0
   66.8034   75.8818   88.1899 C   0  0  0  0  0  0  0  0  0  0  0  0
   66.9473   75.9811   86.9426 O   0  0  0  0  0  0  0  0  0  0  0  0
   66.1626   76.8999   88.8894 O   0  0  0  0  0  0  0  0  0  0  0  0
   66.0519   76.8329   89.8174 H   0  0  0  0  0  0  0  0  0  0  0  0
 14 15  1  0  0  0
 15 16  2  0  0  0
 15 17  1  0  0  0
 17  1  1  0  0  0
  1  2  1  0  0  0
  2  3  2  0  0  0
  3  6  1  0  0  0
  6  7  2  0  0  0
  7  8  1  0  0  0
  8  9  2  0  0  0
  9 10  1  0  0  0
  9 11  1  0  0  0
 11 12  1  0  0  0
 11 13  2  0  0  0
  3  4  1  0  0  0
  4  5  1  0  0  0
  5 21  1  0  0  0
 21 22  2  0  0  0
 21 23  1  0  0  0
  5  1  2  0  0  0
 13  6  1  0  0  0
 14 18  1  0  0  0
 14 19  1  0  0  0
 17 20  1  0  0  0
 23 24  1  0  0  0
M  END
> <score>
0.089678

> <minimizedAffinity>
-6.78162

> <CNNscore>
0.5996990204

> <CNNaffinity>
5.2494106293

> <CNN_VS>
3.1480665207

$$$$
HIPS363


 24 25  0  0  0  0  0  0  0  0999 V2000
   67.2921   74.1002   89.1917 C   0  0  0  0  0  0  0  0  0  0  0  0
   67.1561   75.4151   88.7086 C   0  0  0  0  0  0  0  0  0  0  0  0
   67.7220   76.3825   89.5412 C   0  0  0  0  0  0  0  0  0  0  0  0
   68.3792   75.5870   90.8749 S   0  0  0  0  0  0  0  0  0  0  0  0
   67.9570   74.0254   90.4200 C   0  0  0  0  0  0  0  0  0  0  0  0
   67.7437   77.8519   89.3182 C   0  0  0  0  0  0  0  0  0  0  0  0
   66.6947   78.4778   88.6198 C   0  0  0  0  0  0  0  0  0  0  0  0
   66.7059   79.8582   88.4060 C   0  0  0  0  0  0  0  0  0  0  0  0
   67.7628   80.6383   88.8818 C   0  0  0  0  0  0  0  0  0  0  0  0
   67.7402   82.3727   88.5922 Cl  0  0  0  0  0  0  0  0  0  0  0  0
   68.8188   80.0288   89.5770 C   0  0  0  0  0  0  0  0  0  0  0  0
   70.1716   80.9733   90.1863 Cl  0  0  0  0  0  0  0  0  0  0  0  0
   68.8070   78.6452   89.7916 C   0  0  0  0  0  0  0  0  0  0  0  0
   65.7277   71.8301   86.5598 N   0  0  0  0  0  0  0  0  0  0  0  0
   66.4672   72.9166   87.1149 C   0  0  0  0  0  0  0  0  0  0  0  0
   66.9153   73.8146   86.3525 O   0  0  0  0  0  0  0  0  0  0  0  0
   66.7231   72.9609   88.5260 N   0  0  0  0  0  0  0  0  0  0  0  0
   65.5513   71.7983   85.5918 H   0  0  0  0  0  0  0  0  0  0  0  0
   65.3937   71.1121   87.1449 H   0  0  0  0  0  0  0  0  0  0  0  0
   66.4971   72.1696   89.0663 H   0  0  0  0  0  0  0  0  0  0  0  0
   68.3062   72.8224   91.1948 C   0  0  0  0  0  0  0  0  0  0  0  0
   69.0311   71.9206   90.6974 O   0  0  0  0  0  0  0  0  0  0  0  0
   67.8473   72.6903   92.5018 O   0  0  0  0  0  0  0  0  0  0  0  0
   67.3076   73.3571   92.8785 H   0  0  0  0  0  0  0  0  0  0  0  0
 14 15  1  0  0  0
 15 16  2  0  0  0
 15 17  1  0  0  0
 17  1  1  0  0  0
  1  2  1  0  0  0
  2  3  2  0  0  0
  3  6  1  0  0  0
  6  7  2  0  0  0
  7  8  1  0  0  0
  8  9  2  0  0  0
  9 10  1  0  0  0
  9 11  1  0  0  0
 11 12  1  0  0  0
 11 13  2  0  0  0
  3  4  1  0  0  0
  4  5  1  0  0  0
  5 21  1  0  0  0
 21 22  2  0  0  0
 21 23  1  0  0  0
  5  1  2  0  0  0
 13  6  1  0  0  0
 14 18  1  0  0  0
 14 19  1  0  0  0
 17 20  1  0  0  0
 23 24  1  0  0  0
M  END
> <score>
0.089678

> <minimizedAffinity>
-6.09030

> <CNNscore>
0.5944013000

> <CNNaffinity>
5.5217199326

> <CNN_VS>
3.2821176052

$$$$
HIPS365


 27 28  0  0  0  0  0  0  0  0999 V2000
   69.0432   77.9786   90.7652 C   0  0  0  0  0  0  0  0  0  0  0  0
   68.5806   79.1890   90.2165 C   0  0  0  0  0  0  0  0  0  0  0  0
   69.5954   80.1073   89.9440 C   0  0  0  0  0  0  0  0  0  0  0  0
   71.0581   79.4064   90.4041 S   0  0  0  0  0  0  0  0  0  0  0  0
   70.4295   77.9426   90.9427 C   0  0  0  0  0  0  0  0  0  0  0  0
   69.4330   81.4685   89.3720 C   0  0  0  0  0  0  0  0  0  0  0  0
   68.1762   81.9249   88.9327 C   0  0  0  0  0  0  0  0  0  0  0  0
   68.0344   83.2063   88.3945 C   0  0  0  0  0  0  0  0  0  0  0  0
   69.1406   84.0530   88.2832 C   0  0  0  0  0  0  0  0  0  0  0  0
   68.9202   85.6584   87.6001 Cl  0  0  0  0  0  0  0  0  0  0  0  0
   70.4012   83.6102   88.7130 C   0  0  0  0  0  0  0  0  0  0  0  0
   71.8193   84.6432   88.5902 Cl  0  0  0  0  0  0  0  0  0  0  0  0
   70.5430   82.3258   89.2516 C   0  0  0  0  0  0  0  0  0  0  0  0
   66.7526   75.7876   92.8867 N   0  0  0  0  0  0  0  0  0  0  0  0
   67.4596   76.9538   92.4475 C   0  0  0  0  0  0  0  0  0  0  0  0
   67.4398   78.0036   93.1471 O   0  0  0  0  0  0  0  0  0  0  0  0
   68.1606   76.9304   91.1957 N   0  0  0  0  0  0  0  0  0  0  0  0
   66.7633   74.9786   92.3257 H   0  0  0  0  0  0  0  0  0  0  0  0
   68.0298   76.1564   90.6015 H   0  0  0  0  0  0  0  0  0  0  0  0
   66.0148   75.7723   94.1507 C   0  0  0  0  0  0  0  0  0  0  0  0
   65.7038   74.3393   94.6108 C   0  0  0  0  0  0  0  0  0  0  0  0
   68.0462   73.8577   95.5109 C   0  0  0  0  0  0  0  0  0  0  0  0
   66.5479   73.8802   95.8132 C   0  0  0  0  0  0  0  0  0  0  0  0
   71.2483   76.8288   91.4511 C   0  0  0  0  0  0  0  0  0  0  0  0
   72.4859   76.8054   91.2153 O   0  0  0  0  0  0  0  0  0  0  0  0
   70.6686   75.7865   92.1672 O   0  0  0  0  0  0  0  0  0  0  0  0
   69.7490   75.7962   92.3469 H   0  0  0  0  0  0  0  0  0  0  0  0
 22 23  1  0  0  0
 23 21  1  0  0  0
 21 20  1  0  0  0
 20 14  1  0  0  0
 14 15  1  0  0  0
 15 16  2  0  0  0
 15 17  1  0  0  0
 17  1  1  0  0  0
  1  2  1  0  0  0
  2  3  2  0  0  0
  3  6  1  0  0  0
  6  7  2  0  0  0
  7  8  1  0  0  0
  8  9  2  0  0  0
  9 10  1  0  0  0
  9 11  1  0  0  0
 11 12  1  0  0  0
 11 13  2  0  0  0
  3  4  1  0  0  0
  4  5  1  0  0  0
  5 24  1  0  0  0
 24 25  2  0  0  0
 24 26  1  0  0  0
  5  1  2  0  0  0
 13  6  1  0  0  0
 14 18  1  0  0  0
 17 19  1  0  0  0
 26 27  1  0  0  0
M  END
> <score>
-0.38507

> <minimizedAffinity>
-6.73213

> <CNNscore>
0.7057893872

> <CNNaffinity>
5.9121875763

> <CNN_VS>
4.1727590561

$$$$
HIPS365


 27 28  0  0  0  0  0  0  0  0999 V2000
   68.2454   77.9283   91.1396 C   0  0  0  0  0  0  0  0  0  0  0  0
   68.3298   79.2787   90.7531 C   0  0  0  0  0  0  0  0  0  0  0  0
   69.5906   79.6525   90.2862 C   0  0  0  0  0  0  0  0  0  0  0  0
   70.5919   78.2990   90.3742 S   0  0  0  0  0  0  0  0  0  0  0  0
   69.4489   77.2319   90.9927 C   0  0  0  0  0  0  0  0  0  0  0  0
   70.0004   80.9997   89.8133 C   0  0  0  0  0  0  0  0  0  0  0  0
   69.0856   81.8488   89.1629 C   0  0  0  0  0  0  0  0  0  0  0  0
   69.4815   83.1134   88.7203 C   0  0  0  0  0  0  0  0  0  0  0  0
   70.7938   83.5523   88.9160 C   0  0  0  0  0  0  0  0  0  0  0  0
   71.2524   85.1508   88.3439 Cl  0  0  0  0  0  0  0  0  0  0  0  0
   71.7185   82.7150   89.5589 C   0  0  0  0  0  0  0  0  0  0  0  0
   73.3797   83.2279   89.8246 Cl  0  0  0  0  0  0  0  0  0  0  0  0
   71.3215   81.4476   90.0018 C   0  0  0  0  0  0  0  0  0  0  0  0
   65.8434   76.2050   93.5495 N   0  0  0  0  0  0  0  0  0  0  0  0
   66.9877   76.9376   93.0953 C   0  0  0  0  0  0  0  0  0  0  0  0
   67.9080   77.2350   93.9055 O   0  0  0  0  0  0  0  0  0  0  0  0
   67.0647   77.3576   91.7253 N   0  0  0  0  0  0  0  0  0  0  0  0
   65.1247   75.9908   92.9116 H   0  0  0  0  0  0  0  0  0  0  0  0
   66.2675   77.2491   91.1580 H   0  0  0  0  0  0  0  0  0  0  0  0
   65.7189   75.7680   94.9409 C   0  0  0  0  0  0  0  0  0  0  0  0
   65.8968   74.2477   95.0779 C   0  0  0  0  0  0  0  0  0  0  0  0
   68.4302   73.9151   95.0786 C   0  0  0  0  0  0  0  0  0  0  0  0
   67.1383   73.8424   95.8924 C   0  0  0  0  0  0  0  0  0  0  0  0
   69.7087   75.8072   91.2616 C   0  0  0  0  0  0  0  0  0  0  0  0
   68.9561   74.9299   90.7600 O   0  0  0  0  0  0  0  0  0  0  0  0
   70.7602   75.4171   92.0846 O   0  0  0  0  0  0  0  0  0  0  0  0
   71.3246   76.0631   92.4616 H   0  0  0  0  0  0  0  0  0  0  0  0
 22 23  1  0  0  0
 23 21  1  0  0  0
 21 20  1  0  0  0
 20 14  1  0  0  0
 14 15  1  0  0  0
 15 16  2  0  0  0
 15 17  1  0  0  0
 17  1  1  0  0  0
  1  2  1  0  0  0
  2  3  2  0  0  0
  3  6  1  0  0  0
  6  7  2  0  0  0
  7  8  1  0  0  0
  8  9  2  0  0  0
  9 10  1  0  0  0
  9 11  1  0  0  0
 11 12  1  0  0  0
 11 13  2  0  0  0
  3  4  1  0  0  0
  4  5  1  0  0  0
  5 24  1  0  0  0
 24 25  2  0  0  0
 24 26  1  0  0  0
  5  1  2  0  0  0
 13  6  1  0  0  0
 14 18  1  0  0  0
 17 19  1  0  0  0
 26 27  1  0  0  0
M  END
> <score>
-0.38507

> <minimizedAffinity>
-7.06662

> <CNNscore>
0.5167325139

> <CNNaffinity>
5.7226219177

> <CNN_VS>
2.9570648670

$$$$
HIPS365


 27 28  0  0  0  0  0  0  0  0999 V2000
   67.6542   74.1784   93.3680 C   0  0  0  0  0  0  0  0  0  0  0  0
   67.8183   74.8662   92.1513 C   0  0  0  0  0  0  0  0  0  0  0  0
   67.1372   76.0830   92.0967 C   0  0  0  0  0  0  0  0  0  0  0  0
   66.3248   76.2819   93.5605 S   0  0  0  0  0  0  0  0  0  0  0  0
   66.8270   74.8456   94.2765 C   0  0  0  0  0  0  0  0  0  0  0  0
   67.1050   77.0337   90.9558 C   0  0  0  0  0  0  0  0  0  0  0  0
   67.1365   78.4244   91.1702 C   0  0  0  0  0  0  0  0  0  0  0  0
   67.1040   79.3103   90.0904 C   0  0  0  0  0  0  0  0  0  0  0  0
   67.0378   78.8269   88.7808 C   0  0  0  0  0  0  0  0  0  0  0  0
   66.9986   79.9748   87.4492 Cl  0  0  0  0  0  0  0  0  0  0  0  0
   67.0013   77.4427   88.5516 C   0  0  0  0  0  0  0  0  0  0  0  0
   66.9171   76.7923   86.9197 Cl  0  0  0  0  0  0  0  0  0  0  0  0
   67.0332   76.5554   89.6339 C   0  0  0  0  0  0  0  0  0  0  0  0
   70.0818   71.2671   93.7903 N   0  0  0  0  0  0  0  0  0  0  0  0
   69.6051   72.6175   93.7496 C   0  0  0  0  0  0  0  0  0  0  0  0
   70.4164   73.5762   93.8704 O   0  0  0  0  0  0  0  0  0  0  0  0
   68.2003   72.8711   93.6040 N   0  0  0  0  0  0  0  0  0  0  0  0
   69.4379   70.5268   93.7092 H   0  0  0  0  0  0  0  0  0  0  0  0
   67.5790   72.1102   93.6691 H   0  0  0  0  0  0  0  0  0  0  0  0
   71.5048   70.9637   93.9496 C   0  0  0  0  0  0  0  0  0  0  0  0
   71.7382   69.8625   94.9960 C   0  0  0  0  0  0  0  0  0  0  0  0
   74.1606   70.5753   94.6049 C   0  0  0  0  0  0  0  0  0  0  0  0
   73.2249   69.5446   95.2364 C   0  0  0  0  0  0  0  0  0  0  0  0
   66.4729   74.4374   95.6467 C   0  0  0  0  0  0  0  0  0  0  0  0
   65.9350   75.2684   96.4263 O   0  0  0  0  0  0  0  0  0  0  0  0
   66.7486   73.1519   96.1015 O   0  0  0  0  0  0  0  0  0  0  0  0
   67.1484   72.5279   95.5282 H   0  0  0  0  0  0  0  0  0  0  0  0
 22 23  1  0  0  0
 23 21  1  0  0  0
 21 20  1  0  0  0
 20 14  1  0  0  0
 14 15  1  0  0  0
 15 16  2  0  0  0
 15 17  1  0  0  0
 17  1  1  0  0  0
  1  2  1  0  0  0
  2  3  2  0  0  0
  3  6  1  0  0  0
  6  7  2  0  0  0
  7  8  1  0  0  0
  8  9  2  0  0  0
  9 10  1  0  0  0
  9 11  1  0  0  0
 11 12  1  0  0  0
 11 13  2  0  0  0
  3  4  1  0  0  0
  4  5  1  0  0  0
  5 24  1  0  0  0
 24 25  2  0  0  0
 24 26  1  0  0  0
  5  1  2  0  0  0
 13  6  1  0  0  0
 14 18  1  0  0  0
 17 19  1  0  0  0
 26 27  1  0  0  0
M  END
> <score>
-0.38507

> <minimizedAffinity>
-6.92669

> <CNNscore>
0.3428734839

> <CNNaffinity>
5.6296825409

> <CNN_VS>
1.9302688837

$$$$
HIPS380


 29 31  0  0  0  0  0  0  0  0999 V2000
   69.6056   78.5247   90.5047 C   0  0  0  0  0  0  0  0  0  0  0  0
   69.1209   79.7394   89.9851 C   0  0  0  0  0  0  0  0  0  0  0  0
   70.1127   80.7012   89.7828 C   0  0  0  0  0  0  0  0  0  0  0  0
   71.5846   80.0218   90.2473 S   0  0  0  0  0  0  0  0  0  0  0  0
   70.9892   78.5170   90.7031 C   0  0  0  0  0  0  0  0  0  0  0  0
   69.9292   82.0754   89.2469 C   0  0  0  0  0  0  0  0  0  0  0  0
   70.8918   83.0696   89.5021 C   0  0  0  0  0  0  0  0  0  0  0  0
   70.7276   84.3642   89.0036 C   0  0  0  0  0  0  0  0  0  0  0  0
   69.6034   84.6902   88.2406 C   0  0  0  0  0  0  0  0  0  0  0  0
   69.4333   86.3308   87.6310 Cl  0  0  0  0  0  0  0  0  0  0  0  0
   68.6360   83.7090   87.9737 C   0  0  0  0  0  0  0  0  0  0  0  0
   67.2099   84.0759   87.0119 Cl  0  0  0  0  0  0  0  0  0  0  0  0
   68.8006   82.4116   88.4740 C   0  0  0  0  0  0  0  0  0  0  0  0
   68.7799   77.4996   93.0530 O   0  0  0  0  0  0  0  0  0  0  0  0
   68.3089   76.9643   92.0125 C   0  0  0  0  0  0  0  0  0  0  0  0
   67.3042   75.9436   92.1133 N   0  0  0  0  0  0  0  0  0  0  0  0
   68.7671   77.3781   90.7174 N   0  0  0  0  0  0  0  0  0  0  0  0
   66.8439   75.6672   91.2880 H   0  0  0  0  0  0  0  0  0  0  0  0
   68.4926   76.8488   89.9340 H   0  0  0  0  0  0  0  0  0  0  0  0
   66.9270   75.2992   93.3423 C   0  0  0  0  0  0  0  0  0  0  0  0
   65.8845   75.7996   94.1451 C   0  0  0  0  0  0  0  0  0  0  0  0
   65.5551   75.1668   95.3481 C   0  0  0  0  0  0  0  0  0  0  0  0
   66.2690   74.0410   95.7665 C   0  0  0  0  0  0  0  0  0  0  0  0
   67.3200   73.5514   94.9872 C   0  0  0  0  0  0  0  0  0  0  0  0
   67.6532   74.1818   93.7842 C   0  0  0  0  0  0  0  0  0  0  0  0
   71.8171   77.4366   91.2664 C   0  0  0  0  0  0  0  0  0  0  0  0
   72.8044   77.0025   90.6148 O   0  0  0  0  0  0  0  0  0  0  0  0
   71.5385   76.9053   92.5213 O   0  0  0  0  0  0  0  0  0  0  0  0
   70.8062   77.2224   93.0123 H   0  0  0  0  0  0  0  0  0  0  0  0
 14 15  2  0  0  0
 15 16  1  0  0  0
 16 20  1  0  0  0
 20 21  2  0  0  0
 21 22  1  0  0  0
 22 23  2  0  0  0
 23 24  1  0  0  0
 24 25  2  0  0  0
 15 17  1  0  0  0
 17  1  1  0  0  0
  1  2  1  0  0  0
  2  3  2  0  0  0
  3  6  1  0  0  0
  6  7  2  0  0  0
  7  8  1  0  0  0
  8  9  2  0  0  0
  9 10  1  0  0  0
  9 11  1  0  0  0
 11 12  1  0  0  0
 11 13  2  0  0  0
  3  4  1  0  0  0
  4  5  1  0  0  0
  5 26  1  0  0  0
 26 27  2  0  0  0
 26 28  1  0  0  0
 25 20  1  0  0  0
  5  1  2  0  0  0
 13  6  1  0  0  0
 16 18  1  0  0  0
 17 19  1  0  0  0
 28 29  1  0  0  0
M  END
> <score>
-0.544894

> <minimizedAffinity>
-7.53341

> <CNNscore>
0.6090936065

> <CNNaffinity>
5.9233636856

> <CNN_VS>
3.6078829765

$$$$
HIPS380


 29 31  0  0  0  0  0  0  0  0999 V2000
   67.7063   77.9584   89.4299 C   0  0  0  0  0  0  0  0  0  0  0  0
   67.7836   76.9165   90.3726 C   0  0  0  0  0  0  0  0  0  0  0  0
   67.2519   77.2458   91.6209 C   0  0  0  0  0  0  0  0  0  0  0  0
   66.6842   78.8312   91.5316 S   0  0  0  0  0  0  0  0  0  0  0  0
   67.0990   79.1150   89.9272 C   0  0  0  0  0  0  0  0  0  0  0  0
   67.1792   76.3711   92.8205 C   0  0  0  0  0  0  0  0  0  0  0  0
   66.0241   76.3656   93.6243 C   0  0  0  0  0  0  0  0  0  0  0  0
   65.9469   75.5478   94.7541 C   0  0  0  0  0  0  0  0  0  0  0  0
   67.0173   74.7197   95.1015 C   0  0  0  0  0  0  0  0  0  0  0  0
   66.8812   73.7048   96.5310 Cl  0  0  0  0  0  0  0  0  0  0  0  0
   68.1750   74.7105   94.3081 C   0  0  0  0  0  0  0  0  0  0  0  0
   69.5422   73.6782   94.7063 Cl  0  0  0  0  0  0  0  0  0  0  0  0
   68.2525   75.5308   93.1760 C   0  0  0  0  0  0  0  0  0  0  0  0
   66.4463   76.2964   87.4609 O   0  0  0  0  0  0  0  0  0  0  0  0
   67.4032   77.0332   87.0970 C   0  0  0  0  0  0  0  0  0  0  0  0
   67.7716   77.1121   85.7116 N   0  0  0  0  0  0  0  0  0  0  0  0
   68.1265   77.8072   88.0647 N   0  0  0  0  0  0  0  0  0  0  0  0
   68.4073   77.8143   85.4431 H   0  0  0  0  0  0  0  0  0  0  0  0
   68.9535   78.2579   87.7782 H   0  0  0  0  0  0  0  0  0  0  0  0
   67.2715   76.2311   84.6909 C   0  0  0  0  0  0  0  0  0  0  0  0
   67.6730   74.8836   84.6212 C   0  0  0  0  0  0  0  0  0  0  0  0
   67.1896   74.0556   83.6030 C   0  0  0  0  0  0  0  0  0  0  0  0
   66.3148   74.5658   82.6404 C   0  0  0  0  0  0  0  0  0  0  0  0
   65.9292   75.9077   82.6888 C   0  0  0  0  0  0  0  0  0  0  0  0
   66.4111   76.7391   83.7046 C   0  0  0  0  0  0  0  0  0  0  0  0
   66.8924   80.3986   89.2347 C   0  0  0  0  0  0  0  0  0  0  0  0
   66.9153   81.4732   89.8922 O   0  0  0  0  0  0  0  0  0  0  0  0
   66.6972   80.4427   87.8582 O   0  0  0  0  0  0  0  0  0  0  0  0
   66.6789   79.6482   87.3619 H   0  0  0  0  0  0  0  0  0  0  0  0
 14 15  2  0  0  0
 15 16  1  0  0  0
 16 20  1  0  0  0
 20 21  2  0  0  0
 21 22  1  0  0  0
 22 23  2  0  0  0
 23 24  1  0  0  0
 24 25  2  0  0  0
 15 17  1  0  0  0
 17  1  1  0  0  0
  1  2  1  0  0  0
  2  3  2  0  0  0
  3  6  1  0  0  0
  6  7  2  0  0  0
  7  8  1  0  0  0
  8  9  2  0  0  0
  9 10  1  0  0  0
  9 11  1  0  0  0
 11 12  1  0  0  0
 11 13  2  0  0  0
  3  4  1  0  0  0
  4  5  1  0  0  0
  5 26  1  0  0  0
 26 27  2  0  0  0
 26 28  1  0  0  0
 25 20  1  0  0  0
  5  1  2  0  0  0
 13  6  1  0  0  0
 16 18  1  0  0  0
 17 19  1  0  0  0
 28 29  1  0  0  0
M  END
> <score>
-0.544894

> <minimizedAffinity>
-6.25485

> <CNNscore>
0.3944950402

> <CNNaffinity>
6.0208625793

> <CNN_VS>
2.3752005100

$$$$
HIPS380


 29 31  0  0  0  0  0  0  0  0999 V2000
   66.4331   79.8954   91.1667 C   0  0  0  0  0  0  0  0  0  0  0  0
   66.3223   79.1346   92.3453 C   0  0  0  0  0  0  0  0  0  0  0  0
   66.8358   77.8412   92.2311 C   0  0  0  0  0  0  0  0  0  0  0  0
   67.4293   77.6645   90.6626 S   0  0  0  0  0  0  0  0  0  0  0  0
   67.0488   79.2084   90.1166 C   0  0  0  0  0  0  0  0  0  0  0  0
   66.8728   76.7975   93.2889 C   0  0  0  0  0  0  0  0  0  0  0  0
   65.7142   76.4981   94.0293 C   0  0  0  0  0  0  0  0  0  0  0  0
   65.7393   75.5197   95.0260 C   0  0  0  0  0  0  0  0  0  0  0  0
   66.9178   74.8212   95.3008 C   0  0  0  0  0  0  0  0  0  0  0  0
   66.9087   73.5969   96.5630 Cl  0  0  0  0  0  0  0  0  0  0  0  0
   68.0810   75.1051   94.5687 C   0  0  0  0  0  0  0  0  0  0  0  0
   69.5833   74.2443   94.8782 Cl  0  0  0  0  0  0  0  0  0  0  0  0
   68.0557   76.0863   93.5700 C   0  0  0  0  0  0  0  0  0  0  0  0
   68.0600   82.1524   91.8639 O   0  0  0  0  0  0  0  0  0  0  0  0
   66.9230   82.3676   91.3619 C   0  0  0  0  0  0  0  0  0  0  0  0
   66.5095   83.7069   91.0506 N   0  0  0  0  0  0  0  0  0  0  0  0
   66.0360   81.2736   91.0884 N   0  0  0  0  0  0  0  0  0  0  0  0
   65.6928   83.8237   90.5134 H   0  0  0  0  0  0  0  0  0  0  0  0
   65.1072   81.4780   90.8339 H   0  0  0  0  0  0  0  0  0  0  0  0
   67.2117   84.8885   91.4733 C   0  0  0  0  0  0  0  0  0  0  0  0
   67.0241   85.4357   92.7567 C   0  0  0  0  0  0  0  0  0  0  0  0
   67.7018   86.6000   93.1327 C   0  0  0  0  0  0  0  0  0  0  0  0
   68.5594   87.2344   92.2304 C   0  0  0  0  0  0  0  0  0  0  0  0
   68.7338   86.7109   90.9470 C   0  0  0  0  0  0  0  0  0  0  0  0
   68.0572   85.5476   90.5668 C   0  0  0  0  0  0  0  0  0  0  0  0
   67.2879   79.6813   88.7422 C   0  0  0  0  0  0  0  0  0  0  0  0
   66.9140   78.9776   87.7661 O   0  0  0  0  0  0  0  0  0  0  0  0
   67.8993   80.9083   88.5066 O   0  0  0  0  0  0  0  0  0  0  0  0
   68.1803   81.4377   89.2269 H   0  0  0  0  0  0  0  0  0  0  0  0
 14 15  2  0  0  0
 15 16  1  0  0  0
 16 20  1  0  0  0
 20 21  2  0  0  0
 21 22  1  0  0  0
 22 23  2  0  0  0
 23 24  1  0  0  0
 24 25  2  0  0  0
 15 17  1  0  0  0
 17  1  1  0  0  0
  1  2  1  0  0  0
  2  3  2  0  0  0
  3  6  1  0  0  0
  6  7  2  0  0  0
  7  8  1  0  0  0
  8  9  2  0  0  0
  9 10  1  0  0  0
  9 11  1  0  0  0
 11 12  1  0  0  0
 11 13  2  0  0  0
  3  4  1  0  0  0
  4  5  1  0  0  0
  5 26  1  0  0  0
 26 27  2  0  0  0
 26 28  1  0  0  0
 25 20  1  0  0  0
  5  1  2  0  0  0
 13  6  1  0  0  0
 16 18  1  0  0  0
 17 19  1  0  0  0
 28 29  1  0  0  0
M  END
> <score>
-0.544894

> <minimizedAffinity>
-6.36286

> <CNNscore>
0.3281389773

> <CNNaffinity>
5.6842002869

> <CNN_VS>
1.8652076721

$$$$
HIPS382


 29 30  0  0  0  0  0  0  0  0999 V2000
   69.4534   78.3078   90.5079 C   0  0  0  0  0  0  0  0  0  0  0  0
   69.2001   79.6008   90.0138 C   0  0  0  0  0  0  0  0  0  0  0  0
   70.3297   80.4179   89.9670 C   0  0  0  0  0  0  0  0  0  0  0  0
   71.6316   79.5226   90.5569 S   0  0  0  0  0  0  0  0  0  0  0  0
   70.7874   78.1017   90.8697 C   0  0  0  0  0  0  0  0  0  0  0  0
   66.9191   76.1676   92.3071 N   0  0  0  0  0  0  0  0  0  0  0  0
   67.5450   77.3740   91.8525 C   0  0  0  0  0  0  0  0  0  0  0  0
   67.3268   78.4650   92.4466 O   0  0  0  0  0  0  0  0  0  0  0  0
   68.4127   77.3400   90.7127 N   0  0  0  0  0  0  0  0  0  0  0  0
   66.8417   75.4099   91.6833 H   0  0  0  0  0  0  0  0  0  0  0  0
   68.2907   76.6267   90.0453 H   0  0  0  0  0  0  0  0  0  0  0  0
   66.3907   76.0196   93.6634 C   0  0  0  0  0  0  0  0  0  0  0  0
   66.8614   74.7005   94.2939 C   0  0  0  0  0  0  0  0  0  0  0  0
   68.0359   74.0264   93.5559 C   0  0  0  0  0  0  0  0  0  0  0  0
   67.6969   72.6828   92.8859 C   0  0  0  0  0  0  0  0  0  0  0  0
   68.6173   73.4794   90.6758 C   0  0  0  0  0  0  0  0  0  0  0  0
   67.4365   72.8159   91.3792 C   0  0  0  0  0  0  0  0  0  0  0  0
   70.3872   81.8300   89.5077 C   0  0  0  0  0  0  0  0  0  0  0  0
   69.2715   82.4454   88.9083 C   0  0  0  0  0  0  0  0  0  0  0  0
   69.3349   83.7750   88.4809 C   0  0  0  0  0  0  0  0  0  0  0  0
   70.5179   84.5178   88.6421 C   0  0  0  0  0  0  0  0  0  0  0  0
   71.6286   83.9083   89.2328 C   0  0  0  0  0  0  0  0  0  0  0  0
   71.5680   82.5793   89.6607 C   0  0  0  0  0  0  0  0  0  0  0  0
   70.6302   85.8544   88.2308 O   0  0  0  0  0  0  0  0  0  0  0  0
   69.6244   86.5614   87.5124 C   0  0  0  0  0  0  0  0  0  0  0  0
   71.4043   76.8681   91.3862 C   0  0  0  0  0  0  0  0  0  0  0  0
   70.7131   76.0601   92.0622 O   0  0  0  0  0  0  0  0  0  0  0  0
   72.7488   76.5941   91.1575 O   0  0  0  0  0  0  0  0  0  0  0  0
   73.2696   77.1900   90.6558 H   0  0  0  0  0  0  0  0  0  0  0  0
 16 17  1  0  0  0
 17 15  1  0  0  0
 15 14  1  0  0  0
 14 13  1  0  0  0
 13 12  1  0  0  0
 12  6  1  0  0  0
  6  7  1  0  0  0
  7  8  2  0  0  0
  7  9  1  0  0  0
  9  1  1  0  0  0
  1  2  1  0  0  0
  2  3  2  0  0  0
  3 18  1  0  0  0
 18 19  2  0  0  0
 19 20  1  0  0  0
 20 21  2  0  0  0
 21 24  1  0  0  0
 24 25  1  0  0  0
 21 22  1  0  0  0
 22 23  2  0  0  0
  3  4  1  0  0  0
  4  5  1  0  0  0
  5 26  1  0  0  0
 26 27  2  0  0  0
 26 28  1  0  0  0
  5  1  2  0  0  0
 23 18  1  0  0  0
  6 10  1  0  0  0
  9 11  1  0  0  0
 28 29  1  0  0  0
M  END
> <score>
0.466782

> <minimizedAffinity>
-5.90861

> <CNNscore>
0.4873613715

> <CNNaffinity>
5.8549175262

> <CNN_VS>
2.8534605503

$$$$
HIPS382


 29 30  0  0  0  0  0  0  0  0999 V2000
   67.1339   73.3284   89.0120 C   0  0  0  0  0  0  0  0  0  0  0  0
   67.7422   72.4258   89.9039 C   0  0  0  0  0  0  0  0  0  0  0  0
   68.5340   73.0397   90.8746 C   0  0  0  0  0  0  0  0  0  0  0  0
   68.4786   74.7030   90.6010 S   0  0  0  0  0  0  0  0  0  0  0  0
   67.4562   74.6643   89.2659 C   0  0  0  0  0  0  0  0  0  0  0  0
   66.2919   71.9059   85.6196 N   0  0  0  0  0  0  0  0  0  0  0  0
   66.8138   71.9194   86.9542 C   0  0  0  0  0  0  0  0  0  0  0  0
   67.6753   71.0685   87.3074 O   0  0  0  0  0  0  0  0  0  0  0  0
   66.3462   72.8969   87.8918 N   0  0  0  0  0  0  0  0  0  0  0  0
   65.4295   72.3471   85.4437 H   0  0  0  0  0  0  0  0  0  0  0  0
   65.4515   73.2871   87.7630 H   0  0  0  0  0  0  0  0  0  0  0  0
   66.9923   71.2613   84.5086 C   0  0  0  0  0  0  0  0  0  0  0  0
   66.5427   69.8011   84.3509 C   0  0  0  0  0  0  0  0  0  0  0  0
   65.6974   69.5287   83.0900 C   0  0  0  0  0  0  0  0  0  0  0  0
   65.1126   70.7829   82.4163 C   0  0  0  0  0  0  0  0  0  0  0  0
   62.7669   70.3488   83.2384 C   0  0  0  0  0  0  0  0  0  0  0  0
   63.6406   70.6139   82.0155 C   0  0  0  0  0  0  0  0  0  0  0  0
   69.3112   72.3637   91.9458 C   0  0  0  0  0  0  0  0  0  0  0  0
   69.7173   73.0611   93.0997 C   0  0  0  0  0  0  0  0  0  0  0  0
   70.4469   72.4158   94.1026 C   0  0  0  0  0  0  0  0  0  0  0  0
   70.7884   71.0581   93.9716 C   0  0  0  0  0  0  0  0  0  0  0  0
   70.3905   70.3642   92.8252 C   0  0  0  0  0  0  0  0  0  0  0  0
   69.6613   71.0069   91.8210 C   0  0  0  0  0  0  0  0  0  0  0  0
   71.5177   70.3668   94.9505 O   0  0  0  0  0  0  0  0  0  0  0  0
   71.1268   69.1177   95.5115 C   0  0  0  0  0  0  0  0  0  0  0  0
   66.9739   75.8616   88.5568 C   0  0  0  0  0  0  0  0  0  0  0  0
   67.0038   75.8959   87.2976 O   0  0  0  0  0  0  0  0  0  0  0  0
   66.5071   76.9669   89.2608 O   0  0  0  0  0  0  0  0  0  0  0  0
   66.4817   76.9493   90.1973 H   0  0  0  0  0  0  0  0  0  0  0  0
 16 17  1  0  0  0
 17 15  1  0  0  0
 15 14  1  0  0  0
 14 13  1  0  0  0
 13 12  1  0  0  0
 12  6  1  0  0  0
  6  7  1  0  0  0
  7  8  2  0  0  0
  7  9  1  0  0  0
  9  1  1  0  0  0
  1  2  1  0  0  0
  2  3  2  0  0  0
  3 18  1  0  0  0
 18 19  2  0  0  0
 19 20  1  0  0  0
 20 21  2  0  0  0
 21 24  1  0  0  0
 24 25  1  0  0  0
 21 22  1  0  0  0
 22 23  2  0  0  0
  3  4  1  0  0  0
  4  5  1  0  0  0
  5 26  1  0  0  0
 26 27  2  0  0  0
 26 28  1  0  0  0
  5  1  2  0  0  0
 23 18  1  0  0  0
  6 10  1  0  0  0
  9 11  1  0  0  0
 28 29  1  0  0  0
M  END
> <score>
0.466782

> <minimizedAffinity>
-7.16753

> <CNNscore>
0.4736799002

> <CNNaffinity>
5.5841760635

> <CNN_VS>
2.6451120377

$$$$
HIPS382


 29 30  0  0  0  0  0  0  0  0999 V2000
   68.2720   77.7997   91.0716 C   0  0  0  0  0  0  0  0  0  0  0  0
   68.3492   79.1485   90.6780 C   0  0  0  0  0  0  0  0  0  0  0  0
   69.6351   79.5612   90.3289 C   0  0  0  0  0  0  0  0  0  0  0  0
   70.6663   78.2416   90.5290 S   0  0  0  0  0  0  0  0  0  0  0  0
   69.5048   77.1420   91.0498 C   0  0  0  0  0  0  0  0  0  0  0  0
   65.8300   76.1450   93.4253 N   0  0  0  0  0  0  0  0  0  0  0  0
   66.7089   77.1660   92.9364 C   0  0  0  0  0  0  0  0  0  0  0  0
   67.1687   78.0378   93.7234 O   0  0  0  0  0  0  0  0  0  0  0  0
   67.0566   77.2006   91.5468 N   0  0  0  0  0  0  0  0  0  0  0  0
   65.2467   75.6759   92.7858 H   0  0  0  0  0  0  0  0  0  0  0  0
   66.4393   76.7988   90.8936 H   0  0  0  0  0  0  0  0  0  0  0  0
   65.7670   75.7735   94.8390 C   0  0  0  0  0  0  0  0  0  0  0  0
   66.0072   74.2674   95.0209 C   0  0  0  0  0  0  0  0  0  0  0  0
   67.3168   73.9164   95.7559 C   0  0  0  0  0  0  0  0  0  0  0  0
   68.6054   74.2753   94.9946 C   0  0  0  0  0  0  0  0  0  0  0  0
   70.0688   72.5380   93.8961 C   0  0  0  0  0  0  0  0  0  0  0  0
   69.7274   73.2488   95.2028 C   0  0  0  0  0  0  0  0  0  0  0  0
   70.0430   80.9192   89.8842 C   0  0  0  0  0  0  0  0  0  0  0  0
   71.3479   81.3972   90.1113 C   0  0  0  0  0  0  0  0  0  0  0  0
   71.7225   82.6757   89.6876 C   0  0  0  0  0  0  0  0  0  0  0  0
   70.7979   83.5056   89.0290 C   0  0  0  0  0  0  0  0  0  0  0  0
   69.5004   83.0357   88.8060 C   0  0  0  0  0  0  0  0  0  0  0  0
   69.1233   81.7581   89.2287 C   0  0  0  0  0  0  0  0  0  0  0  0
   71.1263   84.7950   88.5842 O   0  0  0  0  0  0  0  0  0  0  0  0
   72.4357   85.2043   88.2028 C   0  0  0  0  0  0  0  0  0  0  0  0
   69.7828   75.7306   91.3653 C   0  0  0  0  0  0  0  0  0  0  0  0
   70.7762   75.4349   92.0818 O   0  0  0  0  0  0  0  0  0  0  0  0
   68.9754   74.7157   90.8621 O   0  0  0  0  0  0  0  0  0  0  0  0
   68.2348   74.9272   90.3285 H   0  0  0  0  0  0  0  0  0  0  0  0
 16 17  1  0  0  0
 17 15  1  0  0  0
 15 14  1  0  0  0
 14 13  1  0  0  0
 13 12  1  0  0  0
 12  6  1  0  0  0
  6  7  1  0  0  0
  7  8  2  0  0  0
  7  9  1  0  0  0
  9  1  1  0  0  0
  1  2  1  0  0  0
  2  3  2  0  0  0
  3 18  1  0  0  0
 18 19  2  0  0  0
 19 20  1  0  0  0
 20 21  2  0  0  0
 21 24  1  0  0  0
 24 25  1  0  0  0
 21 22  1  0  0  0
 22 23  2  0  0  0
  3  4  1  0  0  0
  4  5  1  0  0  0
  5 26  1  0  0  0
 26 27  2  0  0  0
 26 28  1  0  0  0
  5  1  2  0  0  0
 23 18  1  0  0  0
  6 10  1  0  0  0
  9 11  1  0  0  0
 28 29  1  0  0  0
M  END
> <score>
0.466782

> <minimizedAffinity>
-6.65503

> <CNNscore>
0.2679795027

> <CNNaffinity>
5.6159887314

> <CNN_VS>
1.5049698353

$$$$
HIPS387


 29 30  0  0  0  0  0  0  0  0999 V2000
   69.1020   78.1519   90.8812 C   0  0  0  0  0  0  0  0  0  0  0  0
   68.6551   79.3940   90.3982 C   0  0  0  0  0  0  0  0  0  0  0  0
   69.6831   80.2515   90.0209 C   0  0  0  0  0  0  0  0  0  0  0  0
   71.1469   79.4693   90.3120 S   0  0  0  0  0  0  0  0  0  0  0  0
   70.4946   78.0272   90.8877 C   0  0  0  0  0  0  0  0  0  0  0  0
   69.5053   81.6411   89.5393 C   0  0  0  0  0  0  0  0  0  0  0  0
   68.8085   81.8553   88.3352 C   0  0  0  0  0  0  0  0  0  0  0  0
   68.6081   83.1482   87.8474 C   0  0  0  0  0  0  0  0  0  0  0  0
   69.1044   84.2464   88.5510 C   0  0  0  0  0  0  0  0  0  0  0  0
   68.8532   85.8698   87.9352 Cl  0  0  0  0  0  0  0  0  0  0  0  0
   69.8104   84.0509   89.7403 C   0  0  0  0  0  0  0  0  0  0  0  0
   70.0196   82.7585   90.2394 C   0  0  0  0  0  0  0  0  0  0  0  0
   71.0031   82.5964   91.6909 Cl  0  0  0  0  0  0  0  0  0  0  0  0
   66.4782   76.2503   92.8179 N   0  0  0  0  0  0  0  0  0  0  0  0
   67.7222   76.9245   92.5869 C   0  0  0  0  0  0  0  0  0  0  0  0
   68.3951   77.3659   93.5583 O   0  0  0  0  0  0  0  0  0  0  0  0
   68.2015   77.0954   91.2471 N   0  0  0  0  0  0  0  0  0  0  0  0
   66.0551   75.7703   92.0697 H   0  0  0  0  0  0  0  0  0  0  0  0
   67.9023   76.4654   90.5523 H   0  0  0  0  0  0  0  0  0  0  0  0
   65.8121   76.2468   94.1205 C   0  0  0  0  0  0  0  0  0  0  0  0
   65.7828   74.8333   94.7234 C   0  0  0  0  0  0  0  0  0  0  0  0
   66.5576   74.6916   96.0469 C   0  0  0  0  0  0  0  0  0  0  0  0
   67.7292   73.6991   95.9471 C   0  0  0  0  0  0  0  0  0  0  0  0
   69.6821   73.0632   94.4284 C   0  0  0  0  0  0  0  0  0  0  0  0
   68.8490   74.1992   95.0205 C   0  0  0  0  0  0  0  0  0  0  0  0
   71.2971   76.8880   91.3640 C   0  0  0  0  0  0  0  0  0  0  0  0
   72.5377   76.8633   91.1448 O   0  0  0  0  0  0  0  0  0  0  0  0
   70.7066   75.8476   92.0738 O   0  0  0  0  0  0  0  0  0  0  0  0
   69.7847   75.8586   92.2409 H   0  0  0  0  0  0  0  0  0  0  0  0
 24 25  1  0  0  0
 25 23  1  0  0  0
 23 22  1  0  0  0
 22 21  1  0  0  0
 21 20  1  0  0  0
 20 14  1  0  0  0
 14 15  1  0  0  0
 15 16  2  0  0  0
 15 17  1  0  0  0
 17  1  1  0  0  0
  1  2  1  0  0  0
  2  3  2  0  0  0
  3  6  1  0  0  0
  6  7  2  0  0  0
  7  8  1  0  0  0
  8  9  2  0  0  0
  9 10  1  0  0  0
  9 11  1  0  0  0
 11 12  2  0  0  0
 12 13  1  0  0  0
  3  4  1  0  0  0
  4  5  1  0  0  0
  5 26  1  0  0  0
 26 27  2  0  0  0
 26 28  1  0  0  0
  5  1  2  0  0  0
 12  6  1  0  0  0
 14 18  1  0  0  0
 17 19  1  0  0  0
 28 29  1  0  0  0
M  END
> <score>
-0.51975

> <minimizedAffinity>
-6.40124

> <CNNscore>
0.6231167912

> <CNNaffinity>
6.1167421341

> <CNN_VS>
3.8114447594

$$$$
HIPS387


 29 30  0  0  0  0  0  0  0  0999 V2000
   68.7717   77.6017   91.1881 C   0  0  0  0  0  0  0  0  0  0  0  0
   68.1018   78.6527   90.5384 C   0  0  0  0  0  0  0  0  0  0  0  0
   68.9528   79.5631   89.9207 C   0  0  0  0  0  0  0  0  0  0  0  0
   70.5385   79.0694   90.2056 S   0  0  0  0  0  0  0  0  0  0  0  0
   70.1637   77.6828   91.0851 C   0  0  0  0  0  0  0  0  0  0  0  0
   68.5245   80.7965   89.2210 C   0  0  0  0  0  0  0  0  0  0  0  0
   69.0198   82.0351   89.6701 C   0  0  0  0  0  0  0  0  0  0  0  0
   68.6516   83.2231   89.0354 C   0  0  0  0  0  0  0  0  0  0  0  0
   67.7795   83.1935   87.9463 C   0  0  0  0  0  0  0  0  0  0  0  0
   67.3167   84.6874   87.1516 Cl  0  0  0  0  0  0  0  0  0  0  0  0
   67.2676   81.9741   87.4965 C   0  0  0  0  0  0  0  0  0  0  0  0
   67.6281   80.7754   88.1259 C   0  0  0  0  0  0  0  0  0  0  0  0
   66.8609   79.2958   87.5580 Cl  0  0  0  0  0  0  0  0  0  0  0  0
   67.5813   74.0848   91.8703 N   0  0  0  0  0  0  0  0  0  0  0  0
   67.7718   75.2960   91.1273 C   0  0  0  0  0  0  0  0  0  0  0  0
   67.6706   75.2921   89.8699 O   0  0  0  0  0  0  0  0  0  0  0  0
   68.0771   76.5143   91.8176 N   0  0  0  0  0  0  0  0  0  0  0  0
   67.4984   74.1396   92.8498 H   0  0  0  0  0  0  0  0  0  0  0  0
   67.8004   76.6090   92.7576 H   0  0  0  0  0  0  0  0  0  0  0  0
   67.5050   72.7706   91.2319 C   0  0  0  0  0  0  0  0  0  0  0  0
   68.9055   72.1685   91.0354 C   0  0  0  0  0  0  0  0  0  0  0  0
   69.9479   72.6359   92.0683 C   0  0  0  0  0  0  0  0  0  0  0  0
   70.2553   71.5652   93.1298 C   0  0  0  0  0  0  0  0  0  0  0  0
   69.5992   73.3464   94.8389 C   0  0  0  0  0  0  0  0  0  0  0  0
   70.5193   72.1693   94.5183 C   0  0  0  0  0  0  0  0  0  0  0  0
   71.1672   76.7817   91.6766 C   0  0  0  0  0  0  0  0  0  0  0  0
   70.8346   76.0042   92.6106 O   0  0  0  0  0  0  0  0  0  0  0  0
   72.4745   76.7615   91.2018 O   0  0  0  0  0  0  0  0  0  0  0  0
   72.7298   77.3366   90.5075 H   0  0  0  0  0  0  0  0  0  0  0  0
 24 25  1  0  0  0
 25 23  1  0  0  0
 23 22  1  0  0  0
 22 21  1  0  0  0
 21 20  1  0  0  0
 20 14  1  0  0  0
 14 15  1  0  0  0
 15 16  2  0  0  0
 15 17  1  0  0  0
 17  1  1  0  0  0
  1  2  1  0  0  0
  2  3  2  0  0  0
  3  6  1  0  0  0
  6  7  2  0  0  0
  7  8  1  0  0  0
  8  9  2  0  0  0
  9 10  1  0  0  0
  9 11  1  0  0  0
 11 12  2  0  0  0
 12 13  1  0  0  0
  3  4  1  0  0  0
  4  5  1  0  0  0
  5 26  1  0  0  0
 26 27  2  0  0  0
 26 28  1  0  0  0
  5  1  2  0  0  0
 12  6  1  0  0  0
 14 18  1  0  0  0
 17 19  1  0  0  0
 28 29  1  0  0  0
M  END
> <score>
-0.51975

> <minimizedAffinity>
-6.46823

> <CNNscore>
0.5426887870

> <CNNaffinity>
6.2579393387

> <CNN_VS>
3.3961133957

$$$$
HIPS387


 29 30  0  0  0  0  0  0  0  0999 V2000
   68.4365   74.5082   90.8993 C   0  0  0  0  0  0  0  0  0  0  0  0
   68.5008   75.7962   90.3403 C   0  0  0  0  0  0  0  0  0  0  0  0
   69.3803   76.6496   90.9981 C   0  0  0  0  0  0  0  0  0  0  0  0
   70.0579   75.8047   92.2889 S   0  0  0  0  0  0  0  0  0  0  0  0
   69.2703   74.3425   92.0093 C   0  0  0  0  0  0  0  0  0  0  0  0
   69.5981   78.0767   90.6656 C   0  0  0  0  0  0  0  0  0  0  0  0
   68.4853   78.9372   90.6183 C   0  0  0  0  0  0  0  0  0  0  0  0
   68.6434   80.2919   90.3188 C   0  0  0  0  0  0  0  0  0  0  0  0
   69.9136   80.8071   90.0570 C   0  0  0  0  0  0  0  0  0  0  0  0
   70.1096   82.5089   89.6791 Cl  0  0  0  0  0  0  0  0  0  0  0  0
   71.0271   79.9641   90.0859 C   0  0  0  0  0  0  0  0  0  0  0  0
   70.8814   78.6028   90.3835 C   0  0  0  0  0  0  0  0  0  0  0  0
   72.3220   77.5937   90.3020 Cl  0  0  0  0  0  0  0  0  0  0  0  0
   66.8719   72.2895   88.2762 N   0  0  0  0  0  0  0  0  0  0  0  0
   67.1662   73.5062   88.9752 C   0  0  0  0  0  0  0  0  0  0  0  0
   66.9988   74.6206   88.4083 O   0  0  0  0  0  0  0  0  0  0  0  0
   67.6512   73.4537   90.3228 N   0  0  0  0  0  0  0  0  0  0  0  0
   66.8482   71.4467   88.7844 H   0  0  0  0  0  0  0  0  0  0  0  0
   67.4380   72.6658   90.8733 H   0  0  0  0  0  0  0  0  0  0  0  0
   66.6052   72.2499   86.8382 C   0  0  0  0  0  0  0  0  0  0  0  0
   67.3038   71.0501   86.1786 C   0  0  0  0  0  0  0  0  0  0  0  0
   67.4745   71.1751   84.6531 C   0  0  0  0  0  0  0  0  0  0  0  0
   66.5488   70.2268   83.8711 C   0  0  0  0  0  0  0  0  0  0  0  0
   64.7840   70.1386   82.0267 C   0  0  0  0  0  0  0  0  0  0  0  0
   65.4252   70.9734   83.1343 C   0  0  0  0  0  0  0  0  0  0  0  0
   69.4198   73.1470   92.8562 C   0  0  0  0  0  0  0  0  0  0  0  0
   68.4635   72.3334   92.9621 O   0  0  0  0  0  0  0  0  0  0  0  0
   70.6128   72.8917   93.5243 O   0  0  0  0  0  0  0  0  0  0  0  0
   71.3287   73.4918   93.4506 H   0  0  0  0  0  0  0  0  0  0  0  0
 24 25  1  0  0  0
 25 23  1  0  0  0
 23 22  1  0  0  0
 22 21  1  0  0  0
 21 20  1  0  0  0
 20 14  1  0  0  0
 14 15  1  0  0  0
 15 16  2  0  0  0
 15 17  1  0  0  0
 17  1  1  0  0  0
  1  2  1  0  0  0
  2  3  2  0  0  0
  3  6  1  0  0  0
  6  7  2  0  0  0
  7  8  1  0  0  0
  8  9  2  0  0  0
  9 10  1  0  0  0
  9 11  1  0  0  0
 11 12  2  0  0  0
 12 13  1  0  0  0
  3  4  1  0  0  0
  4  5  1  0  0  0
  5 26  1  0  0  0
 26 27  2  0  0  0
 26 28  1  0  0  0
  5  1  2  0  0  0
 12  6  1  0  0  0
 14 18  1  0  0  0
 17 19  1  0  0  0
 28 29  1  0  0  0
M  END
> <score>
-0.51975

> <minimizedAffinity>
-7.49163

> <CNNscore>
0.5255396366

> <CNNaffinity>
5.9730491638

> <CNN_VS>
3.1390740871

$$$$
HIPS390


 28 29  0  0  0  0  0  0  0  0999 V2000
   69.5791   78.2258   90.3680 C   0  0  0  0  0  0  0  0  0  0  0  0
   69.0799   79.4503   89.9000 C   0  0  0  0  0  0  0  0  0  0  0  0
   70.0390   80.4634   89.8468 C   0  0  0  0  0  0  0  0  0  0  0  0
   71.4931   79.8206   90.4127 S   0  0  0  0  0  0  0  0  0  0  0  0
   70.9323   78.2666   90.7203 C   0  0  0  0  0  0  0  0  0  0  0  0
   69.8347   81.8623   89.3887 C   0  0  0  0  0  0  0  0  0  0  0  0
   70.8527   82.8210   89.5576 C   0  0  0  0  0  0  0  0  0  0  0  0
   70.6679   84.1387   89.1286 C   0  0  0  0  0  0  0  0  0  0  0  0
   69.4676   84.5180   88.5234 C   0  0  0  0  0  0  0  0  0  0  0  0
   69.2388   86.1719   87.9852 Cl  0  0  0  0  0  0  0  0  0  0  0  0
   68.4506   83.5770   88.3457 C   0  0  0  0  0  0  0  0  0  0  0  0
   68.6302   82.2579   88.7734 C   0  0  0  0  0  0  0  0  0  0  0  0
   67.2871   75.5014   91.7225 N   0  0  0  0  0  0  0  0  0  0  0  0
   68.1186   76.6691   91.6941 C   0  0  0  0  0  0  0  0  0  0  0  0
   68.3042   77.3406   92.7462 O   0  0  0  0  0  0  0  0  0  0  0  0
   68.7474   77.0630   90.4670 N   0  0  0  0  0  0  0  0  0  0  0  0
   67.1483   75.0002   90.8866 H   0  0  0  0  0  0  0  0  0  0  0  0
   68.6024   76.5141   89.6626 H   0  0  0  0  0  0  0  0  0  0  0  0
   66.6371   75.0250   92.9417 C   0  0  0  0  0  0  0  0  0  0  0  0
   67.0451   73.5750   93.2359 C   0  0  0  0  0  0  0  0  0  0  0  0
   68.4045   73.4868   93.9613 C   0  0  0  0  0  0  0  0  0  0  0  0
   68.3507   73.9457   95.4284 C   0  0  0  0  0  0  0  0  0  0  0  0
   66.3640   74.9000   96.6589 C   0  0  0  0  0  0  0  0  0  0  0  0
   67.0080   73.6334   96.1023 C   0  0  0  0  0  0  0  0  0  0  0  0
   71.7395   77.2127   91.3566 C   0  0  0  0  0  0  0  0  0  0  0  0
   72.8661   76.8948   90.8916 O   0  0  0  0  0  0  0  0  0  0  0  0
   71.2385   76.5376   92.4654 O   0  0  0  0  0  0  0  0  0  0  0  0
   70.4011   76.7694   92.8160 H   0  0  0  0  0  0  0  0  0  0  0  0
 23 24  1  0  0  0
 24 22  1  0  0  0
 22 21  1  0  0  0
 21 20  1  0  0  0
 20 19  1  0  0  0
 19 13  1  0  0  0
 13 14  1  0  0  0
 14 15  2  0  0  0
 14 16  1  0  0  0
 16  1  1  0  0  0
  1  2  1  0  0  0
  2  3  2  0  0  0
  3  6  1  0  0  0
  6  7  2  0  0  0
  7  8  1  0  0  0
  8  9  2  0  0  0
  9 10  1  0  0  0
  9 11  1  0  0  0
 11 12  2  0  0  0
  3  4  1  0  0  0
  4  5  1  0  0  0
  5 25  1  0  0  0
 25 26  2  0  0  0
 25 27  1  0  0  0
  5  1  2  0  0  0
 12  6  1  0  0  0
 13 17  1  0  0  0
 16 18  1  0  0  0
 27 28  1  0  0  0
M  END
> <score>
0.140183

> <minimizedAffinity>
-5.97130

> <CNNscore>
0.5329731703

> <CNNaffinity>
5.7041225433

> <CNN_VS>
3.0401442051

$$$$
HIPS390


 28 29  0  0  0  0  0  0  0  0999 V2000
   68.6104   77.8773   90.9278 C   0  0  0  0  0  0  0  0  0  0  0  0
   68.1827   79.0876   90.3625 C   0  0  0  0  0  0  0  0  0  0  0  0
   69.2293   79.9221   89.9657 C   0  0  0  0  0  0  0  0  0  0  0  0
   70.6767   79.1457   90.3531 S   0  0  0  0  0  0  0  0  0  0  0  0
   70.0014   77.7555   91.0132 C   0  0  0  0  0  0  0  0  0  0  0  0
   69.1117   81.2585   89.3266 C   0  0  0  0  0  0  0  0  0  0  0  0
   70.1721   82.1817   89.4101 C   0  0  0  0  0  0  0  0  0  0  0  0
   70.0689   83.4407   88.8108 C   0  0  0  0  0  0  0  0  0  0  0  0
   68.9089   83.7954   88.1185 C   0  0  0  0  0  0  0  0  0  0  0  0
   68.7824   85.3754   87.3668 Cl  0  0  0  0  0  0  0  0  0  0  0  0
   67.8506   82.8885   88.0241 C   0  0  0  0  0  0  0  0  0  0  0  0
   67.9486   81.6284   88.6220 C   0  0  0  0  0  0  0  0  0  0  0  0
   66.3099   75.7685   93.1121 N   0  0  0  0  0  0  0  0  0  0  0  0
   67.2563   76.7781   92.7371 C   0  0  0  0  0  0  0  0  0  0  0  0
   67.7232   77.5636   93.6073 O   0  0  0  0  0  0  0  0  0  0  0  0
   67.6781   76.8830   91.3705 N   0  0  0  0  0  0  0  0  0  0  0  0
   65.9513   75.1746   92.4135 H   0  0  0  0  0  0  0  0  0  0  0  0
   67.3138   76.2483   90.7120 H   0  0  0  0  0  0  0  0  0  0  0  0
   65.8558   75.5850   94.4892 C   0  0  0  0  0  0  0  0  0  0  0  0
   66.0278   74.1221   94.9206 C   0  0  0  0  0  0  0  0  0  0  0  0
   67.2156   73.9346   95.8879 C   0  0  0  0  0  0  0  0  0  0  0  0
   68.5872   74.1646   95.2310 C   0  0  0  0  0  0  0  0  0  0  0  0
   70.1461   72.5349   94.0972 C   0  0  0  0  0  0  0  0  0  0  0  0
   68.8159   73.2766   94.0007 C   0  0  0  0  0  0  0  0  0  0  0  0
   70.7840   76.6875   91.6564 C   0  0  0  0  0  0  0  0  0  0  0  0
   70.3887   75.4918   91.6267 O   0  0  0  0  0  0  0  0  0  0  0  0
   71.9575   77.0064   92.3325 O   0  0  0  0  0  0  0  0  0  0  0  0
   72.2569   77.8940   92.3583 H   0  0  0  0  0  0  0  0  0  0  0  0
 23 24  1  0  0  0
 24 22  1  0  0  0
 22 21  1  0  0  0
 21 20  1  0  0  0
 20 19  1  0  0  0
 19 13  1  0  0  0
 13 14  1  0  0  0
 14 15  2  0  0  0
 14 16  1  0  0  0
 16  1  1  0  0  0
  1  2  1  0  0  0
  2  3  2  0  0  0
  3  6  1  0  0  0
  6  7  2  0  0  0
  7  8  1  0  0  0
  8  9  2  0  0  0
  9 10  1  0  0  0
  9 11  1  0  0  0
 11 12  2  0  0  0
  3  4  1  0  0  0
  4  5  1  0  0  0
  5 25  1  0  0  0
 25 26  2  0  0  0
 25 27  1  0  0  0
  5  1  2  0  0  0
 12  6  1  0  0  0
 13 17  1  0  0  0
 16 18  1  0  0  0
 27 28  1  0  0  0
M  END
> <score>
0.140183

> <minimizedAffinity>
-6.50585

> <CNNscore>
0.3554385900

> <CNNaffinity>
5.7212753296

> <CNN_VS>
2.0335619450

$$$$
HIPS390


 28 29  0  0  0  0  0  0  0  0999 V2000
   67.0107   79.4776   90.6979 C   0  0  0  0  0  0  0  0  0  0  0  0
   66.9589   78.8716   91.9618 C   0  0  0  0  0  0  0  0  0  0  0  0
   67.0703   77.4805   91.9219 C   0  0  0  0  0  0  0  0  0  0  0  0
   67.2043   77.0251   90.3025 S   0  0  0  0  0  0  0  0  0  0  0  0
   67.1317   78.5685   89.6416 C   0  0  0  0  0  0  0  0  0  0  0  0
   67.0636   76.5512   93.0815 C   0  0  0  0  0  0  0  0  0  0  0  0
   68.2538   75.9207   93.4934 C   0  0  0  0  0  0  0  0  0  0  0  0
   68.2554   75.0457   94.5839 C   0  0  0  0  0  0  0  0  0  0  0  0
   67.0717   74.7893   95.2797 C   0  0  0  0  0  0  0  0  0  0  0  0
   67.0767   73.6917   96.6481 Cl  0  0  0  0  0  0  0  0  0  0  0  0
   65.8845   75.4106   94.8849 C   0  0  0  0  0  0  0  0  0  0  0  0
   65.8775   76.2861   93.7948 C   0  0  0  0  0  0  0  0  0  0  0  0
   67.9557   83.1261   90.1449 N   0  0  0  0  0  0  0  0  0  0  0  0
   68.0987   81.7085   90.3050 C   0  0  0  0  0  0  0  0  0  0  0  0
   69.2415   81.1764   90.2475 O   0  0  0  0  0  0  0  0  0  0  0  0
   66.9381   80.9004   90.5423 N   0  0  0  0  0  0  0  0  0  0  0  0
   67.0528   83.5169   90.1826 H   0  0  0  0  0  0  0  0  0  0  0  0
   66.0588   81.3393   90.6005 H   0  0  0  0  0  0  0  0  0  0  0  0
   69.0956   84.0148   89.9281 C   0  0  0  0  0  0  0  0  0  0  0  0
   69.3630   84.1880   88.4267 C   0  0  0  0  0  0  0  0  0  0  0  0
   70.7640   83.6835   88.0213 C   0  0  0  0  0  0  0  0  0  0  0  0
   71.9093   84.5852   88.5125 C   0  0  0  0  0  0  0  0  0  0  0  0
   72.5617   82.6705   90.0224 C   0  0  0  0  0  0  0  0  0  0  0  0
   73.0727   83.7926   89.1231 C   0  0  0  0  0  0  0  0  0  0  0  0
   67.0902   78.8420   88.1957 C   0  0  0  0  0  0  0  0  0  0  0  0
   67.7192   78.1130   87.3837 O   0  0  0  0  0  0  0  0  0  0  0  0
   66.3741   79.9375   87.7232 O   0  0  0  0  0  0  0  0  0  0  0  0
   65.9041   80.4837   88.3222 H   0  0  0  0  0  0  0  0  0  0  0  0
 23 24  1  0  0  0
 24 22  1  0  0  0
 22 21  1  0  0  0
 21 20  1  0  0  0
 20 19  1  0  0  0
 19 13  1  0  0  0
 13 14  1  0  0  0
 14 15  2  0  0  0
 14 16  1  0  0  0
 16  1  1  0  0  0
  1  2  1  0  0  0
  2  3  2  0  0  0
  3  6  1  0  0  0
  6  7  2  0  0  0
  7  8  1  0  0  0
  8  9  2  0  0  0
  9 10  1  0  0  0
  9 11  1  0  0  0
 11 12  2  0  0  0
  3  4  1  0  0  0
  4  5  1  0  0  0
  5 25  1  0  0  0
 25 26  2  0  0  0
 25 27  1  0  0  0
  5  1  2  0  0  0
 12  6  1  0  0  0
 13 17  1  0  0  0
 16 18  1  0  0  0
 27 28  1  0  0  0
M  END
> <score>
0.140183

> <minimizedAffinity>
-6.23006

> <CNNscore>
0.3086682260

> <CNNaffinity>
5.5795717239

> <CNN_VS>
1.7222365141

$$$$
HIPS407


 32 33  0  0  0  0  0  0  0  0999 V2000
   68.6178   78.3636   90.6971 C   0  0  0  0  0  0  0  0  0  0  0  0
   68.4497   79.6689   90.2002 C   0  0  0  0  0  0  0  0  0  0  0  0
   69.6473   80.3501   89.9872 C   0  0  0  0  0  0  0  0  0  0  0  0
   70.9067   79.3229   90.4374 S   0  0  0  0  0  0  0  0  0  0  0  0
   69.9558   78.0123   90.8956 C   0  0  0  0  0  0  0  0  0  0  0  0
   69.7984   81.7393   89.4827 C   0  0  0  0  0  0  0  0  0  0  0  0
   68.6634   82.5159   89.2006 C   0  0  0  0  0  0  0  0  0  0  0  0
   68.7969   83.8182   88.7202 C   0  0  0  0  0  0  0  0  0  0  0  0
   70.0622   84.3740   88.5148 C   0  0  0  0  0  0  0  0  0  0  0  0
   70.1514   86.0232   87.9018 Cl  0  0  0  0  0  0  0  0  0  0  0  0
   71.2211   83.6181   88.7985 C   0  0  0  0  0  0  0  0  0  0  0  0
   71.0734   82.3028   89.2830 C   0  0  0  0  0  0  0  0  0  0  0  0
   72.5991   84.2099   88.5869 C   0  0  0  0  0  0  0  0  0  0  0  0
   72.9536   84.0969   87.2547 F   0  0  0  0  0  0  0  0  0  0  0  0
   72.6462   85.5491   88.9347 F   0  0  0  0  0  0  0  0  0  0  0  0
   73.5202   83.5289   89.3620 F   0  0  0  0  0  0  0  0  0  0  0  0
   66.4854   76.0851   92.7985 N   0  0  0  0  0  0  0  0  0  0  0  0
   67.1298   77.3089   92.4241 C   0  0  0  0  0  0  0  0  0  0  0  0
   67.3621   78.1948   93.2915 O   0  0  0  0  0  0  0  0  0  0  0  0
   67.5090   77.5264   91.0598 N   0  0  0  0  0  0  0  0  0  0  0  0
   66.0151   75.5652   92.1073 H   0  0  0  0  0  0  0  0  0  0  0  0
   66.9917   77.0869   90.3467 H   0  0  0  0  0  0  0  0  0  0  0  0
   66.5019   75.5810   94.1719 C   0  0  0  0  0  0  0  0  0  0  0  0
   66.3639   74.0512   94.1963 C   0  0  0  0  0  0  0  0  0  0  0  0
   67.5175   73.2963   93.5046 C   0  0  0  0  0  0  0  0  0  0  0  0
   67.1334   72.5782   92.1986 C   0  0  0  0  0  0  0  0  0  0  0  0
   67.5347   72.9880   89.7414 C   0  0  0  0  0  0  0  0  0  0  0  0
   68.1900   72.7378   91.0968 C   0  0  0  0  0  0  0  0  0  0  0  0
   70.4921   76.7250   91.3690 C   0  0  0  0  0  0  0  0  0  0  0  0
   69.8448   75.6643   91.1606 O   0  0  0  0  0  0  0  0  0  0  0  0
   71.6947   76.6673   92.0657 O   0  0  0  0  0  0  0  0  0  0  0  0
   72.1821   77.4516   92.2249 H   0  0  0  0  0  0  0  0  0  0  0  0
 27 28  1  0  0  0
 28 26  1  0  0  0
 26 25  1  0  0  0
 25 24  1  0  0  0
 24 23  1  0  0  0
 23 17  1  0  0  0
 17 18  1  0  0  0
 18 19  2  0  0  0
 18 20  1  0  0  0
 20  1  1  0  0  0
  1  2  1  0  0  0
  2  3  2  0  0  0
  3  6  1  0  0  0
  6  7  2  0  0  0
  7  8  1  0  0  0
  8  9  2  0  0  0
  9 10  1  0  0  0
  9 11  1  0  0  0
 11 13  1  0  0  0
 13 14  1  0  0  0
 13 15  1  0  0  0
 13 16  1  0  0  0
 11 12  2  0  0  0
  3  4  1  0  0  0
  4  5  1  0  0  0
  5 29  1  0  0  0
 29 30  2  0  0  0
 29 31  1  0  0  0
  5  1  2  0  0  0
 12  6  1  0  0  0
 17 21  1  0  0  0
 20 22  1  0  0  0
 31 32  1  0  0  0
M  END
> <score>
-0.415373

> <minimizedAffinity>
-7.34600

> <CNNscore>
0.5664151311

> <CNNaffinity>
6.2382936478

> <CNN_VS>
3.5334639549

$$$$
HIPS407


 32 33  0  0  0  0  0  0  0  0999 V2000
   68.2643   78.2753   90.9197 C   0  0  0  0  0  0  0  0  0  0  0  0
   68.2798   79.6234   90.5180 C   0  0  0  0  0  0  0  0  0  0  0  0
   69.5520   80.1080   90.2178 C   0  0  0  0  0  0  0  0  0  0  0  0
   70.6501   78.8538   90.4728 S   0  0  0  0  0  0  0  0  0  0  0  0
   69.5333   77.6909   90.9547 C   0  0  0  0  0  0  0  0  0  0  0  0
   69.8943   81.4856   89.7793 C   0  0  0  0  0  0  0  0  0  0  0  0
   68.8768   82.4137   89.5071 C   0  0  0  0  0  0  0  0  0  0  0  0
   69.1898   83.7065   89.0883 C   0  0  0  0  0  0  0  0  0  0  0  0
   70.5213   84.1018   88.9361 C   0  0  0  0  0  0  0  0  0  0  0  0
   70.8385   85.7495   88.3996 Cl  0  0  0  0  0  0  0  0  0  0  0  0
   71.5651   83.1910   89.2115 C   0  0  0  0  0  0  0  0  0  0  0  0
   71.2362   81.8870   89.6334 C   0  0  0  0  0  0  0  0  0  0  0  0
   73.0131   83.6075   89.0572 C   0  0  0  0  0  0  0  0  0  0  0  0
   73.3041   83.7884   87.7171 F   0  0  0  0  0  0  0  0  0  0  0  0
   73.2848   84.7909   89.7222 F   0  0  0  0  0  0  0  0  0  0  0  0
   73.8362   82.6227   89.5725 F   0  0  0  0  0  0  0  0  0  0  0  0
   65.8901   76.4598   93.2048 N   0  0  0  0  0  0  0  0  0  0  0  0
   66.6732   77.5605   92.7271 C   0  0  0  0  0  0  0  0  0  0  0  0
   67.0156   78.4845   93.5146 O   0  0  0  0  0  0  0  0  0  0  0  0
   67.0660   77.6113   91.3503 N   0  0  0  0  0  0  0  0  0  0  0  0
   65.3563   75.9415   92.5600 H   0  0  0  0  0  0  0  0  0  0  0  0
   66.4951   77.1763   90.6766 H   0  0  0  0  0  0  0  0  0  0  0  0
   65.8559   76.0790   94.6171 C   0  0  0  0  0  0  0  0  0  0  0  0
   65.6949   74.5591   94.7715 C   0  0  0  0  0  0  0  0  0  0  0  0
   66.9293   73.8440   95.3579 C   0  0  0  0  0  0  0  0  0  0  0  0
   68.0829   73.6189   94.3642 C   0  0  0  0  0  0  0  0  0  0  0  0
   69.2827   75.7524   94.9768 C   0  0  0  0  0  0  0  0  0  0  0  0
   69.4060   74.2378   94.8357 C   0  0  0  0  0  0  0  0  0  0  0  0
   69.8795   76.3005   91.2950 C   0  0  0  0  0  0  0  0  0  0  0  0
   69.0836   75.3690   91.0012 O   0  0  0  0  0  0  0  0  0  0  0  0
   71.0652   76.0038   91.9592 O   0  0  0  0  0  0  0  0  0  0  0  0
   71.6624   76.6908   92.1812 H   0  0  0  0  0  0  0  0  0  0  0  0
 27 28  1  0  0  0
 28 26  1  0  0  0
 26 25  1  0  0  0
 25 24  1  0  0  0
 24 23  1  0  0  0
 23 17  1  0  0  0
 17 18  1  0  0  0
 18 19  2  0  0  0
 18 20  1  0  0  0
 20  1  1  0  0  0
  1  2  1  0  0  0
  2  3  2  0  0  0
  3  6  1  0  0  0
  6  7  2  0  0  0
  7  8  1  0  0  0
  8  9  2  0  0  0
  9 10  1  0  0  0
  9 11  1  0  0  0
 11 13  1  0  0  0
 13 14  1  0  0  0
 13 15  1  0  0  0
 13 16  1  0  0  0
 11 12  2  0  0  0
  3  4  1  0  0  0
  4  5  1  0  0  0
  5 29  1  0  0  0
 29 30  2  0  0  0
 29 31  1  0  0  0
  5  1  2  0  0  0
 12  6  1  0  0  0
 17 21  1  0  0  0
 20 22  1  0  0  0
 31 32  1  0  0  0
M  END
> <score>
-0.415373

> <minimizedAffinity>
-7.23623

> <CNNscore>
0.4558769763

> <CNNaffinity>
6.1685523987

> <CNN_VS>
2.8121011257

$$$$
HIPS407


 32 33  0  0  0  0  0  0  0  0999 V2000
   68.3241   77.8369   91.0219 C   0  0  0  0  0  0  0  0  0  0  0  0
   68.4270   79.1768   90.6059 C   0  0  0  0  0  0  0  0  0  0  0  0
   69.7246   79.5681   90.2793 C   0  0  0  0  0  0  0  0  0  0  0  0
   70.7365   78.2423   90.5290 S   0  0  0  0  0  0  0  0  0  0  0  0
   69.5494   77.1652   91.0417 C   0  0  0  0  0  0  0  0  0  0  0  0
   70.1549   80.9141   89.8208 C   0  0  0  0  0  0  0  0  0  0  0  0
   71.4039   81.4260   90.2067 C   0  0  0  0  0  0  0  0  0  0  0  0
   71.8120   82.6915   89.7862 C   0  0  0  0  0  0  0  0  0  0  0  0
   70.9869   83.4702   88.9707 C   0  0  0  0  0  0  0  0  0  0  0  0
   71.5687   85.0600   88.4834 Cl  0  0  0  0  0  0  0  0  0  0  0  0
   69.7289   82.9762   88.5605 C   0  0  0  0  0  0  0  0  0  0  0  0
   69.3271   81.6962   88.9924 C   0  0  0  0  0  0  0  0  0  0  0  0
   68.8268   83.8065   87.6713 C   0  0  0  0  0  0  0  0  0  0  0  0
   68.4256   84.9437   88.3489 F   0  0  0  0  0  0  0  0  0  0  0  0
   69.4662   84.1994   86.5079 F   0  0  0  0  0  0  0  0  0  0  0  0
   67.7110   83.0671   87.3231 F   0  0  0  0  0  0  0  0  0  0  0  0
   65.8781   76.1861   93.3556 N   0  0  0  0  0  0  0  0  0  0  0  0
   66.7309   77.2282   92.8659 C   0  0  0  0  0  0  0  0  0  0  0  0
   67.1644   78.1150   93.6513 O   0  0  0  0  0  0  0  0  0  0  0  0
   67.0900   77.2628   91.4795 N   0  0  0  0  0  0  0  0  0  0  0  0
   65.2890   75.7171   92.7214 H   0  0  0  0  0  0  0  0  0  0  0  0
   66.4695   76.8799   90.8179 H   0  0  0  0  0  0  0  0  0  0  0  0
   65.8520   75.7947   94.7652 C   0  0  0  0  0  0  0  0  0  0  0  0
   66.0949   74.2857   94.9199 C   0  0  0  0  0  0  0  0  0  0  0  0
   67.3709   73.9233   95.7071 C   0  0  0  0  0  0  0  0  0  0  0  0
   68.6905   74.3411   95.0339 C   0  0  0  0  0  0  0  0  0  0  0  0
   69.7219   72.5203   93.6240 C   0  0  0  0  0  0  0  0  0  0  0  0
   69.7223   73.2058   94.9876 C   0  0  0  0  0  0  0  0  0  0  0  0
   69.8034   75.7571   91.3907 C   0  0  0  0  0  0  0  0  0  0  0  0
   70.7932   75.4613   92.1121 O   0  0  0  0  0  0  0  0  0  0  0  0
   68.9771   74.7449   90.9138 O   0  0  0  0  0  0  0  0  0  0  0  0
   68.2390   74.9566   90.3768 H   0  0  0  0  0  0  0  0  0  0  0  0
 27 28  1  0  0  0
 28 26  1  0  0  0
 26 25  1  0  0  0
 25 24  1  0  0  0
 24 23  1  0  0  0
 23 17  1  0  0  0
 17 18  1  0  0  0
 18 19  2  0  0  0
 18 20  1  0  0  0
 20  1  1  0  0  0
  1  2  1  0  0  0
  2  3  2  0  0  0
  3  6  1  0  0  0
  6  7  2  0  0  0
  7  8  1  0  0  0
  8  9  2  0  0  0
  9 10  1  0  0  0
  9 11  1  0  0  0
 11 13  1  0  0  0
 13 14  1  0  0  0
 13 15  1  0  0  0
 13 16  1  0  0  0
 11 12  2  0  0  0
  3  4  1  0  0  0
  4  5  1  0  0  0
  5 29  1  0  0  0
 29 30  2  0  0  0
 29 31  1  0  0  0
  5  1  2  0  0  0
 12  6  1  0  0  0
 17 21  1  0  0  0
 20 22  1  0  0  0
 31 32  1  0  0  0
M  END
> <score>
-0.415373

> <minimizedAffinity>
-7.15664

> <CNNscore>
0.3782809675

> <CNNaffinity>
6.1739511490

> <CNN_VS>
2.3354883194

$$$$
HIPS408


 31 33  0  0  0  0  0  0  0  0999 V2000
   69.3055   78.2768   90.4771 C   0  0  0  0  0  0  0  0  0  0  0  0
   68.9105   79.5297   89.9729 C   0  0  0  0  0  0  0  0  0  0  0  0
   69.9458   80.4593   89.8946 C   0  0  0  0  0  0  0  0  0  0  0  0
   71.3472   79.7148   90.4630 S   0  0  0  0  0  0  0  0  0  0  0  0
   70.6640   78.2171   90.8069 C   0  0  0  0  0  0  0  0  0  0  0  0
   69.8376   81.8661   89.4323 C   0  0  0  0  0  0  0  0  0  0  0  0
   68.5807   82.4695   89.2402 C   0  0  0  0  0  0  0  0  0  0  0  0
   68.4881   83.7972   88.8163 C   0  0  0  0  0  0  0  0  0  0  0  0
   69.6440   84.5434   88.5718 C   0  0  0  0  0  0  0  0  0  0  0  0
   69.4849   86.2118   88.0395 Cl  0  0  0  0  0  0  0  0  0  0  0  0
   70.9045   83.9523   88.7512 C   0  0  0  0  0  0  0  0  0  0  0  0
   72.3840   84.8553   88.4537 Cl  0  0  0  0  0  0  0  0  0  0  0  0
   70.9967   82.6219   89.1772 C   0  0  0  0  0  0  0  0  0  0  0  0
   67.4216   78.1260   92.6657 O   0  0  0  0  0  0  0  0  0  0  0  0
   67.6303   77.1036   91.9570 C   0  0  0  0  0  0  0  0  0  0  0  0
   67.1164   75.8288   92.3650 N   0  0  0  0  0  0  0  0  0  0  0  0
   68.3743   77.2126   90.7359 N   0  0  0  0  0  0  0  0  0  0  0  0
   67.0527   75.1069   91.6986 H   0  0  0  0  0  0  0  0  0  0  0  0
   68.2412   76.5265   90.0425 H   0  0  0  0  0  0  0  0  0  0  0  0
   66.6833   75.5633   93.7367 C   0  0  0  0  0  0  0  0  0  0  0  0
   66.4997   74.0590   93.9673 C   0  0  0  0  0  0  0  0  0  0  0  0
   67.7295   73.2757   93.5809 C   0  0  0  0  0  0  0  0  0  0  0  0
   67.7008   72.4047   92.4778 C   0  0  0  0  0  0  0  0  0  0  0  0
   68.8480   71.6946   92.1104 C   0  0  0  0  0  0  0  0  0  0  0  0
   70.0327   71.8545   92.8341 C   0  0  0  0  0  0  0  0  0  0  0  0
   70.0743   72.7312   93.9216 C   0  0  0  0  0  0  0  0  0  0  0  0
   68.9282   73.4409   94.2948 C   0  0  0  0  0  0  0  0  0  0  0  0
   71.4259   77.0681   91.3249 C   0  0  0  0  0  0  0  0  0  0  0  0
   72.6247   76.8818   90.9868 O   0  0  0  0  0  0  0  0  0  0  0  0
   70.8210   76.1900   92.2189 O   0  0  0  0  0  0  0  0  0  0  0  0
   69.9295   76.3224   92.4750 H   0  0  0  0  0  0  0  0  0  0  0  0
 14 15  2  0  0  0
 15 16  1  0  0  0
 16 20  1  0  0  0
 20 21  1  0  0  0
 21 22  1  0  0  0
 22 23  2  0  0  0
 23 24  1  0  0  0
 24 25  2  0  0  0
 25 26  1  0  0  0
 26 27  2  0  0  0
 15 17  1  0  0  0
 17  1  1  0  0  0
  1  2  1  0  0  0
  2  3  2  0  0  0
  3  6  1  0  0  0
  6  7  2  0  0  0
  7  8  1  0  0  0
  8  9  2  0  0  0
  9 10  1  0  0  0
  9 11  1  0  0  0
 11 12  1  0  0  0
 11 13  2  0  0  0
  3  4  1  0  0  0
  4  5  1  0  0  0
  5 28  1  0  0  0
 28 29  2  0  0  0
 28 30  1  0  0  0
 27 22  1  0  0  0
  5  1  2  0  0  0
 13  6  1  0  0  0
 16 18  1  0  0  0
 17 19  1  0  0  0
 30 31  1  0  0  0
M  END
> <score>
-0.565669

> <minimizedAffinity>
-7.53065

> <CNNscore>
0.6170910001

> <CNNaffinity>
6.1577033997

> <CNN_VS>
3.7998633385

$$$$
HIPS408


 31 33  0  0  0  0  0  0  0  0999 V2000
   69.1259   78.2890   90.5506 C   0  0  0  0  0  0  0  0  0  0  0  0
   68.7569   79.5561   90.0623 C   0  0  0  0  0  0  0  0  0  0  0  0
   69.8291   80.4291   89.8887 C   0  0  0  0  0  0  0  0  0  0  0  0
   71.2314   79.6175   90.3534 S   0  0  0  0  0  0  0  0  0  0  0  0
   70.5016   78.1612   90.7715 C   0  0  0  0  0  0  0  0  0  0  0  0
   69.7568   81.8352   89.4171 C   0  0  0  0  0  0  0  0  0  0  0  0
   70.7493   82.7684   89.7705 C   0  0  0  0  0  0  0  0  0  0  0  0
   70.6797   84.0862   89.3128 C   0  0  0  0  0  0  0  0  0  0  0  0
   69.6192   84.4975   88.5011 C   0  0  0  0  0  0  0  0  0  0  0  0
   69.5678   86.1651   87.9456 Cl  0  0  0  0  0  0  0  0  0  0  0  0
   68.6175   83.5799   88.1473 C   0  0  0  0  0  0  0  0  0  0  0  0
   67.2652   84.0562   87.1289 Cl  0  0  0  0  0  0  0  0  0  0  0  0
   68.6884   82.2588   88.6054 C   0  0  0  0  0  0  0  0  0  0  0  0
   67.3259   78.3230   92.8134 O   0  0  0  0  0  0  0  0  0  0  0  0
   67.4662   77.2594   92.1499 C   0  0  0  0  0  0  0  0  0  0  0  0
   66.9195   76.0282   92.6408 N   0  0  0  0  0  0  0  0  0  0  0  0
   68.1649   77.2778   90.8978 N   0  0  0  0  0  0  0  0  0  0  0  0
   66.8013   75.2777   92.0147 H   0  0  0  0  0  0  0  0  0  0  0  0
   67.9777   76.5647   90.2454 H   0  0  0  0  0  0  0  0  0  0  0  0
   66.5312   75.8482   94.0395 C   0  0  0  0  0  0  0  0  0  0  0  0
   67.5699   75.0051   94.7880 C   0  0  0  0  0  0  0  0  0  0  0  0
   68.1233   73.8978   93.9261 C   0  0  0  0  0  0  0  0  0  0  0  0
   69.4964   73.5974   93.9486 C   0  0  0  0  0  0  0  0  0  0  0  0
   70.0035   72.5575   93.1630 C   0  0  0  0  0  0  0  0  0  0  0  0
   69.1445   71.8053   92.3573 C   0  0  0  0  0  0  0  0  0  0  0  0
   67.7757   72.0865   92.3421 C   0  0  0  0  0  0  0  0  0  0  0  0
   67.2647   73.1279   93.1237 C   0  0  0  0  0  0  0  0  0  0  0  0
   71.2424   76.9786   91.2426 C   0  0  0  0  0  0  0  0  0  0  0  0
   70.6356   75.9816   91.7157 O   0  0  0  0  0  0  0  0  0  0  0  0
   72.6300   76.9523   91.1412 O   0  0  0  0  0  0  0  0  0  0  0  0
   73.0882   77.6904   90.7903 H   0  0  0  0  0  0  0  0  0  0  0  0
 14 15  2  0  0  0
 15 16  1  0  0  0
 16 20  1  0  0  0
 20 21  1  0  0  0
 21 22  1  0  0  0
 22 23  2  0  0  0
 23 24  1  0  0  0
 24 25  2  0  0  0
 25 26  1  0  0  0
 26 27  2  0  0  0
 15 17  1  0  0  0
 17  1  1  0  0  0
  1  2  1  0  0  0
  2  3  2  0  0  0
  3  6  1  0  0  0
  6  7  2  0  0  0
  7  8  1  0  0  0
  8  9  2  0  0  0
  9 10  1  0  0  0
  9 11  1  0  0  0
 11 12  1  0  0  0
 11 13  2  0  0  0
  3  4  1  0  0  0
  4  5  1  0  0  0
  5 28  1  0  0  0
 28 29  2  0  0  0
 28 30  1  0  0  0
 27 22  1  0  0  0
  5  1  2  0  0  0
 13  6  1  0  0  0
 16 18  1  0  0  0
 17 19  1  0  0  0
 30 31  1  0  0  0
M  END
> <score>
-0.565669

> <minimizedAffinity>
-7.48907

> <CNNscore>
0.5944637656

> <CNNaffinity>
6.2447147369

> <CNN_VS>
3.7122566700

$$$$
HIPS408


 31 33  0  0  0  0  0  0  0  0999 V2000
   69.5578   78.5791   90.9432 C   0  0  0  0  0  0  0  0  0  0  0  0
   69.1039   79.7474   90.3035 C   0  0  0  0  0  0  0  0  0  0  0  0
   70.1273   80.5858   89.8655 C   0  0  0  0  0  0  0  0  0  0  0  0
   71.5933   79.8683   90.2864 S   0  0  0  0  0  0  0  0  0  0  0  0
   70.9526   78.4961   91.0177 C   0  0  0  0  0  0  0  0  0  0  0  0
   69.9667   81.8955   89.1848 C   0  0  0  0  0  0  0  0  0  0  0  0
   70.9955   82.8556   89.2119 C   0  0  0  0  0  0  0  0  0  0  0  0
   70.8405   84.0806   88.5587 C   0  0  0  0  0  0  0  0  0  0  0  0
   69.6580   84.3716   87.8733 C   0  0  0  0  0  0  0  0  0  0  0  0
   69.5021   85.9248   87.0639 Cl  0  0  0  0  0  0  0  0  0  0  0  0
   68.6201   83.4269   87.8447 C   0  0  0  0  0  0  0  0  0  0  0  0
   67.1154   83.7533   86.9948 Cl  0  0  0  0  0  0  0  0  0  0  0  0
   68.7764   82.1988   88.4985 C   0  0  0  0  0  0  0  0  0  0  0  0
   69.6652   75.6993   90.7048 O   0  0  0  0  0  0  0  0  0  0  0  0
   68.6489   76.2403   91.2202 C   0  0  0  0  0  0  0  0  0  0  0  0
   67.4723   75.4622   91.4767 N   0  0  0  0  0  0  0  0  0  0  0  0
   68.6683   77.6332   91.5603 N   0  0  0  0  0  0  0  0  0  0  0  0
   66.7986   75.8122   92.1035 H   0  0  0  0  0  0  0  0  0  0  0  0
   68.0433   77.9570   92.2487 H   0  0  0  0  0  0  0  0  0  0  0  0
   67.2378   74.1666   90.8396 C   0  0  0  0  0  0  0  0  0  0  0  0
   67.6064   73.0198   91.7878 C   0  0  0  0  0  0  0  0  0  0  0  0
   67.4309   73.4071   93.2350 C   0  0  0  0  0  0  0  0  0  0  0  0
   66.1464   73.6280   93.7617 C   0  0  0  0  0  0  0  0  0  0  0  0
   65.9856   73.9679   95.1085 C   0  0  0  0  0  0  0  0  0  0  0  0
   67.1026   74.0812   95.9406 C   0  0  0  0  0  0  0  0  0  0  0  0
   68.3817   73.8467   95.4289 C   0  0  0  0  0  0  0  0  0  0  0  0
   68.5475   73.5097   94.0815 C   0  0  0  0  0  0  0  0  0  0  0  0
   71.7715   77.4104   91.5830 C   0  0  0  0  0  0  0  0  0  0  0  0
   72.7619   76.9527   90.9539 O   0  0  0  0  0  0  0  0  0  0  0  0
   71.4618   76.8998   92.8398 O   0  0  0  0  0  0  0  0  0  0  0  0
   70.7265   77.2355   93.3137 H   0  0  0  0  0  0  0  0  0  0  0  0
 14 15  2  0  0  0
 15 16  1  0  0  0
 16 20  1  0  0  0
 20 21  1  0  0  0
 21 22  1  0  0  0
 22 23  2  0  0  0
 23 24  1  0  0  0
 24 25  2  0  0  0
 25 26  1  0  0  0
 26 27  2  0  0  0
 15 17  1  0  0  0
 17  1  1  0  0  0
  1  2  1  0  0  0
  2  3  2  0  0  0
  3  6  1  0  0  0
  6  7  2  0  0  0
  7  8  1  0  0  0
  8  9  2  0  0  0
  9 10  1  0  0  0
  9 11  1  0  0  0
 11 12  1  0  0  0
 11 13  2  0  0  0
  3  4  1  0  0  0
  4  5  1  0  0  0
  5 28  1  0  0  0
 28 29  2  0  0  0
 28 30  1  0  0  0
 27 22  1  0  0  0
  5  1  2  0  0  0
 13  6  1  0  0  0
 16 18  1  0  0  0
 17 19  1  0  0  0
 30 31  1  0  0  0
M  END
> <score>
-0.565669

> <minimizedAffinity>
-6.84236

> <CNNscore>
0.5417175889

> <CNNaffinity>
6.0684194565

> <CNN_VS>
3.2873694897

$$$$
HIPS410


 30 31  0  0  0  0  0  0  0  0999 V2000
   69.2252   78.0936   90.5636 C   0  0  0  0  0  0  0  0  0  0  0  0
   68.8076   79.3510   90.0901 C   0  0  0  0  0  0  0  0  0  0  0  0
   69.8384   80.2842   89.9831 C   0  0  0  0  0  0  0  0  0  0  0  0
   71.2601   79.5357   90.4962 S   0  0  0  0  0  0  0  0  0  0  0  0
   70.5923   78.0335   90.8502 C   0  0  0  0  0  0  0  0  0  0  0  0
   67.1953   75.5840   92.5053 N   0  0  0  0  0  0  0  0  0  0  0  0
   67.6106   76.8812   92.0603 C   0  0  0  0  0  0  0  0  0  0  0  0
   67.3601   77.9018   92.7579 O   0  0  0  0  0  0  0  0  0  0  0  0
   68.3075   77.0180   90.8158 N   0  0  0  0  0  0  0  0  0  0  0  0
   67.1000   74.8629   91.8419 H   0  0  0  0  0  0  0  0  0  0  0  0
   68.1517   76.3511   90.1086 H   0  0  0  0  0  0  0  0  0  0  0  0
   66.9077   75.2925   93.9099 C   0  0  0  0  0  0  0  0  0  0  0  0
   67.4004   73.8881   94.2902 C   0  0  0  0  0  0  0  0  0  0  0  0
   68.5367   73.3488   93.3976 C   0  0  0  0  0  0  0  0  0  0  0  0
   68.1031   72.3033   92.3544 C   0  0  0  0  0  0  0  0  0  0  0  0
   67.8168   73.1001   89.9774 C   0  0  0  0  0  0  0  0  0  0  0  0
   68.7846   72.5000   90.9933 C   0  0  0  0  0  0  0  0  0  0  0  0
   69.7164   81.6928   89.5263 C   0  0  0  0  0  0  0  0  0  0  0  0
   68.4475   82.2667   89.3324 C   0  0  0  0  0  0  0  0  0  0  0  0
   68.3253   83.5880   88.8999 C   0  0  0  0  0  0  0  0  0  0  0  0
   69.4637   84.3572   88.6572 C   0  0  0  0  0  0  0  0  0  0  0  0
   70.7447   83.8117   88.8481 C   0  0  0  0  0  0  0  0  0  0  0  0
   70.8609   82.4792   89.2845 C   0  0  0  0  0  0  0  0  0  0  0  0
   71.9225   84.6035   88.6044 N   0  0  0  0  0  0  0  0  0  0  0  0
   71.8484   85.6763   87.9700 O   0  0  0  0  0  0  0  0  0  0  0  0
   73.1517   84.1908   89.0657 O   0  0  0  0  0  0  0  0  0  0  0  0
   71.3706   76.8797   91.3311 C   0  0  0  0  0  0  0  0  0  0  0  0
   72.5882   76.7530   91.0351 O   0  0  0  0  0  0  0  0  0  0  0  0
   70.7585   75.9271   92.1400 O   0  0  0  0  0  0  0  0  0  0  0  0
   69.8529   76.0150   92.3642 H   0  0  0  0  0  0  0  0  0  0  0  0
 16 17  1  0  0  0
 17 15  1  0  0  0
 15 14  1  0  0  0
 14 13  1  0  0  0
 13 12  1  0  0  0
 12  6  1  0  0  0
  6  7  1  0  0  0
  7  8  2  0  0  0
  7  9  1  0  0  0
  9  1  1  0  0  0
  1  2  1  0  0  0
  2  3  2  0  0  0
  3 18  1  0  0  0
 18 19  2  0  0  0
 19 20  1  0  0  0
 20 21  2  0  0  0
 21 22  1  0  0  0
 22 24  1  0  0  0
 24 25  2  0  0  0
 24 26  1  0  0  0
 22 23  2  0  0  0
  3  4  1  0  0  0
  4  5  1  0  0  0
  5 27  1  0  0  0
 27 28  2  0  0  0
 27 29  1  0  0  0
  5  1  2  0  0  0
 23 18  1  0  0  0
  6 10  1  0  0  0
  9 11  1  0  0  0
 29 30  1  0  0  0
M  CHG 1  24   1
M  CHG 1  26  -1
M  END
> <score>
-0.291397

> <minimizedAffinity>
-6.30591

> <CNNscore>
0.4898585677

> <CNNaffinity>
5.9904432297

> <CNN_VS>
2.9344699383

$$$$
HIPS410


 30 31  0  0  0  0  0  0  0  0999 V2000
   69.2866   78.2013   90.5574 C   0  0  0  0  0  0  0  0  0  0  0  0
   68.9838   79.4826   90.0609 C   0  0  0  0  0  0  0  0  0  0  0  0
   70.0906   80.3253   89.9621 C   0  0  0  0  0  0  0  0  0  0  0  0
   71.4356   79.4682   90.5110 S   0  0  0  0  0  0  0  0  0  0  0  0
   70.6386   78.0317   90.8703 C   0  0  0  0  0  0  0  0  0  0  0  0
   67.1100   75.8018   92.4792 N   0  0  0  0  0  0  0  0  0  0  0  0
   67.6324   77.0741   92.0771 C   0  0  0  0  0  0  0  0  0  0  0  0
   67.5207   78.0748   92.8368 O   0  0  0  0  0  0  0  0  0  0  0  0
   68.2781   77.2093   90.8052 N   0  0  0  0  0  0  0  0  0  0  0  0
   66.9100   75.1309   91.7871 H   0  0  0  0  0  0  0  0  0  0  0  0
   68.0213   76.6005   90.0753 H   0  0  0  0  0  0  0  0  0  0  0  0
   66.8631   75.4638   93.8811 C   0  0  0  0  0  0  0  0  0  0  0  0
   66.5670   73.9648   94.0395 C   0  0  0  0  0  0  0  0  0  0  0  0
   67.0613   73.0911   92.8687 C   0  0  0  0  0  0  0  0  0  0  0  0
   68.5531   72.7154   92.9229 C   0  0  0  0  0  0  0  0  0  0  0  0
   68.4995   73.3749   90.4879 C   0  0  0  0  0  0  0  0  0  0  0  0
   69.1602   72.4804   91.5330 C   0  0  0  0  0  0  0  0  0  0  0  0
   70.0946   81.7328   89.4862 C   0  0  0  0  0  0  0  0  0  0  0  0
   71.2770   82.4923   89.5321 C   0  0  0  0  0  0  0  0  0  0  0  0
   71.2873   83.8160   89.0902 C   0  0  0  0  0  0  0  0  0  0  0  0
   70.1222   84.4014   88.5939 C   0  0  0  0  0  0  0  0  0  0  0  0
   68.9272   83.6644   88.5307 C   0  0  0  0  0  0  0  0  0  0  0  0
   68.9237   82.3304   88.9775 C   0  0  0  0  0  0  0  0  0  0  0  0
   67.7236   84.2625   88.0139 N   0  0  0  0  0  0  0  0  0  0  0  0
   67.0217   85.0039   88.7327 O   0  0  0  0  0  0  0  0  0  0  0  0
   67.3246   84.0263   86.7181 O   0  0  0  0  0  0  0  0  0  0  0  0
   71.3093   76.8238   91.3797 C   0  0  0  0  0  0  0  0  0  0  0  0
   70.6749   75.9662   92.0492 O   0  0  0  0  0  0  0  0  0  0  0  0
   72.6568   76.6167   91.1007 O   0  0  0  0  0  0  0  0  0  0  0  0
   73.1350   77.2505   90.6032 H   0  0  0  0  0  0  0  0  0  0  0  0
 16 17  1  0  0  0
 17 15  1  0  0  0
 15 14  1  0  0  0
 14 13  1  0  0  0
 13 12  1  0  0  0
 12  6  1  0  0  0
  6  7  1  0  0  0
  7  8  2  0  0  0
  7  9  1  0  0  0
  9  1  1  0  0  0
  1  2  1  0  0  0
  2  3  2  0  0  0
  3 18  1  0  0  0
 18 19  2  0  0  0
 19 20  1  0  0  0
 20 21  2  0  0  0
 21 22  1  0  0  0
 22 24  1  0  0  0
 24 25  2  0  0  0
 24 26  1  0  0  0
 22 23  2  0  0  0
  3  4  1  0  0  0
  4  5  1  0  0  0
  5 27  1  0  0  0
 27 28  2  0  0  0
 27 29  1  0  0  0
  5  1  2  0  0  0
 23 18  1  0  0  0
  6 10  1  0  0  0
  9 11  1  0  0  0
 29 30  1  0  0  0
M  CHG 1  24   1
M  CHG 1  26  -1
M  END
> <score>
-0.291397

> <minimizedAffinity>
-6.39139

> <CNNscore>
0.4418586791

> <CNNaffinity>
5.9107656479

> <CNN_VS>
2.6117231846

$$$$
HIPS410


 30 31  0  0  0  0  0  0  0  0999 V2000
   69.4268   78.5231   89.8987 C   0  0  0  0  0  0  0  0  0  0  0  0
   68.7037   79.7130   89.6959 C   0  0  0  0  0  0  0  0  0  0  0  0
   69.4670   80.8700   89.8491 C   0  0  0  0  0  0  0  0  0  0  0  0
   71.0351   80.3975   90.2526 S   0  0  0  0  0  0  0  0  0  0  0  0
   70.7677   78.7374   90.2315 C   0  0  0  0  0  0  0  0  0  0  0  0
   68.1194   75.2124   91.1312 N   0  0  0  0  0  0  0  0  0  0  0  0
   68.1913   76.6386   91.0118 C   0  0  0  0  0  0  0  0  0  0  0  0
   67.7077   77.3761   91.9135 O   0  0  0  0  0  0  0  0  0  0  0  0
   68.8098   77.2268   89.8608 N   0  0  0  0  0  0  0  0  0  0  0  0
   68.1943   74.6638   90.3171 H   0  0  0  0  0  0  0  0  0  0  0  0
   68.8119   76.7244   89.0141 H   0  0  0  0  0  0  0  0  0  0  0  0
   67.9386   74.5421   92.4190 C   0  0  0  0  0  0  0  0  0  0  0  0
   69.0070   74.9931   93.4263 C   0  0  0  0  0  0  0  0  0  0  0  0
   68.4836   75.1912   94.8635 C   0  0  0  0  0  0  0  0  0  0  0  0
   68.0087   73.9061   95.5651 C   0  0  0  0  0  0  0  0  0  0  0  0
   65.8485   75.2078   95.4839 C   0  0  0  0  0  0  0  0  0  0  0  0
   66.4832   73.8405   95.7217 C   0  0  0  0  0  0  0  0  0  0  0  0
   68.9924   82.2711   89.7106 C   0  0  0  0  0  0  0  0  0  0  0  0
   67.8401   82.6990   90.3934 C   0  0  0  0  0  0  0  0  0  0  0  0
   67.3864   84.0125   90.2652 C   0  0  0  0  0  0  0  0  0  0  0  0
   68.0743   84.9190   89.4580 C   0  0  0  0  0  0  0  0  0  0  0  0
   69.2323   84.5209   88.7684 C   0  0  0  0  0  0  0  0  0  0  0  0
   69.6845   83.1954   88.9023 C   0  0  0  0  0  0  0  0  0  0  0  0
   69.9488   85.4545   87.9387 N   0  0  0  0  0  0  0  0  0  0  0  0
   69.5827   85.6750   86.7655 O   0  0  0  0  0  0  0  0  0  0  0  0
   71.0514   86.1199   88.4242 O   0  0  0  0  0  0  0  0  0  0  0  0
   71.8141   77.7321   90.4821 C   0  0  0  0  0  0  0  0  0  0  0  0
   71.7218   76.9309   91.4495 O   0  0  0  0  0  0  0  0  0  0  0  0
   72.9093   77.6526   89.6274 O   0  0  0  0  0  0  0  0  0  0  0  0
   72.9844   78.2454   88.9058 H   0  0  0  0  0  0  0  0  0  0  0  0
 16 17  1  0  0  0
 17 15  1  0  0  0
 15 14  1  0  0  0
 14 13  1  0  0  0
 13 12  1  0  0  0
 12  6  1  0  0  0
  6  7  1  0  0  0
  7  8  2  0  0  0
  7  9  1  0  0  0
  9  1  1  0  0  0
  1  2  1  0  0  0
  2  3  2  0  0  0
  3 18  1  0  0  0
 18 19  2  0  0  0
 19 20  1  0  0  0
 20 21  2  0  0  0
 21 22  1  0  0  0
 22 24  1  0  0  0
 24 25  2  0  0  0
 24 26  1  0  0  0
 22 23  2  0  0  0
  3  4  1  0  0  0
  4  5  1  0  0  0
  5 27  1  0  0  0
 27 28  2  0  0  0
 27 29  1  0  0  0
  5  1  2  0  0  0
 23 18  1  0  0  0
  6 10  1  0  0  0
  9 11  1  0  0  0
 29 30  1  0  0  0
M  CHG 1  24   1
M  CHG 1  26  -1
M  END
> <score>
-0.291397

> <minimizedAffinity>
-6.05423

> <CNNscore>
0.2626232505

> <CNNaffinity>
5.7139034271

> <CNN_VS>
1.5006039143

$$$$
HIPS412


 29 30  0  0  0  0  0  0  0  0999 V2000
   69.2445   78.5312   90.6794 C   0  0  0  0  0  0  0  0  0  0  0  0
   68.8964   79.8101   90.2135 C   0  0  0  0  0  0  0  0  0  0  0  0
   69.9879   80.6246   89.9385 C   0  0  0  0  0  0  0  0  0  0  0  0
   71.3890   79.7460   90.2545 S   0  0  0  0  0  0  0  0  0  0  0  0
   70.6267   78.3341   90.7679 C   0  0  0  0  0  0  0  0  0  0  0  0
   69.9348   81.9633   89.3117 C   0  0  0  0  0  0  0  0  0  0  0  0
   68.8054   82.3120   88.5499 C   0  0  0  0  0  0  0  0  0  0  0  0
   68.6939   83.5855   87.9840 C   0  0  0  0  0  0  0  0  0  0  0  0
   67.2700   84.0099   87.0518 Cl  0  0  0  0  0  0  0  0  0  0  0  0
   69.7128   84.5223   88.1668 C   0  0  0  0  0  0  0  0  0  0  0  0
   70.8474   84.1852   88.9062 C   0  0  0  0  0  0  0  0  0  0  0  0
   70.9706   82.9128   89.4777 C   0  0  0  0  0  0  0  0  0  0  0  0
   72.4707   82.5342   90.3195 Cl  0  0  0  0  0  0  0  0  0  0  0  0
   67.5793   75.2056   90.2127 N   0  0  0  0  0  0  0  0  0  0  0  0
   67.9392   76.5453   89.8510 C   0  0  0  0  0  0  0  0  0  0  0  0
   67.9707   76.8914   88.6384 O   0  0  0  0  0  0  0  0  0  0  0  0
   68.2740   77.4903   90.8750 N   0  0  0  0  0  0  0  0  0  0  0  0
   67.4806   74.9872   91.1676 H   0  0  0  0  0  0  0  0  0  0  0  0
   67.8212   77.4235   91.7467 H   0  0  0  0  0  0  0  0  0  0  0  0
   67.3522   74.1491   89.2284 C   0  0  0  0  0  0  0  0  0  0  0  0
   67.7160   72.7687   89.7963 C   0  0  0  0  0  0  0  0  0  0  0  0
   68.7411   72.8257   90.9478 C   0  0  0  0  0  0  0  0  0  0  0  0
   68.3282   71.9655   92.1519 C   0  0  0  0  0  0  0  0  0  0  0  0
   70.7567   71.6387   92.7765 C   0  0  0  0  0  0  0  0  0  0  0  0
   69.4237   70.9484   92.4998 C   0  0  0  0  0  0  0  0  0  0  0  0
   71.3390   77.1334   91.2363 C   0  0  0  0  0  0  0  0  0  0  0  0
   70.7083   76.2340   91.8535 O   0  0  0  0  0  0  0  0  0  0  0  0
   72.6961   76.9656   90.9808 O   0  0  0  0  0  0  0  0  0  0  0  0
   73.1721   77.6299   90.5224 H   0  0  0  0  0  0  0  0  0  0  0  0
 24 25  1  0  0  0
 25 23  1  0  0  0
 23 22  1  0  0  0
 22 21  1  0  0  0
 21 20  1  0  0  0
 20 14  1  0  0  0
 14 15  1  0  0  0
 15 16  2  0  0  0
 15 17  1  0  0  0
 17  1  1  0  0  0
  1  2  1  0  0  0
  2  3  2  0  0  0
  3  6  1  0  0  0
  6  7  2  0  0  0
  7  8  1  0  0  0
  8  9  1  0  0  0
  8 10  2  0  0  0
 10 11  1  0  0  0
 11 12  2  0  0  0
 12 13  1  0  0  0
  3  4  1  0  0  0
  4  5  1  0  0  0
  5 26  1  0  0  0
 26 27  2  0  0  0
 26 28  1  0  0  0
  5  1  2  0  0  0
 12  6  1  0  0  0
 14 18  1  0  0  0
 17 19  1  0  0  0
 28 29  1  0  0  0
M  END
> <score>
-0.60433

> <minimizedAffinity>
-6.33828

> <CNNscore>
0.6928596497

> <CNNaffinity>
6.2419176102

> <CNN_VS>
4.3247728348

$$$$
HIPS412


 29 30  0  0  0  0  0  0  0  0999 V2000
   68.5958   77.4914   91.2073 C   0  0  0  0  0  0  0  0  0  0  0  0
   67.8644   78.4857   90.5362 C   0  0  0  0  0  0  0  0  0  0  0  0
   68.6553   79.4651   89.9483 C   0  0  0  0  0  0  0  0  0  0  0  0
   70.2679   79.0828   90.2447 S   0  0  0  0  0  0  0  0  0  0  0  0
   69.9795   77.6871   91.1431 C   0  0  0  0  0  0  0  0  0  0  0  0
   68.1768   80.5534   89.0682 C   0  0  0  0  0  0  0  0  0  0  0  0
   68.4821   81.8838   89.4061 C   0  0  0  0  0  0  0  0  0  0  0  0
   68.0924   82.9372   88.5738 C   0  0  0  0  0  0  0  0  0  0  0  0
   68.4974   84.5894   89.0013 Cl  0  0  0  0  0  0  0  0  0  0  0  0
   67.3869   82.6737   87.3982 C   0  0  0  0  0  0  0  0  0  0  0  0
   67.0618   81.3597   87.0581 C   0  0  0  0  0  0  0  0  0  0  0  0
   67.4465   80.2963   87.8839 C   0  0  0  0  0  0  0  0  0  0  0  0
   66.9214   78.6768   87.4327 Cl  0  0  0  0  0  0  0  0  0  0  0  0
   68.1467   73.8509   91.9786 N   0  0  0  0  0  0  0  0  0  0  0  0
   68.1257   75.0197   91.1487 C   0  0  0  0  0  0  0  0  0  0  0  0
   68.2446   74.9150   89.8973 O   0  0  0  0  0  0  0  0  0  0  0  0
   67.9790   76.3127   91.7492 N   0  0  0  0  0  0  0  0  0  0  0  0
   67.9670   73.9547   92.9410 H   0  0  0  0  0  0  0  0  0  0  0  0
   67.4341   76.3963   92.5649 H   0  0  0  0  0  0  0  0  0  0  0  0
   68.4226   72.5120   91.4609 C   0  0  0  0  0  0  0  0  0  0  0  0
   69.4610   71.7815   92.3260 C   0  0  0  0  0  0  0  0  0  0  0  0
   69.4782   70.2538   92.1115 C   0  0  0  0  0  0  0  0  0  0  0  0
   70.8130   69.7504   91.5413 C   0  0  0  0  0  0  0  0  0  0  0  0
   70.1551   68.3183   89.5638 C   0  0  0  0  0  0  0  0  0  0  0  0
   70.6731   68.3212   90.9996 C   0  0  0  0  0  0  0  0  0  0  0  0
   71.0369   76.8611   91.7498 C   0  0  0  0  0  0  0  0  0  0  0  0
   72.1849   76.8359   91.2308 O   0  0  0  0  0  0  0  0  0  0  0  0
   70.7926   76.1291   92.9072 O   0  0  0  0  0  0  0  0  0  0  0  0
   69.9416   76.1427   93.2992 H   0  0  0  0  0  0  0  0  0  0  0  0
 24 25  1  0  0  0
 25 23  1  0  0  0
 23 22  1  0  0  0
 22 21  1  0  0  0
 21 20  1  0  0  0
 20 14  1  0  0  0
 14 15  1  0  0  0
 15 16  2  0  0  0
 15 17  1  0  0  0
 17  1  1  0  0  0
  1  2  1  0  0  0
  2  3  2  0  0  0
  3  6  1  0  0  0
  6  7  2  0  0  0
  7  8  1  0  0  0
  8  9  1  0  0  0
  8 10  2  0  0  0
 10 11  1  0  0  0
 11 12  2  0  0  0
 12 13  1  0  0  0
  3  4  1  0  0  0
  4  5  1  0  0  0
  5 26  1  0  0  0
 26 27  2  0  0  0
 26 28  1  0  0  0
  5  1  2  0  0  0
 12  6  1  0  0  0
 14 18  1  0  0  0
 17 19  1  0  0  0
 28 29  1  0  0  0
M  END
> <score>
-0.60433

> <minimizedAffinity>
-5.84893

> <CNNscore>
0.4742947817

> <CNNaffinity>
5.9359560013

> <CNN_VS>
2.8153929710

$$$$
HIPS412


 29 30  0  0  0  0  0  0  0  0999 V2000
   69.7491   79.0011   90.1647 C   0  0  0  0  0  0  0  0  0  0  0  0
   69.1227   80.2482   90.0035 C   0  0  0  0  0  0  0  0  0  0  0  0
   70.0032   81.3230   89.9961 C   0  0  0  0  0  0  0  0  0  0  0  0
   71.5657   80.7200   90.1688 S   0  0  0  0  0  0  0  0  0  0  0  0
   71.1401   79.0938   90.2810 C   0  0  0  0  0  0  0  0  0  0  0  0
   69.6509   82.7308   89.7102 C   0  0  0  0  0  0  0  0  0  0  0  0
   69.3764   83.1059   88.3831 C   0  0  0  0  0  0  0  0  0  0  0  0
   68.9899   84.4144   88.0785 C   0  0  0  0  0  0  0  0  0  0  0  0
   68.6335   84.8607   86.4200 Cl  0  0  0  0  0  0  0  0  0  0  0  0
   68.8804   85.3645   89.0956 C   0  0  0  0  0  0  0  0  0  0  0  0
   69.1660   85.0115   90.4153 C   0  0  0  0  0  0  0  0  0  0  0  0
   69.5543   83.7041   90.7326 C   0  0  0  0  0  0  0  0  0  0  0  0
   69.9841   83.3601   92.4057 Cl  0  0  0  0  0  0  0  0  0  0  0  0
   67.4773   76.1938   91.1691 N   0  0  0  0  0  0  0  0  0  0  0  0
   68.6901   76.9582   91.1840 C   0  0  0  0  0  0  0  0  0  0  0  0
   69.4452   76.9356   92.1941 O   0  0  0  0  0  0  0  0  0  0  0  0
   69.0373   77.7588   90.0473 N   0  0  0  0  0  0  0  0  0  0  0  0
   66.9515   76.1633   90.3374 H   0  0  0  0  0  0  0  0  0  0  0  0
   68.7779   77.4452   89.1508 H   0  0  0  0  0  0  0  0  0  0  0  0
   66.9860   75.4577   92.3325 C   0  0  0  0  0  0  0  0  0  0  0  0
   67.4803   74.0031   92.3230 C   0  0  0  0  0  0  0  0  0  0  0  0
   66.8057   73.1150   93.3888 C   0  0  0  0  0  0  0  0  0  0  0  0
   66.0429   73.9309   94.4437 C   0  0  0  0  0  0  0  0  0  0  0  0
   66.3542   74.9574   96.7337 C   0  0  0  0  0  0  0  0  0  0  0  0
   66.6867   73.7744   95.8281 C   0  0  0  0  0  0  0  0  0  0  0  0
   72.1038   77.9991   90.4843 C   0  0  0  0  0  0  0  0  0  0  0  0
   72.8739   77.6625   89.5455 O   0  0  0  0  0  0  0  0  0  0  0  0
   72.1948   77.3493   91.7109 O   0  0  0  0  0  0  0  0  0  0  0  0
   71.6256   77.5938   92.4139 H   0  0  0  0  0  0  0  0  0  0  0  0
 24 25  1  0  0  0
 25 23  1  0  0  0
 23 22  1  0  0  0
 22 21  1  0  0  0
 21 20  1  0  0  0
 20 14  1  0  0  0
 14 15  1  0  0  0
 15 16  2  0  0  0
 15 17  1  0  0  0
 17  1  1  0  0  0
  1  2  1  0  0  0
  2  3  2  0  0  0
  3  6  1  0  0  0
  6  7  2  0  0  0
  7  8  1  0  0  0
  8  9  1  0  0  0
  8 10  2  0  0  0
 10 11  1  0  0  0
 11 12  2  0  0  0
 12 13  1  0  0  0
  3  4  1  0  0  0
  4  5  1  0  0  0
  5 26  1  0  0  0
 26 27  2  0  0  0
 26 28  1  0  0  0
  5  1  2  0  0  0
 12  6  1  0  0  0
 14 18  1  0  0  0
 17 19  1  0  0  0
 28 29  1  0  0  0
M  END
> <score>
-0.60433

> <minimizedAffinity>
-6.15914

> <CNNscore>
0.4034531713

> <CNNaffinity>
5.7300567627

> <CNN_VS>
2.3118095398

$$$$
HIPS414


 31 32  0  0  0  0  0  0  0  0999 V2000
   68.9115   77.9532   90.8287 C   0  0  0  0  0  0  0  0  0  0  0  0
   68.4574   79.1372   90.2195 C   0  0  0  0  0  0  0  0  0  0  0  0
   69.4684   80.0569   89.9361 C   0  0  0  0  0  0  0  0  0  0  0  0
   70.9258   79.3775   90.4483 S   0  0  0  0  0  0  0  0  0  0  0  0
   70.2942   77.9302   91.0319 C   0  0  0  0  0  0  0  0  0  0  0  0
   67.4728   75.4707   93.2291 N   0  0  0  0  0  0  0  0  0  0  0  0
   67.7006   76.7806   92.6937 C   0  0  0  0  0  0  0  0  0  0  0  0
   67.6469   77.7938   93.4445 O   0  0  0  0  0  0  0  0  0  0  0  0
   68.0145   76.9366   91.3047 N   0  0  0  0  0  0  0  0  0  0  0  0
   67.3258   74.7250   92.6034 H   0  0  0  0  0  0  0  0  0  0  0  0
   67.6008   76.3256   90.6530 H   0  0  0  0  0  0  0  0  0  0  0  0
   67.4494   75.1945   94.6657 C   0  0  0  0  0  0  0  0  0  0  0  0
   68.5944   74.2500   95.0617 C   0  0  0  0  0  0  0  0  0  0  0  0
   68.9419   73.2582   93.9389 C   0  0  0  0  0  0  0  0  0  0  0  0
   70.3254   72.6080   94.1139 C   0  0  0  0  0  0  0  0  0  0  0  0
   71.0686   70.1945   94.5639 C   0  0  0  0  0  0  0  0  0  0  0  0
   70.4306   71.1698   93.5690 C   0  0  0  0  0  0  0  0  0  0  0  0
   69.3027   81.4088   89.3343 C   0  0  0  0  0  0  0  0  0  0  0  0
   68.0297   81.8534   88.9345 C   0  0  0  0  0  0  0  0  0  0  0  0
   67.8688   83.1089   88.3466 C   0  0  0  0  0  0  0  0  0  0  0  0
   68.9701   83.9446   88.1573 C   0  0  0  0  0  0  0  0  0  0  0  0
   70.2482   83.5387   88.5720 C   0  0  0  0  0  0  0  0  0  0  0  0
   70.4090   82.2632   89.1382 C   0  0  0  0  0  0  0  0  0  0  0  0
   71.4539   84.4130   88.3303 C   0  0  0  0  0  0  0  0  0  0  0  0
   71.2172   85.7096   88.7496 F   0  0  0  0  0  0  0  0  0  0  0  0
   72.5499   83.9278   89.0242 F   0  0  0  0  0  0  0  0  0  0  0  0
   71.7450   84.4233   86.9795 F   0  0  0  0  0  0  0  0  0  0  0  0
   71.1062   76.8435   91.6084 C   0  0  0  0  0  0  0  0  0  0  0  0
   70.6635   75.6630   91.6027 O   0  0  0  0  0  0  0  0  0  0  0  0
   72.3464   77.1077   92.1837 O   0  0  0  0  0  0  0  0  0  0  0  0
   72.6822   77.9824   92.1919 H   0  0  0  0  0  0  0  0  0  0  0  0
 16 17  1  0  0  0
 17 15  1  0  0  0
 15 14  1  0  0  0
 14 13  1  0  0  0
 13 12  1  0  0  0
 12  6  1  0  0  0
  6  7  1  0  0  0
  7  8  2  0  0  0
  7  9  1  0  0  0
  9  1  1  0  0  0
  1  2  1  0  0  0
  2  3  2  0  0  0
  3 18  1  0  0  0
 18 19  2  0  0  0
 19 20  1  0  0  0
 20 21  2  0  0  0
 21 22  1  0  0  0
 22 24  1  0  0  0
 24 25  1  0  0  0
 24 26  1  0  0  0
 24 27  1  0  0  0
 22 23  2  0  0  0
  3  4  1  0  0  0
  4  5  1  0  0  0
  5 28  1  0  0  0
 28 29  2  0  0  0
 28 30  1  0  0  0
  5  1  2  0  0  0
 23 18  1  0  0  0
  6 10  1  0  0  0
  9 11  1  0  0  0
 30 31  1  0  0  0
M  END
> <score>
-0.287427

> <minimizedAffinity>
-6.39485

> <CNNscore>
0.7165118456

> <CNNaffinity>
6.0624561310

> <CNN_VS>
4.3438215256

$$$$
HIPS414


 31 32  0  0  0  0  0  0  0  0999 V2000
   69.6090   77.4443   91.7150 C   0  0  0  0  0  0  0  0  0  0  0  0
   68.6039   78.1286   91.0074 C   0  0  0  0  0  0  0  0  0  0  0  0
   69.0874   79.0623   90.0895 C   0  0  0  0  0  0  0  0  0  0  0  0
   70.7726   79.0209   90.1688 S   0  0  0  0  0  0  0  0  0  0  0  0
   70.9023   77.8363   91.3578 C   0  0  0  0  0  0  0  0  0  0  0  0
   68.5243   74.2433   93.3186 N   0  0  0  0  0  0  0  0  0  0  0  0
   69.4383   75.1119   92.6372 C   0  0  0  0  0  0  0  0  0  0  0  0
   70.3368   74.6324   91.8915 O   0  0  0  0  0  0  0  0  0  0  0  0
   69.3150   76.5314   92.7850 N   0  0  0  0  0  0  0  0  0  0  0  0
   67.9660   74.6176   94.0379 H   0  0  0  0  0  0  0  0  0  0  0  0
   69.0182   76.8945   93.6507 H   0  0  0  0  0  0  0  0  0  0  0  0
   68.3854   72.8241   92.9909 C   0  0  0  0  0  0  0  0  0  0  0  0
   67.3953   72.6224   91.8338 C   0  0  0  0  0  0  0  0  0  0  0  0
   68.1060   72.5243   90.4735 C   0  0  0  0  0  0  0  0  0  0  0  0
   67.4543   73.3973   89.3870 C   0  0  0  0  0  0  0  0  0  0  0  0
   67.0920   75.7610   88.4588 C   0  0  0  0  0  0  0  0  0  0  0  0
   67.5085   74.9126   89.6650 C   0  0  0  0  0  0  0  0  0  0  0  0
   68.2790   79.9660   89.2252 C   0  0  0  0  0  0  0  0  0  0  0  0
   67.0910   79.5015   88.6327 C   0  0  0  0  0  0  0  0  0  0  0  0
   66.3403   80.3337   87.8011 C   0  0  0  0  0  0  0  0  0  0  0  0
   66.7546   81.6432   87.5550 C   0  0  0  0  0  0  0  0  0  0  0  0
   67.9210   82.1427   88.1551 C   0  0  0  0  0  0  0  0  0  0  0  0
   68.6876   81.2927   88.9694 C   0  0  0  0  0  0  0  0  0  0  0  0
   68.4050   83.5410   87.8599 C   0  0  0  0  0  0  0  0  0  0  0  0
   69.5671   83.5147   87.1104 F   0  0  0  0  0  0  0  0  0  0  0  0
   67.4474   84.2438   87.1476 F   0  0  0  0  0  0  0  0  0  0  0  0
   68.6524   84.1978   89.0503 F   0  0  0  0  0  0  0  0  0  0  0  0
   72.1808   77.3093   91.8678 C   0  0  0  0  0  0  0  0  0  0  0  0
   72.4459   77.3960   93.0974 O   0  0  0  0  0  0  0  0  0  0  0  0
   73.1127   76.7394   91.0044 O   0  0  0  0  0  0  0  0  0  0  0  0
   72.9232   76.6713   90.0892 H   0  0  0  0  0  0  0  0  0  0  0  0
 16 17  1  0  0  0
 17 15  1  0  0  0
 15 14  1  0  0  0
 14 13  1  0  0  0
 13 12  1  0  0  0
 12  6  1  0  0  0
  6  7  1  0  0  0
  7  8  2  0  0  0
  7  9  1  0  0  0
  9  1  1  0  0  0
  1  2  1  0  0  0
  2  3  2  0  0  0
  3 18  1  0  0  0
 18 19  2  0  0  0
 19 20  1  0  0  0
 20 21  2  0  0  0
 21 22  1  0  0  0
 22 24  1  0  0  0
 24 25  1  0  0  0
 24 26  1  0  0  0
 24 27  1  0  0  0
 22 23  2  0  0  0
  3  4  1  0  0  0
  4  5  1  0  0  0
  5 28  1  0  0  0
 28 29  2  0  0  0
 28 30  1  0  0  0
  5  1  2  0  0  0
 23 18  1  0  0  0
  6 10  1  0  0  0
  9 11  1  0  0  0
 30 31  1  0  0  0
M  END
> <score>
-0.287427

> <minimizedAffinity>
-6.54884

> <CNNscore>
0.7034460902

> <CNNaffinity>
6.4740552902

> <CNN_VS>
4.5541486740

$$$$
HIPS414


 31 32  0  0  0  0  0  0  0  0999 V2000
   68.3959   78.1861   90.8689 C   0  0  0  0  0  0  0  0  0  0  0  0
   68.3730   79.5198   90.4220 C   0  0  0  0  0  0  0  0  0  0  0  0
   69.6344   80.0520   90.1504 C   0  0  0  0  0  0  0  0  0  0  0  0
   70.7699   78.8451   90.4691 S   0  0  0  0  0  0  0  0  0  0  0  0
   69.6850   77.6526   90.9538 C   0  0  0  0  0  0  0  0  0  0  0  0
   66.2350   76.1623   93.1557 N   0  0  0  0  0  0  0  0  0  0  0  0
   66.8868   77.3544   92.6994 C   0  0  0  0  0  0  0  0  0  0  0  0
   67.1926   78.2661   93.5171 O   0  0  0  0  0  0  0  0  0  0  0  0
   67.2138   77.4999   91.3123 N   0  0  0  0  0  0  0  0  0  0  0  0
   65.8334   75.5600   92.4885 H   0  0  0  0  0  0  0  0  0  0  0  0
   66.6069   77.1161   90.6387 H   0  0  0  0  0  0  0  0  0  0  0  0
   66.1409   75.8022   94.5708 C   0  0  0  0  0  0  0  0  0  0  0  0
   66.9839   74.5550   94.8769 C   0  0  0  0  0  0  0  0  0  0  0  0
   68.4854   74.8770   94.9613 C   0  0  0  0  0  0  0  0  0  0  0  0
   69.3658   73.6222   95.0947 C   0  0  0  0  0  0  0  0  0  0  0  0
   70.7330   71.7938   93.9252 C   0  0  0  0  0  0  0  0  0  0  0  0
   69.8871   73.0605   93.7572 C   0  0  0  0  0  0  0  0  0  0  0  0
   69.9410   81.4391   89.7039 C   0  0  0  0  0  0  0  0  0  0  0  0
   68.8990   82.3128   89.3449 C   0  0  0  0  0  0  0  0  0  0  0  0
   69.1786   83.6063   88.9015 C   0  0  0  0  0  0  0  0  0  0  0  0
   70.4979   84.0530   88.8186 C   0  0  0  0  0  0  0  0  0  0  0  0
   71.5565   83.2124   89.1968 C   0  0  0  0  0  0  0  0  0  0  0  0
   71.2715   81.9025   89.6165 C   0  0  0  0  0  0  0  0  0  0  0  0
   72.9894   83.6669   89.0672 C   0  0  0  0  0  0  0  0  0  0  0  0
   73.1357   84.9724   89.5001 F   0  0  0  0  0  0  0  0  0  0  0  0
   73.8222   82.8635   89.8283 F   0  0  0  0  0  0  0  0  0  0  0  0
   73.3742   83.5866   87.7424 F   0  0  0  0  0  0  0  0  0  0  0  0
   70.0751   76.2871   91.3485 C   0  0  0  0  0  0  0  0  0  0  0  0
   71.1298   76.1073   92.0155 O   0  0  0  0  0  0  0  0  0  0  0  0
   69.3068   75.1887   90.9717 O   0  0  0  0  0  0  0  0  0  0  0  0
   68.5217   75.3140   90.4759 H   0  0  0  0  0  0  0  0  0  0  0  0
 16 17  1  0  0  0
 17 15  1  0  0  0
 15 14  1  0  0  0
 14 13  1  0  0  0
 13 12  1  0  0  0
 12  6  1  0  0  0
  6  7  1  0  0  0
  7  8  2  0  0  0
  7  9  1  0  0  0
  9  1  1  0  0  0
  1  2  1  0  0  0
  2  3  2  0  0  0
  3 18  1  0  0  0
 18 19  2  0  0  0
 19 20  1  0  0  0
 20 21  2  0  0  0
 21 22  1  0  0  0
 22 24  1  0  0  0
 24 25  1  0  0  0
 24 26  1  0  0  0
 24 27  1  0  0  0
 22 23  2  0  0  0
  3  4  1  0  0  0
  4  5  1  0  0  0
  5 28  1  0  0  0
 28 29  2  0  0  0
 28 30  1  0  0  0
  5  1  2  0  0  0
 23 18  1  0  0  0
  6 10  1  0  0  0
  9 11  1  0  0  0
 30 31  1  0  0  0
M  END
> <score>
-0.287427

> <minimizedAffinity>
-6.99554

> <CNNscore>
0.5937957168

> <CNNaffinity>
6.0297670364

> <CNN_VS>
3.5804498196

$$$$
HIPS418


 30 31  0  0  0  0  0  0  0  0999 V2000
   69.4845   78.1919   90.7207 C   0  0  0  0  0  0  0  0  0  0  0  0
   69.0736   79.4603   90.2716 C   0  0  0  0  0  0  0  0  0  0  0  0
   70.1303   80.3351   90.0146 C   0  0  0  0  0  0  0  0  0  0  0  0
   71.5667   79.5124   90.3362 S   0  0  0  0  0  0  0  0  0  0  0  0
   70.8738   78.0551   90.8058 C   0  0  0  0  0  0  0  0  0  0  0  0
   67.1396   75.7276   92.4477 N   0  0  0  0  0  0  0  0  0  0  0  0
   68.1779   76.7017   92.2891 C   0  0  0  0  0  0  0  0  0  0  0  0
   68.7706   77.1625   93.3030 O   0  0  0  0  0  0  0  0  0  0  0  0
   68.5645   77.1178   90.9716 N   0  0  0  0  0  0  0  0  0  0  0  0
   66.6581   75.4042   91.6523 H   0  0  0  0  0  0  0  0  0  0  0  0
   68.1794   76.6428   90.2000 H   0  0  0  0  0  0  0  0  0  0  0  0
   66.7782   75.2021   93.7649 C   0  0  0  0  0  0  0  0  0  0  0  0
   65.7422   76.0913   94.4735 C   0  0  0  0  0  0  0  0  0  0  0  0
   65.2800   77.3005   93.6359 C   0  0  0  0  0  0  0  0  0  0  0  0
   65.3935   78.6564   94.3653 C   0  0  0  0  0  0  0  0  0  0  0  0
   65.9743   79.7797   92.1524 C   0  0  0  0  0  0  0  0  0  0  0  0
   66.3001   79.6687   93.6417 C   0  0  0  0  0  0  0  0  0  0  0  0
   70.0283   81.7343   89.5262 C   0  0  0  0  0  0  0  0  0  0  0  0
   71.0990   82.6347   89.6756 C   0  0  0  0  0  0  0  0  0  0  0  0
   70.9947   83.9491   89.2116 C   0  0  0  0  0  0  0  0  0  0  0  0
   69.8196   84.3954   88.5857 C   0  0  0  0  0  0  0  0  0  0  0  0
   68.7506   83.4966   88.4312 C   0  0  0  0  0  0  0  0  0  0  0  0
   68.8545   82.1820   88.8943 C   0  0  0  0  0  0  0  0  0  0  0  0
   69.7164   85.7500   88.1099 N   0  0  0  0  0  0  0  0  0  0  0  0
   69.2907   85.9910   86.9611 O   0  0  0  0  0  0  0  0  0  0  0  0
   70.0853   86.8038   88.9144 O   0  0  0  0  0  0  0  0  0  0  0  0
   71.6462   76.8898   91.2692 C   0  0  0  0  0  0  0  0  0  0  0  0
   72.8924   76.8301   91.0968 O   0  0  0  0  0  0  0  0  0  0  0  0
   70.9875   75.8303   91.8855 O   0  0  0  0  0  0  0  0  0  0  0  0
   70.0605   75.8678   92.0171 H   0  0  0  0  0  0  0  0  0  0  0  0
 16 17  1  0  0  0
 17 15  1  0  0  0
 15 14  1  0  0  0
 14 13  1  0  0  0
 13 12  1  0  0  0
 12  6  1  0  0  0
  6  7  1  0  0  0
  7  8  2  0  0  0
  7  9  1  0  0  0
  9  1  1  0  0  0
  1  2  1  0  0  0
  2  3  2  0  0  0
  3 18  1  0  0  0
 18 19  2  0  0  0
 19 20  1  0  0  0
 20 21  2  0  0  0
 21 24  1  0  0  0
 24 25  2  0  0  0
 24 26  1  0  0  0
 21 22  1  0  0  0
 22 23  2  0  0  0
  3  4  1  0  0  0
  4  5  1  0  0  0
  5 27  1  0  0  0
 27 28  2  0  0  0
 27 29  1  0  0  0
  5  1  2  0  0  0
 23 18  1  0  0  0
  6 10  1  0  0  0
  9 11  1  0  0  0
 29 30  1  0  0  0
M  CHG 1  24   1
M  CHG 1  26  -1
M  END
> <score>
-0.526963

> <minimizedAffinity>
-5.91984

> <CNNscore>
0.5073075891

> <CNNaffinity>
6.0393457413

> <CNN_VS>
3.0638058186

$$$$
HIPS418


 30 31  0  0  0  0  0  0  0  0999 V2000
   69.6270   78.4919   90.4126 C   0  0  0  0  0  0  0  0  0  0  0  0
   69.2792   79.7577   89.9066 C   0  0  0  0  0  0  0  0  0  0  0  0
   70.3397   80.6648   89.8839 C   0  0  0  0  0  0  0  0  0  0  0  0
   71.7037   79.8739   90.4815 S   0  0  0  0  0  0  0  0  0  0  0  0
   70.9729   78.3899   90.7787 C   0  0  0  0  0  0  0  0  0  0  0  0
   67.4105   75.5520   89.4135 N   0  0  0  0  0  0  0  0  0  0  0  0
   68.2000   76.7400   89.2803 C   0  0  0  0  0  0  0  0  0  0  0  0
   68.4161   77.2287   88.1376 O   0  0  0  0  0  0  0  0  0  0  0  0
   68.7074   77.3894   90.4547 N   0  0  0  0  0  0  0  0  0  0  0  0
   67.2811   75.1583   90.3065 H   0  0  0  0  0  0  0  0  0  0  0  0
   68.4100   77.0626   91.3345 H   0  0  0  0  0  0  0  0  0  0  0  0
   66.7920   74.9103   88.2528 C   0  0  0  0  0  0  0  0  0  0  0  0
   66.2787   73.4984   88.5829 C   0  0  0  0  0  0  0  0  0  0  0  0
   67.1527   72.3658   88.0079 C   0  0  0  0  0  0  0  0  0  0  0  0
   66.7070   71.8663   86.6168 C   0  0  0  0  0  0  0  0  0  0  0  0
   67.4489   70.5538   84.5617 C   0  0  0  0  0  0  0  0  0  0  0  0
   67.5621   70.7046   86.0786 C   0  0  0  0  0  0  0  0  0  0  0  0
   70.2982   82.0702   89.4044 C   0  0  0  0  0  0  0  0  0  0  0  0
   71.4469   82.8819   89.4369 C   0  0  0  0  0  0  0  0  0  0  0  0
   71.3990   84.2029   88.9823 C   0  0  0  0  0  0  0  0  0  0  0  0
   70.2036   84.7444   88.4826 C   0  0  0  0  0  0  0  0  0  0  0  0
   69.0562   83.9341   88.4450 C   0  0  0  0  0  0  0  0  0  0  0  0
   69.1036   82.6131   88.8988 C   0  0  0  0  0  0  0  0  0  0  0  0
   70.1588   86.1053   88.0160 N   0  0  0  0  0  0  0  0  0  0  0  0
   69.3591   86.4454   87.1194 O   0  0  0  0  0  0  0  0  0  0  0  0
   70.9973   87.0562   88.5515 O   0  0  0  0  0  0  0  0  0  0  0  0
   71.6685   77.2363   91.3744 C   0  0  0  0  0  0  0  0  0  0  0  0
   72.8277   76.9165   90.9998 O   0  0  0  0  0  0  0  0  0  0  0  0
   71.0278   76.4758   92.3477 O   0  0  0  0  0  0  0  0  0  0  0  0
   70.1654   76.7079   92.6312 H   0  0  0  0  0  0  0  0  0  0  0  0
 16 17  1  0  0  0
 17 15  1  0  0  0
 15 14  1  0  0  0
 14 13  1  0  0  0
 13 12  1  0  0  0
 12  6  1  0  0  0
  6  7  1  0  0  0
  7  8  2  0  0  0
  7  9  1  0  0  0
  9  1  1  0  0  0
  1  2  1  0  0  0
  2  3  2  0  0  0
  3 18  1  0  0  0
 18 19  2  0  0  0
 19 20  1  0  0  0
 20 21  2  0  0  0
 21 24  1  0  0  0
 24 25  2  0  0  0
 24 26  1  0  0  0
 21 22  1  0  0  0
 22 23  2  0  0  0
  3  4  1  0  0  0
  4  5  1  0  0  0
  5 27  1  0  0  0
 27 28  2  0  0  0
 27 29  1  0  0  0
  5  1  2  0  0  0
 23 18  1  0  0  0
  6 10  1  0  0  0
  9 11  1  0  0  0
 29 30  1  0  0  0
M  CHG 1  24   1
M  CHG 1  26  -1
M  END
> <score>
-0.526963

> <minimizedAffinity>
-6.31784

> <CNNscore>
0.4673411250

> <CNNaffinity>
5.6530904770

> <CNN_VS>
2.6419217587

$$$$
HIPS418


 30 31  0  0  0  0  0  0  0  0999 V2000
   68.7945   77.4953   91.2754 C   0  0  0  0  0  0  0  0  0  0  0  0
   68.1795   78.5687   90.6054 C   0  0  0  0  0  0  0  0  0  0  0  0
   69.0822   79.4508   90.0096 C   0  0  0  0  0  0  0  0  0  0  0  0
   70.6377   78.8745   90.3122 S   0  0  0  0  0  0  0  0  0  0  0  0
   70.1908   77.5178   91.1977 C   0  0  0  0  0  0  0  0  0  0  0  0
   67.3595   74.0643   92.1253 N   0  0  0  0  0  0  0  0  0  0  0  0
   67.9951   75.0994   91.3659 C   0  0  0  0  0  0  0  0  0  0  0  0
   68.4706   74.8437   90.2257 O   0  0  0  0  0  0  0  0  0  0  0  0
   68.0511   76.4327   91.8928 N   0  0  0  0  0  0  0  0  0  0  0  0
   67.0268   74.2665   93.0296 H   0  0  0  0  0  0  0  0  0  0  0  0
   67.5546   76.6293   92.7198 H   0  0  0  0  0  0  0  0  0  0  0  0
   67.1932   72.7133   91.5879 C   0  0  0  0  0  0  0  0  0  0  0  0
   68.1176   71.7003   92.2845 C   0  0  0  0  0  0  0  0  0  0  0  0
   69.6005   71.8289   91.8825 C   0  0  0  0  0  0  0  0  0  0  0  0
   70.5554   72.1028   93.0642 C   0  0  0  0  0  0  0  0  0  0  0  0
   72.6251   70.8655   93.8898 C   0  0  0  0  0  0  0  0  0  0  0  0
   71.1069   70.8224   93.7174 C   0  0  0  0  0  0  0  0  0  0  0  0
   68.7508   80.6704   89.2289 C   0  0  0  0  0  0  0  0  0  0  0  0
   69.5193   81.8423   89.3530 C   0  0  0  0  0  0  0  0  0  0  0  0
   69.2010   82.9848   88.6132 C   0  0  0  0  0  0  0  0  0  0  0  0
   68.1089   82.9840   87.7305 C   0  0  0  0  0  0  0  0  0  0  0  0
   67.3426   81.8132   87.6015 C   0  0  0  0  0  0  0  0  0  0  0  0
   67.6608   80.6703   88.3404 C   0  0  0  0  0  0  0  0  0  0  0  0
   67.7844   84.1630   86.9712 N   0  0  0  0  0  0  0  0  0  0  0  0
   66.6254   84.6273   86.9797 O   0  0  0  0  0  0  0  0  0  0  0  0
   68.7477   84.7996   86.2224 O   0  0  0  0  0  0  0  0  0  0  0  0
   71.1508   76.5822   91.8078 C   0  0  0  0  0  0  0  0  0  0  0  0
   72.3851   76.8328   91.8107 O   0  0  0  0  0  0  0  0  0  0  0  0
   70.6906   75.3947   92.3685 O   0  0  0  0  0  0  0  0  0  0  0  0
   69.7737   75.2016   92.3699 H   0  0  0  0  0  0  0  0  0  0  0  0
 16 17  1  0  0  0
 17 15  1  0  0  0
 15 14  1  0  0  0
 14 13  1  0  0  0
 13 12  1  0  0  0
 12  6  1  0  0  0
  6  7  1  0  0  0
  7  8  2  0  0  0
  7  9  1  0  0  0
  9  1  1  0  0  0
  1  2  1  0  0  0
  2  3  2  0  0  0
  3 18  1  0  0  0
 18 19  2  0  0  0
 19 20  1  0  0  0
 20 21  2  0  0  0
 21 24  1  0  0  0
 24 25  2  0  0  0
 24 26  1  0  0  0
 21 22  1  0  0  0
 22 23  2  0  0  0
  3  4  1  0  0  0
  4  5  1  0  0  0
  5 27  1  0  0  0
 27 28  2  0  0  0
 27 29  1  0  0  0
  5  1  2  0  0  0
 23 18  1  0  0  0
  6 10  1  0  0  0
  9 11  1  0  0  0
 29 30  1  0  0  0
M  CHG 1  24   1
M  CHG 1  26  -1
M  END
> <score>
-0.526963

> <minimizedAffinity>
-5.90078

> <CNNscore>
0.3993301094

> <CNNaffinity>
5.6544494629

> <CNN_VS>
2.2579920292

$$$$
HIPS422


 33 35  0  0  0  0  0  0  0  0999 V2000
   67.9897   78.7844   90.9798 C   0  0  0  0  0  0  0  0  0  0  0  0
   68.9125   79.5185   90.2123 C   0  0  0  0  0  0  0  0  0  0  0  0
   68.7948   80.9006   90.3639 C   0  0  0  0  0  0  0  0  0  0  0  0
   67.5319   81.1933   91.4421 S   0  0  0  0  0  0  0  0  0  0  0  0
   67.1284   79.5873   91.7330 C   0  0  0  0  0  0  0  0  0  0  0  0
   69.6109   81.9417   89.6887 C   0  0  0  0  0  0  0  0  0  0  0  0
   69.0261   82.7936   88.7342 C   0  0  0  0  0  0  0  0  0  0  0  0
   69.7883   83.7723   88.0924 C   0  0  0  0  0  0  0  0  0  0  0  0
   71.1443   83.9212   88.3934 C   0  0  0  0  0  0  0  0  0  0  0  0
   72.0702   85.1636   87.5621 Cl  0  0  0  0  0  0  0  0  0  0  0  0
   71.7407   83.0835   89.3488 C   0  0  0  0  0  0  0  0  0  0  0  0
   73.4422   83.2443   89.7642 Cl  0  0  0  0  0  0  0  0  0  0  0  0
   70.9760   82.1024   89.9915 C   0  0  0  0  0  0  0  0  0  0  0  0
   68.6911   75.0537   91.5316 N   0  0  0  0  0  0  0  0  0  0  0  0
   68.5930   76.4739   91.7979 C   0  0  0  0  0  0  0  0  0  0  0  0
   69.1154   76.9456   92.8452 O   0  0  0  0  0  0  0  0  0  0  0  0
   67.8829   77.3543   90.9090 N   0  0  0  0  0  0  0  0  0  0  0  0
   67.2983   76.9592   90.2225 H   0  0  0  0  0  0  0  0  0  0  0  0
   68.3625   74.4943   90.2103 C   0  0  0  0  0  0  0  0  0  0  0  0
   68.0869   72.9874   90.3158 C   0  0  0  0  0  0  0  0  0  0  0  0
   66.6698   73.5684   88.2771 C   0  0  0  0  0  0  0  0  0  0  0  0
   67.2702   72.4513   89.1311 C   0  0  0  0  0  0  0  0  0  0  0  0
   69.1306   74.1503   92.6060 C   0  0  0  0  0  0  0  0  0  0  0  0
   68.0815   74.0761   93.6828 C   0  0  0  0  0  0  0  0  0  0  0  0
   68.4492   73.9406   95.0320 C   0  0  0  0  0  0  0  0  0  0  0  0
   67.4687   73.9032   96.0282 C   0  0  0  0  0  0  0  0  0  0  0  0
   66.1176   74.0041   95.6859 C   0  0  0  0  0  0  0  0  0  0  0  0
   65.7440   74.1432   94.3465 C   0  0  0  0  0  0  0  0  0  0  0  0
   66.7211   74.1812   93.3471 C   0  0  0  0  0  0  0  0  0  0  0  0
   66.0831   79.1558   92.6756 C   0  0  0  0  0  0  0  0  0  0  0  0
   64.9583   79.7244   92.6647 O   0  0  0  0  0  0  0  0  0  0  0  0
   66.3313   78.1473   93.6003 O   0  0  0  0  0  0  0  0  0  0  0  0
   67.1650   77.7198   93.6148 H   0  0  0  0  0  0  0  0  0  0  0  0
 21 22  1  0  0  0
 22 20  1  0  0  0
 20 19  1  0  0  0
 19 14  1  0  0  0
 14 23  1  0  0  0
 23 24  1  0  0  0
 24 25  2  0  0  0
 25 26  1  0  0  0
 26 27  2  0  0  0
 27 28  1  0  0  0
 28 29  2  0  0  0
 14 15  1  0  0  0
 15 16  2  0  0  0
 15 17  1  0  0  0
 17  1  1  0  0  0
  1  2  1  0  0  0
  2  3  2  0  0  0
  3  6  1  0  0  0
  6  7  2  0  0  0
  7  8  1  0  0  0
  8  9  2  0  0  0
  9 10  1  0  0  0
  9 11  1  0  0  0
 11 12  1  0  0  0
 11 13  2  0  0  0
  3  4  1  0  0  0
  4  5  1  0  0  0
  5 30  1  0  0  0
 30 31  2  0  0  0
 30 32  1  0  0  0
 29 24  1  0  0  0
  5  1  2  0  0  0
 13  6  1  0  0  0
 17 18  1  0  0  0
 32 33  1  0  0  0
M  END
> <score>
-0.001231

> <minimizedAffinity>
-8.05159

> <CNNscore>
0.3896501064

> <CNNaffinity>
6.4398345947

> <CNN_VS>
2.5092823505

$$$$
HIPS422


 33 35  0  0  0  0  0  0  0  0999 V2000
   68.4555   81.1680   89.4199 C   0  0  0  0  0  0  0  0  0  0  0  0
   69.4220   82.1709   89.6189 C   0  0  0  0  0  0  0  0  0  0  0  0
   69.5360   83.0603   88.5498 C   0  0  0  0  0  0  0  0  0  0  0  0
   68.4410   82.5785   87.3616 S   0  0  0  0  0  0  0  0  0  0  0  0
   67.8097   81.2544   88.1832 C   0  0  0  0  0  0  0  0  0  0  0  0
   70.4642   84.2155   88.4495 C   0  0  0  0  0  0  0  0  0  0  0  0
   71.8382   84.0053   88.2333 C   0  0  0  0  0  0  0  0  0  0  0  0
   72.7175   85.0866   88.1420 C   0  0  0  0  0  0  0  0  0  0  0  0
   72.2424   86.3949   88.2604 C   0  0  0  0  0  0  0  0  0  0  0  0
   73.3816   87.7291   88.1419 Cl  0  0  0  0  0  0  0  0  0  0  0  0
   70.8729   86.6212   88.4692 C   0  0  0  0  0  0  0  0  0  0  0  0
   70.2323   88.2529   88.6139 Cl  0  0  0  0  0  0  0  0  0  0  0  0
   69.9922   85.5367   88.5611 C   0  0  0  0  0  0  0  0  0  0  0  0
   68.6181   77.7395   91.1328 N   0  0  0  0  0  0  0  0  0  0  0  0
   69.0307   78.9044   90.3776 C   0  0  0  0  0  0  0  0  0  0  0  0
   70.1237   78.8793   89.7476 O   0  0  0  0  0  0  0  0  0  0  0  0
   68.2355   80.1031   90.3575 N   0  0  0  0  0  0  0  0  0  0  0  0
   67.5089   80.1973   91.0152 H   0  0  0  0  0  0  0  0  0  0  0  0
   67.2442   77.6003   91.6426 C   0  0  0  0  0  0  0  0  0  0  0  0
   67.0545   78.4352   92.9172 C   0  0  0  0  0  0  0  0  0  0  0  0
   64.8288   78.9760   94.0379 C   0  0  0  0  0  0  0  0  0  0  0  0
   65.9067   77.9188   93.7970 C   0  0  0  0  0  0  0  0  0  0  0  0
   69.5943   76.6708   91.3948 C   0  0  0  0  0  0  0  0  0  0  0  0
   69.2370   75.9416   92.6621 C   0  0  0  0  0  0  0  0  0  0  0  0
   68.5522   74.7158   92.6136 C   0  0  0  0  0  0  0  0  0  0  0  0
   68.2514   74.0305   93.7947 C   0  0  0  0  0  0  0  0  0  0  0  0
   68.6342   74.5609   95.0296 C   0  0  0  0  0  0  0  0  0  0  0  0
   69.3193   75.7776   95.0860 C   0  0  0  0  0  0  0  0  0  0  0  0
   69.6223   76.4661   93.9075 C   0  0  0  0  0  0  0  0  0  0  0  0
   66.7220   80.4055   87.6699 C   0  0  0  0  0  0  0  0  0  0  0  0
   65.6220   80.9276   87.3447 O   0  0  0  0  0  0  0  0  0  0  0  0
   66.8827   79.0280   87.5674 O   0  0  0  0  0  0  0  0  0  0  0  0
   67.6975   78.6322   87.8072 H   0  0  0  0  0  0  0  0  0  0  0  0
 21 22  1  0  0  0
 22 20  1  0  0  0
 20 19  1  0  0  0
 19 14  1  0  0  0
 14 23  1  0  0  0
 23 24  1  0  0  0
 24 25  2  0  0  0
 25 26  1  0  0  0
 26 27  2  0  0  0
 27 28  1  0  0  0
 28 29  2  0  0  0
 14 15  1  0  0  0
 15 16  2  0  0  0
 15 17  1  0  0  0
 17  1  1  0  0  0
  1  2  1  0  0  0
  2  3  2  0  0  0
  3  6  1  0  0  0
  6  7  2  0  0  0
  7  8  1  0  0  0
  8  9  2  0  0  0
  9 10  1  0  0  0
  9 11  1  0  0  0
 11 12  1  0  0  0
 11 13  2  0  0  0
  3  4  1  0  0  0
  4  5  1  0  0  0
  5 30  1  0  0  0
 30 31  2  0  0  0
 30 32  1  0  0  0
 29 24  1  0  0  0
  5  1  2  0  0  0
 13  6  1  0  0  0
 17 18  1  0  0  0
 32 33  1  0  0  0
M  END
> <score>
-0.001231

> <minimizedAffinity>
-7.55048

> <CNNscore>
0.3878284097

> <CNNaffinity>
6.4109001160

> <CNN_VS>
2.4863290787

$$$$
HIPS422


 33 35  0  0  0  0  0  0  0  0999 V2000
   68.2844   76.8229   91.2871 C   0  0  0  0  0  0  0  0  0  0  0  0
   68.6655   78.1736   91.3851 C   0  0  0  0  0  0  0  0  0  0  0  0
   68.8149   78.8057   90.1502 C   0  0  0  0  0  0  0  0  0  0  0  0
   68.4845   77.6699   88.9485 S   0  0  0  0  0  0  0  0  0  0  0  0
   68.1435   76.3783   89.9694 C   0  0  0  0  0  0  0  0  0  0  0  0
   69.2140   80.2171   89.9162 C   0  0  0  0  0  0  0  0  0  0  0  0
   68.2521   81.1748   89.5471 C   0  0  0  0  0  0  0  0  0  0  0  0
   68.6208   82.5029   89.3214 C   0  0  0  0  0  0  0  0  0  0  0  0
   69.9525   82.8998   89.4637 C   0  0  0  0  0  0  0  0  0  0  0  0
   70.3768   84.5806   89.1687 Cl  0  0  0  0  0  0  0  0  0  0  0  0
   70.9229   81.9574   89.8385 C   0  0  0  0  0  0  0  0  0  0  0  0
   72.6087   82.4176   90.0382 Cl  0  0  0  0  0  0  0  0  0  0  0  0
   70.5526   80.6261   90.0640 C   0  0  0  0  0  0  0  0  0  0  0  0
   68.9205   73.9995   93.8046 N   0  0  0  0  0  0  0  0  0  0  0  0
   69.1823   75.0387   92.8306 C   0  0  0  0  0  0  0  0  0  0  0  0
   70.3402   75.1531   92.3423 O   0  0  0  0  0  0  0  0  0  0  0  0
   68.1570   75.9658   92.4320 N   0  0  0  0  0  0  0  0  0  0  0  0
   67.3322   76.0146   92.9673 H   0  0  0  0  0  0  0  0  0  0  0  0
   67.5475   73.6336   94.1890 C   0  0  0  0  0  0  0  0  0  0  0  0
   67.3960   73.6371   95.7170 C   0  0  0  0  0  0  0  0  0  0  0  0
   65.7597   75.4872   95.0832 C   0  0  0  0  0  0  0  0  0  0  0  0
   66.4929   74.7732   96.2190 C   0  0  0  0  0  0  0  0  0  0  0  0
   70.0529   73.2928   94.4227 C   0  0  0  0  0  0  0  0  0  0  0  0
   70.2682   71.9660   93.7455 C   0  0  0  0  0  0  0  0  0  0  0  0
   70.9524   70.9297   94.4027 C   0  0  0  0  0  0  0  0  0  0  0  0
   71.1211   69.6904   93.7775 C   0  0  0  0  0  0  0  0  0  0  0  0
   70.6061   69.4760   92.4962 C   0  0  0  0  0  0  0  0  0  0  0  0
   69.9208   70.5004   91.8374 C   0  0  0  0  0  0  0  0  0  0  0  0
   69.7497   71.7411   92.4590 C   0  0  0  0  0  0  0  0  0  0  0  0
   67.7141   75.0490   89.5047 C   0  0  0  0  0  0  0  0  0  0  0  0
   66.8189   74.9543   88.6226 O   0  0  0  0  0  0  0  0  0  0  0  0
   68.2631   73.8933   90.0496 O   0  0  0  0  0  0  0  0  0  0  0  0
   68.9290   73.9553   90.7058 H   0  0  0  0  0  0  0  0  0  0  0  0
 21 22  1  0  0  0
 22 20  1  0  0  0
 20 19  1  0  0  0
 19 14  1  0  0  0
 14 23  1  0  0  0
 23 24  1  0  0  0
 24 25  2  0  0  0
 25 26  1  0  0  0
 26 27  2  0  0  0
 27 28  1  0  0  0
 28 29  2  0  0  0
 14 15  1  0  0  0
 15 16  2  0  0  0
 15 17  1  0  0  0
 17  1  1  0  0  0
  1  2  1  0  0  0
  2  3  2  0  0  0
  3  6  1  0  0  0
  6  7  2  0  0  0
  7  8  1  0  0  0
  8  9  2  0  0  0
  9 10  1  0  0  0
  9 11  1  0  0  0
 11 12  1  0  0  0
 11 13  2  0  0  0
  3  4  1  0  0  0
  4  5  1  0  0  0
  5 30  1  0  0  0
 30 31  2  0  0  0
 30 32  1  0  0  0
 29 24  1  0  0  0
  5  1  2  0  0  0
 13  6  1  0  0  0
 17 18  1  0  0  0
 32 33  1  0  0  0
M  END
> <score>
-0.001231

> <minimizedAffinity>
-7.69170

> <CNNscore>
0.3866125345

> <CNNaffinity>
6.5573263168

> <CNN_VS>
2.5351445675

$$$$
HIPS424


 31 32  0  0  0  0  0  0  0  0999 V2000
   68.4214   77.9518   91.1302 C   0  0  0  0  0  0  0  0  0  0  0  0
   68.5191   79.3060   90.7783 C   0  0  0  0  0  0  0  0  0  0  0  0
   69.7634   79.6610   90.2531 C   0  0  0  0  0  0  0  0  0  0  0  0
   70.7322   78.2786   90.2604 S   0  0  0  0  0  0  0  0  0  0  0  0
   69.5963   77.2262   90.9149 C   0  0  0  0  0  0  0  0  0  0  0  0
   65.8569   76.3928   93.4691 N   0  0  0  0  0  0  0  0  0  0  0  0
   67.0607   77.0348   93.0278 C   0  0  0  0  0  0  0  0  0  0  0  0
   67.9958   77.2576   93.8451 O   0  0  0  0  0  0  0  0  0  0  0  0
   67.2071   77.3954   91.6477 N   0  0  0  0  0  0  0  0  0  0  0  0
   65.1103   76.3000   92.8342 H   0  0  0  0  0  0  0  0  0  0  0  0
   66.4484   77.2561   91.0360 H   0  0  0  0  0  0  0  0  0  0  0  0
   65.6951   75.8711   94.8244 C   0  0  0  0  0  0  0  0  0  0  0  0
   65.7641   74.3351   94.8515 C   0  0  0  0  0  0  0  0  0  0  0  0
   66.7363   73.7872   95.9173 C   0  0  0  0  0  0  0  0  0  0  0  0
   68.2268   73.9269   95.5327 C   0  0  0  0  0  0  0  0  0  0  0  0
   69.8690   72.7792   93.9463 C   0  0  0  0  0  0  0  0  0  0  0  0
   68.5323   73.5041   94.0859 C   0  0  0  0  0  0  0  0  0  0  0  0
   70.1809   81.0047   89.7717 C   0  0  0  0  0  0  0  0  0  0  0  0
   69.3135   81.8068   89.0063 C   0  0  0  0  0  0  0  0  0  0  0  0
   69.7179   83.0677   88.5579 C   0  0  0  0  0  0  0  0  0  0  0  0
   71.0047   83.5491   88.8454 C   0  0  0  0  0  0  0  0  0  0  0  0
   71.8637   82.7627   89.6290 C   0  0  0  0  0  0  0  0  0  0  0  0
   71.4608   81.5019   90.0780 C   0  0  0  0  0  0  0  0  0  0  0  0
   71.4212   84.9297   88.4037 C   0  0  0  0  0  0  0  0  0  0  0  0
   70.6348   85.8951   89.0081 F   0  0  0  0  0  0  0  0  0  0  0  0
   71.2820   85.0295   87.0323 F   0  0  0  0  0  0  0  0  0  0  0  0
   72.7407   85.1736   88.7422 F   0  0  0  0  0  0  0  0  0  0  0  0
   69.8734   75.8263   91.2765 C   0  0  0  0  0  0  0  0  0  0  0  0
   70.8515   75.5549   92.0232 O   0  0  0  0  0  0  0  0  0  0  0  0
   69.0476   74.8007   90.8274 O   0  0  0  0  0  0  0  0  0  0  0  0
   68.3186   74.9954   90.2719 H   0  0  0  0  0  0  0  0  0  0  0  0
 16 17  1  0  0  0
 17 15  1  0  0  0
 15 14  1  0  0  0
 14 13  1  0  0  0
 13 12  1  0  0  0
 12  6  1  0  0  0
  6  7  1  0  0  0
  7  8  2  0  0  0
  7  9  1  0  0  0
  9  1  1  0  0  0
  1  2  1  0  0  0
  2  3  2  0  0  0
  3 18  1  0  0  0
 18 19  2  0  0  0
 19 20  1  0  0  0
 20 21  2  0  0  0
 21 24  1  0  0  0
 24 25  1  0  0  0
 24 26  1  0  0  0
 24 27  1  0  0  0
 21 22  1  0  0  0
 22 23  2  0  0  0
  3  4  1  0  0  0
  4  5  1  0  0  0
  5 28  1  0  0  0
 28 29  2  0  0  0
 28 30  1  0  0  0
  5  1  2  0  0  0
 23 18  1  0  0  0
  6 10  1  0  0  0
  9 11  1  0  0  0
 30 31  1  0  0  0
M  END
> <score>
0.153651

> <minimizedAffinity>
-7.27563

> <CNNscore>
0.4311958849

> <CNNaffinity>
5.8225288391

> <CNN_VS>
2.5106503963

$$$$
HIPS424


 31 32  0  0  0  0  0  0  0  0999 V2000
   68.2709   77.4067   91.1408 C   0  0  0  0  0  0  0  0  0  0  0  0
   67.7366   78.5437   90.5172 C   0  0  0  0  0  0  0  0  0  0  0  0
   68.7037   79.3956   89.9795 C   0  0  0  0  0  0  0  0  0  0  0  0
   70.2160   78.7247   90.3148 S   0  0  0  0  0  0  0  0  0  0  0  0
   69.6676   77.3601   91.1293 C   0  0  0  0  0  0  0  0  0  0  0  0
   66.1586   75.4196   93.6040 N   0  0  0  0  0  0  0  0  0  0  0  0
   66.9154   76.5035   93.0487 C   0  0  0  0  0  0  0  0  0  0  0  0
   67.1485   77.5328   93.7404 O   0  0  0  0  0  0  0  0  0  0  0  0
   67.4299   76.3989   91.7144 N   0  0  0  0  0  0  0  0  0  0  0  0
   65.9213   74.6616   93.0223 H   0  0  0  0  0  0  0  0  0  0  0  0
   67.1976   75.6088   91.1749 H   0  0  0  0  0  0  0  0  0  0  0  0
   65.7257   75.3961   94.9994 C   0  0  0  0  0  0  0  0  0  0  0  0
   66.7966   74.7783   95.9138 C   0  0  0  0  0  0  0  0  0  0  0  0
   67.6071   73.6562   95.2320 C   0  0  0  0  0  0  0  0  0  0  0  0
   69.0856   74.0241   94.9722 C   0  0  0  0  0  0  0  0  0  0  0  0
   70.3227   72.1498   93.7525 C   0  0  0  0  0  0  0  0  0  0  0  0
   70.0480   72.8305   95.0916 C   0  0  0  0  0  0  0  0  0  0  0  0
   68.4674   80.6665   89.2444 C   0  0  0  0  0  0  0  0  0  0  0  0
   69.2771   81.7969   89.4635 C   0  0  0  0  0  0  0  0  0  0  0  0
   69.0441   82.9867   88.7675 C   0  0  0  0  0  0  0  0  0  0  0  0
   67.9847   83.0827   87.8517 C   0  0  0  0  0  0  0  0  0  0  0  0
   67.1902   81.9505   87.6124 C   0  0  0  0  0  0  0  0  0  0  0  0
   67.4221   80.7602   88.3074 C   0  0  0  0  0  0  0  0  0  0  0  0
   67.7660   84.3510   87.0654 C   0  0  0  0  0  0  0  0  0  0  0  0
   68.7408   84.4990   86.0940 F   0  0  0  0  0  0  0  0  0  0  0  0
   67.8179   85.4328   87.9238 F   0  0  0  0  0  0  0  0  0  0  0  0
   66.5320   84.3308   86.4391 F   0  0  0  0  0  0  0  0  0  0  0  0
   70.5449   76.3777   91.7869 C   0  0  0  0  0  0  0  0  0  0  0  0
   71.5438   76.7729   92.4454 O   0  0  0  0  0  0  0  0  0  0  0  0
   70.2652   75.0167   91.7150 O   0  0  0  0  0  0  0  0  0  0  0  0
   69.5240   74.7159   91.2271 H   0  0  0  0  0  0  0  0  0  0  0  0
 16 17  1  0  0  0
 17 15  1  0  0  0
 15 14  1  0  0  0
 14 13  1  0  0  0
 13 12  1  0  0  0
 12  6  1  0  0  0
  6  7  1  0  0  0
  7  8  2  0  0  0
  7  9  1  0  0  0
  9  1  1  0  0  0
  1  2  1  0  0  0
  2  3  2  0  0  0
  3 18  1  0  0  0
 18 19  2  0  0  0
 19 20  1  0  0  0
 20 21  2  0  0  0
 21 24  1  0  0  0
 24 25  1  0  0  0
 24 26  1  0  0  0
 24 27  1  0  0  0
 21 22  1  0  0  0
 22 23  2  0  0  0
  3  4  1  0  0  0
  4  5  1  0  0  0
  5 28  1  0  0  0
 28 29  2  0  0  0
 28 30  1  0  0  0
  5  1  2  0  0  0
 23 18  1  0  0  0
  6 10  1  0  0  0
  9 11  1  0  0  0
 30 31  1  0  0  0
M  END
> <score>
0.153651

> <minimizedAffinity>
-7.05817

> <CNNscore>
0.3985799253

> <CNNaffinity>
5.9382276535

> <CNN_VS>
2.3668582439

$$$$
HIPS424


 31 32  0  0  0  0  0  0  0  0999 V2000
   68.5172   81.1362   89.5970 C   0  0  0  0  0  0  0  0  0  0  0  0
   69.5079   82.1142   89.7671 C   0  0  0  0  0  0  0  0  0  0  0  0
   69.5985   83.0125   88.7017 C   0  0  0  0  0  0  0  0  0  0  0  0
   68.4528   82.5536   87.5501 S   0  0  0  0  0  0  0  0  0  0  0  0
   67.8321   81.2314   88.3826 C   0  0  0  0  0  0  0  0  0  0  0  0
   68.4591   77.8708   91.5493 N   0  0  0  0  0  0  0  0  0  0  0  0
   68.8373   78.8452   90.5678 C   0  0  0  0  0  0  0  0  0  0  0  0
   69.6629   78.5445   89.6622 O   0  0  0  0  0  0  0  0  0  0  0  0
   68.2507   80.1532   90.6042 N   0  0  0  0  0  0  0  0  0  0  0  0
   67.8755   78.1491   92.2918 H   0  0  0  0  0  0  0  0  0  0  0  0
   67.6450   80.3830   91.3456 H   0  0  0  0  0  0  0  0  0  0  0  0
   68.9058   76.4808   91.4906 C   0  0  0  0  0  0  0  0  0  0  0  0
   69.8626   76.1446   92.6467 C   0  0  0  0  0  0  0  0  0  0  0  0
   69.1613   76.0811   94.0197 C   0  0  0  0  0  0  0  0  0  0  0  0
   67.9383   75.1365   94.0524 C   0  0  0  0  0  0  0  0  0  0  0  0
   66.8191   74.0177   96.0590 C   0  0  0  0  0  0  0  0  0  0  0  0
   68.0317   74.0444   95.1313 C   0  0  0  0  0  0  0  0  0  0  0  0
   70.5278   84.1673   88.5817 C   0  0  0  0  0  0  0  0  0  0  0  0
   71.9228   83.9808   88.5548 C   0  0  0  0  0  0  0  0  0  0  0  0
   72.7864   85.0745   88.4434 C   0  0  0  0  0  0  0  0  0  0  0  0
   72.2788   86.3815   88.3768 C   0  0  0  0  0  0  0  0  0  0  0  0
   70.8879   86.5699   88.3786 C   0  0  0  0  0  0  0  0  0  0  0  0
   70.0231   85.4773   88.4899 C   0  0  0  0  0  0  0  0  0  0  0  0
   73.2098   87.5557   88.2063 C   0  0  0  0  0  0  0  0  0  0  0  0
   72.5327   88.7485   88.3928 F   0  0  0  0  0  0  0  0  0  0  0  0
   73.7400   87.5339   86.9302 F   0  0  0  0  0  0  0  0  0  0  0  0
   74.2430   87.4975   89.1252 F   0  0  0  0  0  0  0  0  0  0  0  0
   66.8225   80.3080   87.8392 C   0  0  0  0  0  0  0  0  0  0  0  0
   65.7041   80.7528   87.4664 O   0  0  0  0  0  0  0  0  0  0  0  0
   67.1014   78.9517   87.7038 O   0  0  0  0  0  0  0  0  0  0  0  0
   67.9310   78.6142   87.9790 H   0  0  0  0  0  0  0  0  0  0  0  0
 16 17  1  0  0  0
 17 15  1  0  0  0
 15 14  1  0  0  0
 14 13  1  0  0  0
 13 12  1  0  0  0
 12  6  1  0  0  0
  6  7  1  0  0  0
  7  8  2  0  0  0
  7  9  1  0  0  0
  9  1  1  0  0  0
  1  2  1  0  0  0
  2  3  2  0  0  0
  3 18  1  0  0  0
 18 19  2  0  0  0
 19 20  1  0  0  0
 20 21  2  0  0  0
 21 24  1  0  0  0
 24 25  1  0  0  0
 24 26  1  0  0  0
 24 27  1  0  0  0
 21 22  1  0  0  0
 22 23  2  0  0  0
  3  4  1  0  0  0
  4  5  1  0  0  0
  5 28  1  0  0  0
 28 29  2  0  0  0
 28 30  1  0  0  0
  5  1  2  0  0  0
 23 18  1  0  0  0
  6 10  1  0  0  0
  9 11  1  0  0  0
 30 31  1  0  0  0
M  END
> <score>
0.153651

> <minimizedAffinity>
-6.92851

> <CNNscore>
0.2785457671

> <CNNaffinity>
5.4698457718

> <CNN_VS>
1.5236023664

$$$$
HIPS431


 36 39  0  0  0  0  0  0  0  0999 V2000
   69.6470   76.6393   91.0472 N   0  0  0  0  0  0  0  0  0  0  0  0
   69.9106   76.0540   92.3340 C   0  0  0  0  0  0  0  0  0  0  0  0
   70.3008   76.7898   93.2823 O   0  0  0  0  0  0  0  0  0  0  0  0
   69.6880   74.6456   92.5698 N   0  0  0  0  0  0  0  0  0  0  0  0
   69.1712   76.1011   90.3740 H   0  0  0  0  0  0  0  0  0  0  0  0
   71.3783   78.3585   90.5078 C   0  0  0  0  0  0  0  0  0  0  0  0
   71.3979   80.0096   90.1959 S   0  0  0  0  0  0  0  0  0  0  0  0
   69.7354   80.2677   90.3109 C   0  0  0  0  0  0  0  0  0  0  0  0
   69.1351   79.0410   90.5977 C   0  0  0  0  0  0  0  0  0  0  0  0
   70.0470   77.9745   90.7007 C   0  0  0  0  0  0  0  0  0  0  0  0
   69.0522   81.5756   90.1373 C   0  0  0  0  0  0  0  0  0  0  0  0
   68.2263   81.8221   89.0242 C   0  0  0  0  0  0  0  0  0  0  0  0
   67.5927   83.0579   88.8698 C   0  0  0  0  0  0  0  0  0  0  0  0
   67.7698   84.0670   89.8204 C   0  0  0  0  0  0  0  0  0  0  0  0
   66.9570   85.6093   89.5879 Cl  0  0  0  0  0  0  0  0  0  0  0  0
   68.5856   83.8342   90.9383 C   0  0  0  0  0  0  0  0  0  0  0  0
   68.8364   85.0772   92.1576 Cl  0  0  0  0  0  0  0  0  0  0  0  0
   69.2194   82.5955   91.0932 C   0  0  0  0  0  0  0  0  0  0  0  0
   73.2928   77.3954   89.4730 O   0  0  0  0  0  0  0  0  0  0  0  0
   72.5817   77.5087   90.5065 C   0  0  0  0  0  0  0  0  0  0  0  0
   72.9501   76.8387   91.6693 O   0  0  0  0  0  0  0  0  0  0  0  0
   72.4259   76.9183   92.4419 H   0  0  0  0  0  0  0  0  0  0  0  0
   69.4310   74.1631   93.9375 C   0  0  0  0  0  0  0  0  0  0  0  0
   68.0343   74.5282   94.3728 C   0  0  0  0  0  0  0  0  0  0  0  0
   67.1739   75.2156   93.4987 C   0  0  0  0  0  0  0  0  0  0  0  0
   65.8974   75.5986   93.9207 C   0  0  0  0  0  0  0  0  0  0  0  0
   65.4660   75.2922   95.2139 C   0  0  0  0  0  0  0  0  0  0  0  0
   66.3092   74.5985   96.0857 C   0  0  0  0  0  0  0  0  0  0  0  0
   67.5884   74.2171   95.6688 C   0  0  0  0  0  0  0  0  0  0  0  0
   69.8577   73.6619   91.4880 C   0  0  0  0  0  0  0  0  0  0  0  0
   68.6952   73.7058   90.5273 C   0  0  0  0  0  0  0  0  0  0  0  0
   68.2153   74.9385   90.0495 C   0  0  0  0  0  0  0  0  0  0  0  0
   67.1566   74.9774   89.1368 C   0  0  0  0  0  0  0  0  0  0  0  0
   66.5669   73.7897   88.6968 C   0  0  0  0  0  0  0  0  0  0  0  0
   67.0299   72.5606   89.1740 C   0  0  0  0  0  0  0  0  0  0  0  0
   68.0867   72.5165   90.0880 C   0  0  0  0  0  0  0  0  0  0  0  0
 19 20  2  0  0  0
 20 21  1  0  0  0
 20  6  1  0  0  0
  6  7  1  0  0  0
  7  8  1  0  0  0
  8 11  1  0  0  0
 11 12  2  0  0  0
 12 13  1  0  0  0
 13 14  2  0  0  0
 14 15  1  0  0  0
 14 16  1  0  0  0
 16 17  1  0  0  0
 16 18  2  0  0  0
  8  9  2  0  0  0
  9 10  1  0  0  0
 10  1  1  0  0  0
  1  2  1  0  0  0
  2  3  2  0  0  0
  2  4  1  0  0  0
  4 23  1  0  0  0
 23 24  1  0  0  0
 24 25  2  0  0  0
 25 26  1  0  0  0
 26 27  2  0  0  0
 27 28  1  0  0  0
 28 29  2  0  0  0
  4 30  1  0  0  0
 30 31  1  0  0  0
 31 32  2  0  0  0
 32 33  1  0  0  0
 33 34  2  0  0  0
 34 35  1  0  0  0
 35 36  2  0  0  0
 10  6  2  0  0  0
 29 24  1  0  0  0
 36 31  1  0  0  0
 18 11  1  0  0  0
 21 22  1  0  0  0
  1  5  1  0  0  0
M  END
> <score>
-0.154405

> <minimizedAffinity>
-8.14625

> <CNNscore>
0.4578175247

> <CNNaffinity>
6.9055671692

> <CNN_VS>
3.1614897251

$$$$
HIPS431


 36 39  0  0  0  0  0  0  0  0999 V2000
   69.6161   76.5066   91.1060 N   0  0  0  0  0  0  0  0  0  0  0  0
   69.9004   75.9668   92.4082 C   0  0  0  0  0  0  0  0  0  0  0  0
   70.3059   76.7353   93.3236 O   0  0  0  0  0  0  0  0  0  0  0  0
   69.6816   74.5678   92.6971 N   0  0  0  0  0  0  0  0  0  0  0  0
   69.1295   75.9453   90.4600 H   0  0  0  0  0  0  0  0  0  0  0  0
   71.3419   78.2168   90.5220 C   0  0  0  0  0  0  0  0  0  0  0  0
   71.3525   79.8520   90.1349 S   0  0  0  0  0  0  0  0  0  0  0  0
   69.6857   80.0982   90.2053 C   0  0  0  0  0  0  0  0  0  0  0  0
   69.0911   78.8799   90.5366 C   0  0  0  0  0  0  0  0  0  0  0  0
   70.0107   77.8285   90.7063 C   0  0  0  0  0  0  0  0  0  0  0  0
   68.9940   81.3898   89.9584 C   0  0  0  0  0  0  0  0  0  0  0  0
   69.3485   82.2073   88.8686 C   0  0  0  0  0  0  0  0  0  0  0  0
   68.6936   83.4220   88.6496 C   0  0  0  0  0  0  0  0  0  0  0  0
   67.6753   83.8417   89.5100 C   0  0  0  0  0  0  0  0  0  0  0  0
   66.8777   85.3785   89.2012 Cl  0  0  0  0  0  0  0  0  0  0  0  0
   67.3069   83.0347   90.5975 C   0  0  0  0  0  0  0  0  0  0  0  0
   66.0318   83.5258   91.7053 Cl  0  0  0  0  0  0  0  0  0  0  0  0
   67.9627   81.8172   90.8160 C   0  0  0  0  0  0  0  0  0  0  0  0
   72.9015   76.8237   91.6583 O   0  0  0  0  0  0  0  0  0  0  0  0
   72.5530   77.3801   90.5833 C   0  0  0  0  0  0  0  0  0  0  0  0
   73.3108   77.1843   89.4326 O   0  0  0  0  0  0  0  0  0  0  0  0
   73.0576   77.5950   88.6294 H   0  0  0  0  0  0  0  0  0  0  0  0
   69.4465   74.1339   94.0849 C   0  0  0  0  0  0  0  0  0  0  0  0
   68.0636   74.5312   94.5357 C   0  0  0  0  0  0  0  0  0  0  0  0
   67.6552   74.3041   95.8617 C   0  0  0  0  0  0  0  0  0  0  0  0
   66.3562   74.6261   96.2654 C   0  0  0  0  0  0  0  0  0  0  0  0
   65.4573   75.1843   95.3530 C   0  0  0  0  0  0  0  0  0  0  0  0
   65.8577   75.4253   94.0362 C   0  0  0  0  0  0  0  0  0  0  0  0
   67.1551   75.1010   93.6273 C   0  0  0  0  0  0  0  0  0  0  0  0
   69.8336   73.5465   91.6480 C   0  0  0  0  0  0  0  0  0  0  0  0
   70.0689   72.1825   92.2484 C   0  0  0  0  0  0  0  0  0  0  0  0
   69.1566   71.1376   92.0159 C   0  0  0  0  0  0  0  0  0  0  0  0
   69.3899   69.8660   92.5487 C   0  0  0  0  0  0  0  0  0  0  0  0
   70.5308   69.6275   93.3189 C   0  0  0  0  0  0  0  0  0  0  0  0
   71.4376   70.6621   93.5642 C   0  0  0  0  0  0  0  0  0  0  0  0
   71.2079   71.9356   93.0355 C   0  0  0  0  0  0  0  0  0  0  0  0
 19 20  2  0  0  0
 20 21  1  0  0  0
 20  6  1  0  0  0
  6  7  1  0  0  0
  7  8  1  0  0  0
  8 11  1  0  0  0
 11 12  2  0  0  0
 12 13  1  0  0  0
 13 14  2  0  0  0
 14 15  1  0  0  0
 14 16  1  0  0  0
 16 17  1  0  0  0
 16 18  2  0  0  0
  8  9  2  0  0  0
  9 10  1  0  0  0
 10  1  1  0  0  0
  1  2  1  0  0  0
  2  3  2  0  0  0
  2  4  1  0  0  0
  4 23  1  0  0  0
 23 24  1  0  0  0
 24 25  2  0  0  0
 25 26  1  0  0  0
 26 27  2  0  0  0
 27 28  1  0  0  0
 28 29  2  0  0  0
  4 30  1  0  0  0
 30 31  1  0  0  0
 31 32  2  0  0  0
 32 33  1  0  0  0
 33 34  2  0  0  0
 34 35  1  0  0  0
 35 36  2  0  0  0
 10  6  2  0  0  0
 29 24  1  0  0  0
 36 31  1  0  0  0
 18 11  1  0  0  0
 21 22  1  0  0  0
  1  5  1  0  0  0
M  END
> <score>
-0.154405

> <minimizedAffinity>
-7.61357

> <CNNscore>
0.4312844574

> <CNNaffinity>
6.7094583511

> <CNN_VS>
2.8936851025

$$$$
HIPS431


 36 39  0  0  0  0  0  0  0  0999 V2000
   69.2314   77.6931   90.3524 N   0  0  0  0  0  0  0  0  0  0  0  0
   68.3656   77.4497   91.4744 C   0  0  0  0  0  0  0  0  0  0  0  0
   68.1216   78.3862   92.2847 O   0  0  0  0  0  0  0  0  0  0  0  0
   67.7324   76.1639   91.6598 N   0  0  0  0  0  0  0  0  0  0  0  0
   69.2679   77.0228   89.6322 H   0  0  0  0  0  0  0  0  0  0  0  0
   71.4208   78.8897   90.4907 C   0  0  0  0  0  0  0  0  0  0  0  0
   71.9561   80.4723   90.3102 S   0  0  0  0  0  0  0  0  0  0  0  0
   70.4654   81.1582   89.9215 C   0  0  0  0  0  0  0  0  0  0  0  0
   69.5147   80.1366   89.9265 C   0  0  0  0  0  0  0  0  0  0  0  0
   70.0454   78.8707   90.2360 C   0  0  0  0  0  0  0  0  0  0  0  0
   70.2274   82.5959   89.6318 C   0  0  0  0  0  0  0  0  0  0  0  0
   69.0147   83.2175   89.9852 C   0  0  0  0  0  0  0  0  0  0  0  0
   68.8011   84.5693   89.7033 C   0  0  0  0  0  0  0  0  0  0  0  0
   69.7904   85.3239   89.0668 C   0  0  0  0  0  0  0  0  0  0  0  0
   69.4812   87.0216   88.7273 Cl  0  0  0  0  0  0  0  0  0  0  0  0
   71.0067   84.7196   88.7135 C   0  0  0  0  0  0  0  0  0  0  0  0
   72.2778   85.6324   87.9101 Cl  0  0  0  0  0  0  0  0  0  0  0  0
   71.2208   83.3654   88.9971 C   0  0  0  0  0  0  0  0  0  0  0  0
   73.0701   77.2678   89.9311 O   0  0  0  0  0  0  0  0  0  0  0  0
   72.3058   77.7549   90.8058 C   0  0  0  0  0  0  0  0  0  0  0  0
   72.3132   77.2273   92.0936 O   0  0  0  0  0  0  0  0  0  0  0  0
   71.7474   77.5845   92.7495 H   0  0  0  0  0  0  0  0  0  0  0  0
   66.4837   76.0667   92.4350 C   0  0  0  0  0  0  0  0  0  0  0  0
   66.7268   75.3537   93.7411 C   0  0  0  0  0  0  0  0  0  0  0  0
   67.9602   75.4838   94.4034 C   0  0  0  0  0  0  0  0  0  0  0  0
   68.2031   74.7822   95.5879 C   0  0  0  0  0  0  0  0  0  0  0  0
   67.2157   73.9524   96.1254 C   0  0  0  0  0  0  0  0  0  0  0  0
   65.9823   73.8264   95.4812 C   0  0  0  0  0  0  0  0  0  0  0  0
   65.7368   74.5234   94.2939 C   0  0  0  0  0  0  0  0  0  0  0  0
   68.3898   74.9258   91.2111 C   0  0  0  0  0  0  0  0  0  0  0  0
   67.7283   74.3789   89.9703 C   0  0  0  0  0  0  0  0  0  0  0  0
   67.2943   75.2497   88.9547 C   0  0  0  0  0  0  0  0  0  0  0  0
   66.7074   74.7406   87.7921 C   0  0  0  0  0  0  0  0  0  0  0  0
   66.5458   73.3619   87.6347 C   0  0  0  0  0  0  0  0  0  0  0  0
   66.9643   72.4893   88.6429 C   0  0  0  0  0  0  0  0  0  0  0  0
   67.5498   72.9935   89.8079 C   0  0  0  0  0  0  0  0  0  0  0  0
 19 20  2  0  0  0
 20 21  1  0  0  0
 20  6  1  0  0  0
  6  7  1  0  0  0
  7  8  1  0  0  0
  8 11  1  0  0  0
 11 12  2  0  0  0
 12 13  1  0  0  0
 13 14  2  0  0  0
 14 15  1  0  0  0
 14 16  1  0  0  0
 16 17  1  0  0  0
 16 18  2  0  0  0
  8  9  2  0  0  0
  9 10  1  0  0  0
 10  1  1  0  0  0
  1  2  1  0  0  0
  2  3  2  0  0  0
  2  4  1  0  0  0
  4 23  1  0  0  0
 23 24  1  0  0  0
 24 25  2  0  0  0
 25 26  1  0  0  0
 26 27  2  0  0  0
 27 28  1  0  0  0
 28 29  2  0  0  0
  4 30  1  0  0  0
 30 31  1  0  0  0
 31 32  2  0  0  0
 32 33  1  0  0  0
 33 34  2  0  0  0
 34 35  1  0  0  0
 35 36  2  0  0  0
 10  6  2  0  0  0
 29 24  1  0  0  0
 36 31  1  0  0  0
 18 11  1  0  0  0
 21 22  1  0  0  0
  1  5  1  0  0  0
M  END
> <score>
-0.154405

> <minimizedAffinity>
-8.41351

> <CNNscore>
0.3307870626

> <CNNaffinity>
6.6148176193

> <CNN_VS>
2.1880960464

$$$$
HIPS435


 30 32  0  0  0  0  0  0  0  0999 V2000
   66.9687   80.3713   89.1717 C   0  0  0  0  0  0  0  0  0  0  0  0
   68.0347   81.1025   88.6157 C   0  0  0  0  0  0  0  0  0  0  0  0
   68.2464   82.3409   89.2240 C   0  0  0  0  0  0  0  0  0  0  0  0
   67.0968   82.5122   90.4455 S   0  0  0  0  0  0  0  0  0  0  0  0
   66.3242   81.0371   90.2197 C   0  0  0  0  0  0  0  0  0  0  0  0
   69.2832   83.3450   88.8686 C   0  0  0  0  0  0  0  0  0  0  0  0
   68.9505   84.5141   88.1582 C   0  0  0  0  0  0  0  0  0  0  0  0
   69.9342   85.4505   87.8305 C   0  0  0  0  0  0  0  0  0  0  0  0
   71.2639   85.2402   88.2049 C   0  0  0  0  0  0  0  0  0  0  0  0
   72.4718   86.4430   87.7734 Cl  0  0  0  0  0  0  0  0  0  0  0  0
   71.6107   84.0811   88.9161 C   0  0  0  0  0  0  0  0  0  0  0  0
   73.2721   83.7774   89.4067 Cl  0  0  0  0  0  0  0  0  0  0  0  0
   70.6248   83.1432   89.2448 C   0  0  0  0  0  0  0  0  0  0  0  0
   67.0562   76.6998   88.1606 N   0  0  0  0  0  0  0  0  0  0  0  0
   67.1579   77.8620   89.0131 C   0  0  0  0  0  0  0  0  0  0  0  0
   67.7902   77.7812   90.1026 O   0  0  0  0  0  0  0  0  0  0  0  0
   66.5385   79.1055   88.6463 N   0  0  0  0  0  0  0  0  0  0  0  0
   65.7885   79.0893   88.0088 H   0  0  0  0  0  0  0  0  0  0  0  0
   67.2522   75.3859   88.7252 C   0  0  0  0  0  0  0  0  0  0  0  0
   66.6753   74.2513   88.1257 C   0  0  0  0  0  0  0  0  0  0  0  0
   66.8701   72.9828   88.6808 C   0  0  0  0  0  0  0  0  0  0  0  0
   67.6395   72.8343   89.8374 C   0  0  0  0  0  0  0  0  0  0  0  0
   68.2158   73.9545   90.4414 C   0  0  0  0  0  0  0  0  0  0  0  0
   68.0241   75.2248   89.8897 C   0  0  0  0  0  0  0  0  0  0  0  0
   68.0875   77.3357   86.0056 C   0  0  0  0  0  0  0  0  0  0  0  0
   66.8270   76.8444   86.7135 C   0  0  0  0  0  0  0  0  0  0  0  0
   65.2066   80.5617   91.0531 C   0  0  0  0  0  0  0  0  0  0  0  0
   64.0142   80.6796   90.6655 O   0  0  0  0  0  0  0  0  0  0  0  0
   65.4729   79.9515   92.2752 O   0  0  0  0  0  0  0  0  0  0  0  0
   66.3575   79.8601   92.5703 H   0  0  0  0  0  0  0  0  0  0  0  0
 25 26  1  0  0  0
 26 14  1  0  0  0
 14 15  1  0  0  0
 15 16  2  0  0  0
 15 17  1  0  0  0
 17  1  1  0  0  0
  1  2  1  0  0  0
  2  3  2  0  0  0
  3  6  1  0  0  0
  6  7  2  0  0  0
  7  8  1  0  0  0
  8  9  2  0  0  0
  9 10  1  0  0  0
  9 11  1  0  0  0
 11 12  1  0  0  0
 11 13  2  0  0  0
  3  4  1  0  0  0
  4  5  1  0  0  0
  5 27  1  0  0  0
 27 28  2  0  0  0
 27 29  1  0  0  0
 14 19  1  0  0  0
 19 20  2  0  0  0
 20 21  1  0  0  0
 21 22  2  0  0  0
 22 23  1  0  0  0
 23 24  2  0  0  0
  5  1  2  0  0  0
 24 19  1  0  0  0
 13  6  1  0  0  0
 17 18  1  0  0  0
 29 30  1  0  0  0
M  END
> <score>
-0.57467

> <minimizedAffinity>
-8.33012

> <CNNscore>
0.5586650372

> <CNNaffinity>
6.5593042374

> <CNN_VS>
3.6644539833

$$$$
HIPS435


 30 32  0  0  0  0  0  0  0  0999 V2000
   68.0803   73.7753   92.6224 C   0  0  0  0  0  0  0  0  0  0  0  0
   68.1482   74.5728   91.4650 C   0  0  0  0  0  0  0  0  0  0  0  0
   67.4818   75.7938   91.5822 C   0  0  0  0  0  0  0  0  0  0  0  0
   66.8102   75.8619   93.1273 S   0  0  0  0  0  0  0  0  0  0  0  0
   67.3475   74.3614   93.6598 C   0  0  0  0  0  0  0  0  0  0  0  0
   67.3644   76.8506   90.5436 C   0  0  0  0  0  0  0  0  0  0  0  0
   67.1864   78.2016   90.8972 C   0  0  0  0  0  0  0  0  0  0  0  0
   67.0777   79.1857   89.9114 C   0  0  0  0  0  0  0  0  0  0  0  0
   67.1455   78.8424   88.5586 C   0  0  0  0  0  0  0  0  0  0  0  0
   67.0045   80.1108   87.3489 Cl  0  0  0  0  0  0  0  0  0  0  0  0
   67.3257   77.5003   88.1903 C   0  0  0  0  0  0  0  0  0  0  0  0
   67.4164   77.0249   86.4994 Cl  0  0  0  0  0  0  0  0  0  0  0  0
   67.4351   76.5145   89.1782 C   0  0  0  0  0  0  0  0  0  0  0  0
   70.6684   70.9809   92.6804 N   0  0  0  0  0  0  0  0  0  0  0  0
   70.0007   72.2028   93.0664 C   0  0  0  0  0  0  0  0  0  0  0  0
   70.6197   73.0587   93.7573 O   0  0  0  0  0  0  0  0  0  0  0  0
   68.6375   72.4528   92.6873 N   0  0  0  0  0  0  0  0  0  0  0  0
   68.0618   71.6864   92.4628 H   0  0  0  0  0  0  0  0  0  0  0  0
   71.8169   70.5320   93.4307 C   0  0  0  0  0  0  0  0  0  0  0  0
   73.1148   70.6527   92.9012 C   0  0  0  0  0  0  0  0  0  0  0  0
   74.2210   70.2140   93.6355 C   0  0  0  0  0  0  0  0  0  0  0  0
   74.0435   69.6510   94.9016 C   0  0  0  0  0  0  0  0  0  0  0  0
   72.7589   69.5255   95.4363 C   0  0  0  0  0  0  0  0  0  0  0  0
   71.6499   69.9631   94.7060 C   0  0  0  0  0  0  0  0  0  0  0  0
   69.9161   68.7789   91.8453 C   0  0  0  0  0  0  0  0  0  0  0  0
   70.2359   70.2292   91.4907 C   0  0  0  0  0  0  0  0  0  0  0  0
   67.1055   73.8384   95.0154 C   0  0  0  0  0  0  0  0  0  0  0  0
   65.9532   73.8644   95.5230 O   0  0  0  0  0  0  0  0  0  0  0  0
   68.1597   73.2856   95.7362 O   0  0  0  0  0  0  0  0  0  0  0  0
   69.0198   73.2627   95.3652 H   0  0  0  0  0  0  0  0  0  0  0  0
 25 26  1  0  0  0
 26 14  1  0  0  0
 14 15  1  0  0  0
 15 16  2  0  0  0
 15 17  1  0  0  0
 17  1  1  0  0  0
  1  2  1  0  0  0
  2  3  2  0  0  0
  3  6  1  0  0  0
  6  7  2  0  0  0
  7  8  1  0  0  0
  8  9  2  0  0  0
  9 10  1  0  0  0
  9 11  1  0  0  0
 11 12  1  0  0  0
 11 13  2  0  0  0
  3  4  1  0  0  0
  4  5  1  0  0  0
  5 27  1  0  0  0
 27 28  2  0  0  0
 27 29  1  0  0  0
 14 19  1  0  0  0
 19 20  2  0  0  0
 20 21  1  0  0  0
 21 22  2  0  0  0
 22 23  1  0  0  0
 23 24  2  0  0  0
  5  1  2  0  0  0
 24 19  1  0  0  0
 13  6  1  0  0  0
 17 18  1  0  0  0
 29 30  1  0  0  0
M  END
> <score>
-0.57467

> <minimizedAffinity>
-7.83856

> <CNNscore>
0.4209777117

> <CNNaffinity>
6.1918354034

> <CNN_VS>
2.6066246033

$$$$
HIPS435


 30 32  0  0  0  0  0  0  0  0999 V2000
   67.5034   80.5937   89.5916 C   0  0  0  0  0  0  0  0  0  0  0  0
   68.4480   81.3749   88.9004 C   0  0  0  0  0  0  0  0  0  0  0  0
   68.8385   82.5255   89.5874 C   0  0  0  0  0  0  0  0  0  0  0  0
   67.9960   82.5583   91.0476 S   0  0  0  0  0  0  0  0  0  0  0  0
   67.1342   81.1323   90.8287 C   0  0  0  0  0  0  0  0  0  0  0  0
   69.8100   83.5530   89.1293 C   0  0  0  0  0  0  0  0  0  0  0  0
   71.1300   83.2043   88.7858 C   0  0  0  0  0  0  0  0  0  0  0  0
   72.0336   84.1794   88.3562 C   0  0  0  0  0  0  0  0  0  0  0  0
   71.6389   85.5163   88.2599 C   0  0  0  0  0  0  0  0  0  0  0  0
   72.8064   86.7130   87.7148 Cl  0  0  0  0  0  0  0  0  0  0  0  0
   70.3255   85.8792   88.5958 C   0  0  0  0  0  0  0  0  0  0  0  0
   69.7874   87.5502   88.4890 Cl  0  0  0  0  0  0  0  0  0  0  0  0
   69.4202   84.9019   89.0258 C   0  0  0  0  0  0  0  0  0  0  0  0
   67.1727   77.0074   88.3507 N   0  0  0  0  0  0  0  0  0  0  0  0
   67.4520   78.0946   89.2607 C   0  0  0  0  0  0  0  0  0  0  0  0
   68.1665   77.8851   90.2799 O   0  0  0  0  0  0  0  0  0  0  0  0
   66.9173   79.4082   89.0306 N   0  0  0  0  0  0  0  0  0  0  0  0
   66.1164   79.4996   88.4654 H   0  0  0  0  0  0  0  0  0  0  0  0
   67.2981   75.6455   88.8122 C   0  0  0  0  0  0  0  0  0  0  0  0
   68.0429   75.3422   89.9667 C   0  0  0  0  0  0  0  0  0  0  0  0
   68.1592   74.0196   90.4052 C   0  0  0  0  0  0  0  0  0  0  0  0
   67.5361   72.9889   89.6973 C   0  0  0  0  0  0  0  0  0  0  0  0
   66.7952   73.2789   88.5490 C   0  0  0  0  0  0  0  0  0  0  0  0
   66.6757   74.5999   88.1070 C   0  0  0  0  0  0  0  0  0  0  0  0
   68.0930   77.4182   86.0933 C   0  0  0  0  0  0  0  0  0  0  0  0
   66.8328   77.2715   86.9428 C   0  0  0  0  0  0  0  0  0  0  0  0
   66.2111   80.5711   91.8299 C   0  0  0  0  0  0  0  0  0  0  0  0
   66.5980   80.3304   93.0040 O   0  0  0  0  0  0  0  0  0  0  0  0
   64.8865   80.3260   91.4811 O   0  0  0  0  0  0  0  0  0  0  0  0
   64.5912   80.5026   90.6095 H   0  0  0  0  0  0  0  0  0  0  0  0
 25 26  1  0  0  0
 26 14  1  0  0  0
 14 15  1  0  0  0
 15 16  2  0  0  0
 15 17  1  0  0  0
 17  1  1  0  0  0
  1  2  1  0  0  0
  2  3  2  0  0  0
  3  6  1  0  0  0
  6  7  2  0  0  0
  7  8  1  0  0  0
  8  9  2  0  0  0
  9 10  1  0  0  0
  9 11  1  0  0  0
 11 12  1  0  0  0
 11 13  2  0  0  0
  3  4  1  0  0  0
  4  5  1  0  0  0
  5 27  1  0  0  0
 27 28  2  0  0  0
 27 29  1  0  0  0
 14 19  1  0  0  0
 19 20  2  0  0  0
 20 21  1  0  0  0
 21 22  2  0  0  0
 22 23  1  0  0  0
 23 24  2  0  0  0
  5  1  2  0  0  0
 24 19  1  0  0  0
 13  6  1  0  0  0
 17 18  1  0  0  0
 29 30  1  0  0  0
M  END
> <score>
-0.57467

> <minimizedAffinity>
-7.93283

> <CNNscore>
0.4191150367

> <CNNaffinity>
6.3630695343

> <CNN_VS>
2.6668581963

$$$$
HIPS440


 32 34  0  0  0  0  0  0  0  0999 V2000
   69.3931   78.3075   90.4150 C   0  0  0  0  0  0  0  0  0  0  0  0
   68.9466   79.5401   89.9034 C   0  0  0  0  0  0  0  0  0  0  0  0
   69.9443   80.5131   89.8268 C   0  0  0  0  0  0  0  0  0  0  0  0
   71.3723   79.8260   90.4028 S   0  0  0  0  0  0  0  0  0  0  0  0
   70.7501   78.3052   90.7552 C   0  0  0  0  0  0  0  0  0  0  0  0
   69.7945   81.9090   89.3392 C   0  0  0  0  0  0  0  0  0  0  0  0
   70.7182   82.8974   89.7260 C   0  0  0  0  0  0  0  0  0  0  0  0
   70.5857   84.2119   89.2721 C   0  0  0  0  0  0  0  0  0  0  0  0
   69.5302   84.5647   88.4274 C   0  0  0  0  0  0  0  0  0  0  0  0
   69.3980   86.2299   87.8778 Cl  0  0  0  0  0  0  0  0  0  0  0  0
   68.5980   83.5914   88.0356 C   0  0  0  0  0  0  0  0  0  0  0  0
   67.2506   83.9949   86.9796 Cl  0  0  0  0  0  0  0  0  0  0  0  0
   68.7313   82.2738   88.4904 C   0  0  0  0  0  0  0  0  0  0  0  0
   67.7823   75.3555   92.1941 N   0  0  0  0  0  0  0  0  0  0  0  0
   68.1932   76.7244   91.9638 C   0  0  0  0  0  0  0  0  0  0  0  0
   68.2420   77.5331   92.9316 O   0  0  0  0  0  0  0  0  0  0  0  0
   68.5104   77.1976   90.6441 N   0  0  0  0  0  0  0  0  0  0  0  0
   68.1079   76.7441   89.8685 H   0  0  0  0  0  0  0  0  0  0  0  0
   67.3637   74.9486   93.5125 C   0  0  0  0  0  0  0  0  0  0  0  0
   66.0519   75.1950   93.9542 C   0  0  0  0  0  0  0  0  0  0  0  0
   65.6578   74.8153   95.2407 C   0  0  0  0  0  0  0  0  0  0  0  0
   66.5676   74.1868   96.0950 C   0  0  0  0  0  0  0  0  0  0  0  0
   67.8732   73.9369   95.6640 C   0  0  0  0  0  0  0  0  0  0  0  0
   68.2714   74.3160   94.3785 C   0  0  0  0  0  0  0  0  0  0  0  0
   67.8000   74.3486   91.1183 C   0  0  0  0  0  0  0  0  0  0  0  0
   69.1660   73.6477   91.0030 C   0  0  0  0  0  0  0  0  0  0  0  0
   70.0687   71.7091   92.4039 C   0  0  0  0  0  0  0  0  0  0  0  0
   69.1230   72.1364   91.2819 C   0  0  0  0  0  0  0  0  0  0  0  0
   71.5596   77.1895   91.2748 C   0  0  0  0  0  0  0  0  0  0  0  0
   72.6737   76.9040   90.7616 O   0  0  0  0  0  0  0  0  0  0  0  0
   71.0985   76.4560   92.3636 O   0  0  0  0  0  0  0  0  0  0  0  0
   70.2706   76.6625   92.7509 H   0  0  0  0  0  0  0  0  0  0  0  0
 27 28  1  0  0  0
 28 26  1  0  0  0
 26 25  1  0  0  0
 25 14  1  0  0  0
 14 15  1  0  0  0
 15 16  2  0  0  0
 15 17  1  0  0  0
 17  1  1  0  0  0
  1  2  1  0  0  0
  2  3  2  0  0  0
  3  6  1  0  0  0
  6  7  2  0  0  0
  7  8  1  0  0  0
  8  9  2  0  0  0
  9 10  1  0  0  0
  9 11  1  0  0  0
 11 12  1  0  0  0
 11 13  2  0  0  0
  3  4  1  0  0  0
  4  5  1  0  0  0
  5 29  1  0  0  0
 29 30  2  0  0  0
 29 31  1  0  0  0
 14 19  1  0  0  0
 19 20  2  0  0  0
 20 21  1  0  0  0
 21 22  2  0  0  0
 22 23  1  0  0  0
 23 24  2  0  0  0
  5  1  2  0  0  0
 24 19  1  0  0  0
 13  6  1  0  0  0
 17 18  1  0  0  0
 31 32  1  0  0  0
M  END
> <score>
-0.726353

> <minimizedAffinity>
-8.13869

> <CNNscore>
0.8493235111

> <CNNaffinity>
6.8272790909

> <CNN_VS>
5.7985687256

$$$$
HIPS440


 32 34  0  0  0  0  0  0  0  0999 V2000
   69.3842   78.2425   90.4334 C   0  0  0  0  0  0  0  0  0  0  0  0
   68.9275   79.4738   89.9279 C   0  0  0  0  0  0  0  0  0  0  0  0
   69.9145   80.4587   89.8663 C   0  0  0  0  0  0  0  0  0  0  0  0
   71.3459   79.7835   90.4478 S   0  0  0  0  0  0  0  0  0  0  0  0
   70.7386   78.2529   90.7838 C   0  0  0  0  0  0  0  0  0  0  0  0
   69.7524   81.8565   89.3883 C   0  0  0  0  0  0  0  0  0  0  0  0
   68.4669   82.3921   89.1879 C   0  0  0  0  0  0  0  0  0  0  0  0
   68.3050   83.7052   88.7396 C   0  0  0  0  0  0  0  0  0  0  0  0
   69.4203   84.5061   88.4811 C   0  0  0  0  0  0  0  0  0  0  0  0
   69.1746   86.1538   87.9178 Cl  0  0  0  0  0  0  0  0  0  0  0  0
   70.7095   83.9854   88.6721 C   0  0  0  0  0  0  0  0  0  0  0  0
   72.1399   84.9573   88.3515 Cl  0  0  0  0  0  0  0  0  0  0  0  0
   70.8715   82.6693   89.1219 C   0  0  0  0  0  0  0  0  0  0  0  0
   67.8053   75.2485   92.1706 N   0  0  0  0  0  0  0  0  0  0  0  0
   68.2027   76.6246   91.9603 C   0  0  0  0  0  0  0  0  0  0  0  0
   68.2460   77.4189   92.9403 O   0  0  0  0  0  0  0  0  0  0  0  0
   68.5126   77.1208   90.6474 N   0  0  0  0  0  0  0  0  0  0  0  0
   68.1127   76.6754   89.8657 H   0  0  0  0  0  0  0  0  0  0  0  0
   67.3935   74.8176   93.4835 C   0  0  0  0  0  0  0  0  0  0  0  0
   68.3359   74.3243   94.4027 C   0  0  0  0  0  0  0  0  0  0  0  0
   67.9275   73.8901   95.6673 C   0  0  0  0  0  0  0  0  0  0  0  0
   66.5778   73.9454   96.0246 C   0  0  0  0  0  0  0  0  0  0  0  0
   65.6342   74.4353   95.1178 C   0  0  0  0  0  0  0  0  0  0  0  0
   66.0386   74.8696   93.8518 C   0  0  0  0  0  0  0  0  0  0  0  0
   67.8304   74.2583   91.0795 C   0  0  0  0  0  0  0  0  0  0  0  0
   69.1675   73.4977   91.0177 C   0  0  0  0  0  0  0  0  0  0  0  0
   70.1698   71.6135   92.4251 C   0  0  0  0  0  0  0  0  0  0  0  0
   69.0728   72.0233   91.4430 C   0  0  0  0  0  0  0  0  0  0  0  0
   71.5569   77.1426   91.3010 C   0  0  0  0  0  0  0  0  0  0  0  0
   72.6655   76.8563   90.7764 O   0  0  0  0  0  0  0  0  0  0  0  0
   71.1105   76.4152   92.4000 O   0  0  0  0  0  0  0  0  0  0  0  0
   70.2868   76.6222   92.7957 H   0  0  0  0  0  0  0  0  0  0  0  0
 27 28  1  0  0  0
 28 26  1  0  0  0
 26 25  1  0  0  0
 25 14  1  0  0  0
 14 15  1  0  0  0
 15 16  2  0  0  0
 15 17  1  0  0  0
 17  1  1  0  0  0
  1  2  1  0  0  0
  2  3  2  0  0  0
  3  6  1  0  0  0
  6  7  2  0  0  0
  7  8  1  0  0  0
  8  9  2  0  0  0
  9 10  1  0  0  0
  9 11  1  0  0  0
 11 12  1  0  0  0
 11 13  2  0  0  0
  3  4  1  0  0  0
  4  5  1  0  0  0
  5 29  1  0  0  0
 29 30  2  0  0  0
 29 31  1  0  0  0
 14 19  1  0  0  0
 19 20  2  0  0  0
 20 21  1  0  0  0
 21 22  2  0  0  0
 22 23  1  0  0  0
 23 24  2  0  0  0
  5  1  2  0  0  0
 24 19  1  0  0  0
 13  6  1  0  0  0
 17 18  1  0  0  0
 31 32  1  0  0  0
M  END
> <score>
-0.726353

> <minimizedAffinity>
-8.00325

> <CNNscore>
0.8475919962

> <CNNaffinity>
6.7997350693

> <CNN_VS>
5.7634010315

$$$$
HIPS440


 32 34  0  0  0  0  0  0  0  0999 V2000
   69.5361   78.8094   90.3187 C   0  0  0  0  0  0  0  0  0  0  0  0
   69.0796   80.1118   90.0432 C   0  0  0  0  0  0  0  0  0  0  0  0
   70.0979   81.0642   89.9798 C   0  0  0  0  0  0  0  0  0  0  0  0
   71.5569   80.2714   90.2729 S   0  0  0  0  0  0  0  0  0  0  0  0
   70.9230   78.7294   90.4843 C   0  0  0  0  0  0  0  0  0  0  0  0
   69.9450   82.5184   89.7139 C   0  0  0  0  0  0  0  0  0  0  0  0
   70.4176   83.0719   88.5098 C   0  0  0  0  0  0  0  0  0  0  0  0
   70.2775   84.4375   88.2510 C   0  0  0  0  0  0  0  0  0  0  0  0
   69.6668   85.2751   89.1878 C   0  0  0  0  0  0  0  0  0  0  0  0
   69.5096   86.9886   88.8249 Cl  0  0  0  0  0  0  0  0  0  0  0  0
   69.1937   84.7392   90.3956 C   0  0  0  0  0  0  0  0  0  0  0  0
   68.4256   85.7597   91.6047 Cl  0  0  0  0  0  0  0  0  0  0  0  0
   69.3338   83.3703   90.6545 C   0  0  0  0  0  0  0  0  0  0  0  0
   67.8785   75.8155   91.9810 N   0  0  0  0  0  0  0  0  0  0  0  0
   68.2990   77.1885   91.7976 C   0  0  0  0  0  0  0  0  0  0  0  0
   68.3311   77.9695   92.7886 O   0  0  0  0  0  0  0  0  0  0  0  0
   68.6449   77.6972   90.4985 N   0  0  0  0  0  0  0  0  0  0  0  0
   68.2566   77.2674   89.7024 H   0  0  0  0  0  0  0  0  0  0  0  0
   67.4316   75.3736   93.2786 C   0  0  0  0  0  0  0  0  0  0  0  0
   68.3416   74.8274   94.2007 C   0  0  0  0  0  0  0  0  0  0  0  0
   67.8988   74.3830   95.4500 C   0  0  0  0  0  0  0  0  0  0  0  0
   66.5468   74.4807   95.7893 C   0  0  0  0  0  0  0  0  0  0  0  0
   65.6353   75.0232   94.8795 C   0  0  0  0  0  0  0  0  0  0  0  0
   66.0742   75.4679   93.6287 C   0  0  0  0  0  0  0  0  0  0  0  0
   67.9146   74.8391   90.8778 C   0  0  0  0  0  0  0  0  0  0  0  0
   69.0286   73.7931   91.0658 C   0  0  0  0  0  0  0  0  0  0  0  0
   69.6297   71.3243   91.3463 C   0  0  0  0  0  0  0  0  0  0  0  0
   68.5156   72.3705   91.3424 C   0  0  0  0  0  0  0  0  0  0  0  0
   71.7450   77.5339   90.7390 C   0  0  0  0  0  0  0  0  0  0  0  0
   71.4291   76.7106   91.6382 O   0  0  0  0  0  0  0  0  0  0  0  0
   72.8728   77.2977   89.9591 O   0  0  0  0  0  0  0  0  0  0  0  0
   73.1142   77.9056   89.2881 H   0  0  0  0  0  0  0  0  0  0  0  0
 27 28  1  0  0  0
 28 26  1  0  0  0
 26 25  1  0  0  0
 25 14  1  0  0  0
 14 15  1  0  0  0
 15 16  2  0  0  0
 15 17  1  0  0  0
 17  1  1  0  0  0
  1  2  1  0  0  0
  2  3  2  0  0  0
  3  6  1  0  0  0
  6  7  2  0  0  0
  7  8  1  0  0  0
  8  9  2  0  0  0
  9 10  1  0  0  0
  9 11  1  0  0  0
 11 12  1  0  0  0
 11 13  2  0  0  0
  3  4  1  0  0  0
  4  5  1  0  0  0
  5 29  1  0  0  0
 29 30  2  0  0  0
 29 31  1  0  0  0
 14 19  1  0  0  0
 19 20  2  0  0  0
 20 21  1  0  0  0
 21 22  2  0  0  0
 22 23  1  0  0  0
 23 24  2  0  0  0
  5  1  2  0  0  0
 24 19  1  0  0  0
 13  6  1  0  0  0
 17 18  1  0  0  0
 31 32  1  0  0  0
M  END
> <score>
-0.726353

> <minimizedAffinity>
-7.30680

> <CNNscore>
0.6142886877

> <CNNaffinity>
6.6040964127

> <CNN_VS>
4.0568218231

$$$$
HIPS441


 31 33  0  0  0  0  0  0  0  0999 V2000
   69.6084   78.6257   90.5731 C   0  0  0  0  0  0  0  0  0  0  0  0
   68.8908   79.8309   90.5447 C   0  0  0  0  0  0  0  0  0  0  0  0
   69.6745   80.9445   90.2378 C   0  0  0  0  0  0  0  0  0  0  0  0
   71.2616   80.4106   90.0333 S   0  0  0  0  0  0  0  0  0  0  0  0
   70.9769   78.7793   90.3199 C   0  0  0  0  0  0  0  0  0  0  0  0
   69.2160   82.3529   90.1199 C   0  0  0  0  0  0  0  0  0  0  0  0
   68.7485   82.8463   88.8864 C   0  0  0  0  0  0  0  0  0  0  0  0
   68.3147   84.1711   88.7676 C   0  0  0  0  0  0  0  0  0  0  0  0
   67.7401   84.7704   87.2221 Cl  0  0  0  0  0  0  0  0  0  0  0  0
   68.3398   85.0181   89.8779 C   0  0  0  0  0  0  0  0  0  0  0  0
   68.7966   84.5421   91.1091 C   0  0  0  0  0  0  0  0  0  0  0  0
   68.8198   85.6058   92.5041 Cl  0  0  0  0  0  0  0  0  0  0  0  0
   69.2317   83.2179   91.2320 C   0  0  0  0  0  0  0  0  0  0  0  0
   67.9430   75.2177   90.0763 N   0  0  0  0  0  0  0  0  0  0  0  0
   68.3511   76.5818   89.8211 C   0  0  0  0  0  0  0  0  0  0  0  0
   68.1620   77.0882   88.6805 O   0  0  0  0  0  0  0  0  0  0  0  0
   68.9635   77.3756   90.8501 N   0  0  0  0  0  0  0  0  0  0  0  0
   68.9395   77.0495   91.7787 H   0  0  0  0  0  0  0  0  0  0  0  0
   67.2595   73.0131   89.2218 C   0  0  0  0  0  0  0  0  0  0  0  0
   67.0855   74.5233   89.1033 C   0  0  0  0  0  0  0  0  0  0  0  0
   68.4449   74.4847   91.2500 C   0  0  0  0  0  0  0  0  0  0  0  0
   67.4569   74.5625   92.3837 C   0  0  0  0  0  0  0  0  0  0  0  0
   67.0935   73.3970   93.0786 C   0  0  0  0  0  0  0  0  0  0  0  0
   66.1977   73.4660   94.1501 C   0  0  0  0  0  0  0  0  0  0  0  0
   65.6594   74.6969   94.5350 C   0  0  0  0  0  0  0  0  0  0  0  0
   66.0138   75.8606   93.8469 C   0  0  0  0  0  0  0  0  0  0  0  0
   66.9078   75.7960   92.7737 C   0  0  0  0  0  0  0  0  0  0  0  0
   72.0416   77.7648   90.3918 C   0  0  0  0  0  0  0  0  0  0  0  0
   72.0935   76.9495   91.3496 O   0  0  0  0  0  0  0  0  0  0  0  0
   73.0230   77.7279   89.4062 O   0  0  0  0  0  0  0  0  0  0  0  0
   72.9909   78.3316   88.6903 H   0  0  0  0  0  0  0  0  0  0  0  0
 19 20  1  0  0  0
 20 14  1  0  0  0
 14 21  1  0  0  0
 21 22  1  0  0  0
 22 23  2  0  0  0
 23 24  1  0  0  0
 24 25  2  0  0  0
 25 26  1  0  0  0
 26 27  2  0  0  0
 14 15  1  0  0  0
 15 16  2  0  0  0
 15 17  1  0  0  0
 17  1  1  0  0  0
  1  2  1  0  0  0
  2  3  2  0  0  0
  3  6  1  0  0  0
  6  7  2  0  0  0
  7  8  1  0  0  0
  8  9  1  0  0  0
  8 10  2  0  0  0
 10 11  1  0  0  0
 11 12  1  0  0  0
 11 13  2  0  0  0
  3  4  1  0  0  0
  4  5  1  0  0  0
  5 28  1  0  0  0
 28 29  2  0  0  0
 28 30  1  0  0  0
 27 22  1  0  0  0
  5  1  2  0  0  0
 13  6  1  0  0  0
 17 18  1  0  0  0
 30 31  1  0  0  0
M  END
> <score>
0.315267

> <minimizedAffinity>
-7.17188

> <CNNscore>
0.4083889127

> <CNNaffinity>
6.4042606354

> <CNN_VS>
2.6154289246

$$$$
HIPS441


 31 33  0  0  0  0  0  0  0  0999 V2000
   69.4133   77.9642   91.0096 C   0  0  0  0  0  0  0  0  0  0  0  0
   68.5091   79.0141   90.7894 C   0  0  0  0  0  0  0  0  0  0  0  0
   69.1016   80.1663   90.2698 C   0  0  0  0  0  0  0  0  0  0  0  0
   70.7546   79.8662   90.1188 S   0  0  0  0  0  0  0  0  0  0  0  0
   70.7389   78.2878   90.6957 C   0  0  0  0  0  0  0  0  0  0  0  0
   68.4200   81.4390   89.9187 C   0  0  0  0  0  0  0  0  0  0  0  0
   68.4193   81.9002   88.5880 C   0  0  0  0  0  0  0  0  0  0  0  0
   67.7794   83.0974   88.2495 C   0  0  0  0  0  0  0  0  0  0  0  0
   67.7925   83.6593   86.5876 Cl  0  0  0  0  0  0  0  0  0  0  0  0
   67.1310   83.8470   89.2335 C   0  0  0  0  0  0  0  0  0  0  0  0
   67.1193   83.4006   90.5571 C   0  0  0  0  0  0  0  0  0  0  0  0
   66.2975   84.3402   91.7899 Cl  0  0  0  0  0  0  0  0  0  0  0  0
   67.7585   82.2039   90.8998 C   0  0  0  0  0  0  0  0  0  0  0  0
   67.5705   75.3289   93.0817 N   0  0  0  0  0  0  0  0  0  0  0  0
   68.2139   76.5754   92.7291 C   0  0  0  0  0  0  0  0  0  0  0  0
   68.1087   77.5724   93.4961 O   0  0  0  0  0  0  0  0  0  0  0  0
   68.9801   76.6964   91.5199 N   0  0  0  0  0  0  0  0  0  0  0  0
   69.2161   75.8794   91.0238 H   0  0  0  0  0  0  0  0  0  0  0  0
   65.7520   74.3142   94.3937 C   0  0  0  0  0  0  0  0  0  0  0  0
   67.0251   75.1522   94.4366 C   0  0  0  0  0  0  0  0  0  0  0  0
   67.3740   74.2687   92.0795 C   0  0  0  0  0  0  0  0  0  0  0  0
   68.4627   73.2337   92.1851 C   0  0  0  0  0  0  0  0  0  0  0  0
   69.2856   73.1948   93.3229 C   0  0  0  0  0  0  0  0  0  0  0  0
   70.2803   72.2191   93.4400 C   0  0  0  0  0  0  0  0  0  0  0  0
   70.4602   71.2767   92.4238 C   0  0  0  0  0  0  0  0  0  0  0  0
   69.6474   71.3104   91.2874 C   0  0  0  0  0  0  0  0  0  0  0  0
   68.6527   72.2854   91.1654 C   0  0  0  0  0  0  0  0  0  0  0  0
   71.9545   77.4865   90.9155 C   0  0  0  0  0  0  0  0  0  0  0  0
   72.1505   76.8972   92.0105 O   0  0  0  0  0  0  0  0  0  0  0  0
   72.9154   77.4067   89.9125 O   0  0  0  0  0  0  0  0  0  0  0  0
   72.7764   77.8427   89.0948 H   0  0  0  0  0  0  0  0  0  0  0  0
 19 20  1  0  0  0
 20 14  1  0  0  0
 14 21  1  0  0  0
 21 22  1  0  0  0
 22 23  2  0  0  0
 23 24  1  0  0  0
 24 25  2  0  0  0
 25 26  1  0  0  0
 26 27  2  0  0  0
 14 15  1  0  0  0
 15 16  2  0  0  0
 15 17  1  0  0  0
 17  1  1  0  0  0
  1  2  1  0  0  0
  2  3  2  0  0  0
  3  6  1  0  0  0
  6  7  2  0  0  0
  7  8  1  0  0  0
  8  9  1  0  0  0
  8 10  2  0  0  0
 10 11  1  0  0  0
 11 12  1  0  0  0
 11 13  2  0  0  0
  3  4  1  0  0  0
  4  5  1  0  0  0
  5 28  1  0  0  0
 28 29  2  0  0  0
 28 30  1  0  0  0
 27 22  1  0  0  0
  5  1  2  0  0  0
 13  6  1  0  0  0
 17 18  1  0  0  0
 30 31  1  0  0  0
M  END
> <score>
0.315267

> <minimizedAffinity>
-6.87655

> <CNNscore>
0.3792374730

> <CNNaffinity>
6.3127241135

> <CNN_VS>
2.3940215111

$$$$
HIPS441


 31 33  0  0  0  0  0  0  0  0999 V2000
   68.0668   81.0988   89.7170 C   0  0  0  0  0  0  0  0  0  0  0  0
   68.0676   80.0670   88.7662 C   0  0  0  0  0  0  0  0  0  0  0  0
   67.4759   78.8862   89.2179 C   0  0  0  0  0  0  0  0  0  0  0  0
   66.9843   79.1391   90.8115 S   0  0  0  0  0  0  0  0  0  0  0  0
   67.5018   80.7325   90.9446 C   0  0  0  0  0  0  0  0  0  0  0  0
   67.3106   77.6225   88.4541 C   0  0  0  0  0  0  0  0  0  0  0  0
   67.2859   76.3850   89.1260 C   0  0  0  0  0  0  0  0  0  0  0  0
   67.1302   75.1909   88.4138 C   0  0  0  0  0  0  0  0  0  0  0  0
   67.1065   73.6579   89.2667 Cl  0  0  0  0  0  0  0  0  0  0  0  0
   66.9949   75.2174   87.0239 C   0  0  0  0  0  0  0  0  0  0  0  0
   67.0132   76.4372   86.3437 C   0  0  0  0  0  0  0  0  0  0  0  0
   66.8353   76.4683   84.5986 Cl  0  0  0  0  0  0  0  0  0  0  0  0
   67.1691   77.6337   87.0523 C   0  0  0  0  0  0  0  0  0  0  0  0
   70.4590   83.8370   88.5278 N   0  0  0  0  0  0  0  0  0  0  0  0
   69.9939   82.5798   89.0715 C   0  0  0  0  0  0  0  0  0  0  0  0
   70.8112   81.6344   89.2489 O   0  0  0  0  0  0  0  0  0  0  0  0
   68.6134   82.3908   89.4216 N   0  0  0  0  0  0  0  0  0  0  0  0
   68.0216   83.1766   89.4601 H   0  0  0  0  0  0  0  0  0  0  0  0
   72.6311   83.5157   89.6398 C   0  0  0  0  0  0  0  0  0  0  0  0
   71.9042   84.0947   88.4310 C   0  0  0  0  0  0  0  0  0  0  0  0
   69.5108   84.8251   87.9881 C   0  0  0  0  0  0  0  0  0  0  0  0
   69.4842   86.0583   88.8518 C   0  0  0  0  0  0  0  0  0  0  0  0
   69.9591   87.2796   88.3456 C   0  0  0  0  0  0  0  0  0  0  0  0
   69.9118   88.4345   89.1325 C   0  0  0  0  0  0  0  0  0  0  0  0
   69.3908   88.3786   90.4280 C   0  0  0  0  0  0  0  0  0  0  0  0
   68.9189   87.1669   90.9399 C   0  0  0  0  0  0  0  0  0  0  0  0
   68.9659   86.0091   90.1572 C   0  0  0  0  0  0  0  0  0  0  0  0
   67.4456   81.5077   92.1952 C   0  0  0  0  0  0  0  0  0  0  0  0
   66.9683   81.0049   93.2460 O   0  0  0  0  0  0  0  0  0  0  0  0
   67.8947   82.8245   92.2079 O   0  0  0  0  0  0  0  0  0  0  0  0
   68.2512   83.2054   91.4296 H   0  0  0  0  0  0  0  0  0  0  0  0
 19 20  1  0  0  0
 20 14  1  0  0  0
 14 21  1  0  0  0
 21 22  1  0  0  0
 22 23  2  0  0  0
 23 24  1  0  0  0
 24 25  2  0  0  0
 25 26  1  0  0  0
 26 27  2  0  0  0
 14 15  1  0  0  0
 15 16  2  0  0  0
 15 17  1  0  0  0
 17  1  1  0  0  0
  1  2  1  0  0  0
  2  3  2  0  0  0
  3  6  1  0  0  0
  6  7  2  0  0  0
  7  8  1  0  0  0
  8  9  1  0  0  0
  8 10  2  0  0  0
 10 11  1  0  0  0
 11 12  1  0  0  0
 11 13  2  0  0  0
  3  4  1  0  0  0
  4  5  1  0  0  0
  5 28  1  0  0  0
 28 29  2  0  0  0
 28 30  1  0  0  0
 27 22  1  0  0  0
  5  1  2  0  0  0
 13  6  1  0  0  0
 17 18  1  0  0  0
 30 31  1  0  0  0
M  END
> <score>
0.315267

> <minimizedAffinity>
-7.13179

> <CNNscore>
0.3163767159

> <CNNaffinity>
6.3213167191

> <CNN_VS>
1.9999173880

$$$$
HIPS448


 29 31  0  0  0  0  0  0  0  0999 V2000
   69.5917   78.3637   90.4416 C   0  0  0  0  0  0  0  0  0  0  0  0
   69.0904   79.5694   89.9171 C   0  0  0  0  0  0  0  0  0  0  0  0
   70.0476   80.5806   89.8153 C   0  0  0  0  0  0  0  0  0  0  0  0
   71.5076   79.9605   90.3874 S   0  0  0  0  0  0  0  0  0  0  0  0
   70.9504   78.4218   90.7690 C   0  0  0  0  0  0  0  0  0  0  0  0
   69.8381   81.9617   89.3072 C   0  0  0  0  0  0  0  0  0  0  0  0
   70.7363   82.9879   89.6540 C   0  0  0  0  0  0  0  0  0  0  0  0
   70.5481   84.2886   89.1805 C   0  0  0  0  0  0  0  0  0  0  0  0
   69.4613   84.5900   88.3558 C   0  0  0  0  0  0  0  0  0  0  0  0
   69.2592   86.2395   87.7805 Cl  0  0  0  0  0  0  0  0  0  0  0  0
   68.5542   83.5786   88.0038 C   0  0  0  0  0  0  0  0  0  0  0  0
   67.1694   83.9171   86.9735 Cl  0  0  0  0  0  0  0  0  0  0  0  0
   68.7433   82.2748   88.4781 C   0  0  0  0  0  0  0  0  0  0  0  0
   67.8927   74.4396   91.1031 C   0  0  0  0  0  0  0  0  0  0  0  0
   67.9505   75.3958   92.2127 N   0  0  0  0  0  0  0  0  0  0  0  0
   68.5077   76.7133   92.0163 C   0  0  0  0  0  0  0  0  0  0  0  0
   68.7633   77.4365   93.0186 O   0  0  0  0  0  0  0  0  0  0  0  0
   68.7603   77.2193   90.6937 N   0  0  0  0  0  0  0  0  0  0  0  0
   68.3453   76.7613   89.9275 H   0  0  0  0  0  0  0  0  0  0  0  0
   67.4038   75.0290   93.4937 C   0  0  0  0  0  0  0  0  0  0  0  0
   68.1400   74.2162   94.3726 C   0  0  0  0  0  0  0  0  0  0  0  0
   67.6083   73.8596   95.6158 C   0  0  0  0  0  0  0  0  0  0  0  0
   66.3394   74.3100   95.9901 C   0  0  0  0  0  0  0  0  0  0  0  0
   65.5999   75.1173   95.1214 C   0  0  0  0  0  0  0  0  0  0  0  0
   66.1282   75.4764   93.8774 C   0  0  0  0  0  0  0  0  0  0  0  0
   71.8078   77.3468   91.2970 C   0  0  0  0  0  0  0  0  0  0  0  0
   72.7624   76.8871   90.6160 O   0  0  0  0  0  0  0  0  0  0  0  0
   71.5747   76.8481   92.5750 O   0  0  0  0  0  0  0  0  0  0  0  0
   70.8664   77.1852   93.0875 H   0  0  0  0  0  0  0  0  0  0  0  0
 14 15  1  0  0  0
 15 16  1  0  0  0
 16 17  2  0  0  0
 16 18  1  0  0  0
 18  1  1  0  0  0
  1  2  1  0  0  0
  2  3  2  0  0  0
  3  6  1  0  0  0
  6  7  2  0  0  0
  7  8  1  0  0  0
  8  9  2  0  0  0
  9 10  1  0  0  0
  9 11  1  0  0  0
 11 12  1  0  0  0
 11 13  2  0  0  0
  3  4  1  0  0  0
  4  5  1  0  0  0
  5 26  1  0  0  0
 26 27  2  0  0  0
 26 28  1  0  0  0
 15 20  1  0  0  0
 20 21  2  0  0  0
 21 22  1  0  0  0
 22 23  2  0  0  0
 23 24  1  0  0  0
 24 25  2  0  0  0
  5  1  2  0  0  0
 25 20  1  0  0  0
 13  6  1  0  0  0
 18 19  1  0  0  0
 28 29  1  0  0  0
M  END
> <score>
-0.496417

> <minimizedAffinity>
-7.80440

> <CNNscore>
0.8361397386

> <CNNaffinity>
6.3410968781

> <CNN_VS>
5.3020429611

$$$$
HIPS448


 29 31  0  0  0  0  0  0  0  0999 V2000
   69.6595   77.7827   91.4901 C   0  0  0  0  0  0  0  0  0  0  0  0
   68.7892   78.6690   90.8288 C   0  0  0  0  0  0  0  0  0  0  0  0
   69.4443   79.6435   90.0737 C   0  0  0  0  0  0  0  0  0  0  0  0
   71.1029   79.3922   90.2452 S   0  0  0  0  0  0  0  0  0  0  0  0
   71.0121   78.0624   91.2686 C   0  0  0  0  0  0  0  0  0  0  0  0
   68.8152   80.7211   89.2660 C   0  0  0  0  0  0  0  0  0  0  0  0
   67.7096   80.4361   88.4435 C   0  0  0  0  0  0  0  0  0  0  0  0
   67.1111   81.4426   87.6816 C   0  0  0  0  0  0  0  0  0  0  0  0
   67.6048   82.7489   87.7240 C   0  0  0  0  0  0  0  0  0  0  0  0
   66.8237   83.9874   86.7501 Cl  0  0  0  0  0  0  0  0  0  0  0  0
   68.7092   83.0488   88.5364 C   0  0  0  0  0  0  0  0  0  0  0  0
   69.3658   84.6786   88.6134 Cl  0  0  0  0  0  0  0  0  0  0  0  0
   69.3086   82.0399   89.3004 C   0  0  0  0  0  0  0  0  0  0  0  0
   67.5214   74.6469   93.5680 C   0  0  0  0  0  0  0  0  0  0  0  0
   68.7776   74.3298   92.8822 N   0  0  0  0  0  0  0  0  0  0  0  0
   69.5127   75.3595   92.1864 C   0  0  0  0  0  0  0  0  0  0  0  0
   70.4568   75.0358   91.4138 O   0  0  0  0  0  0  0  0  0  0  0  0
   69.1945   76.7497   92.3738 N   0  0  0  0  0  0  0  0  0  0  0  0
   68.6334   77.0046   93.1415 H   0  0  0  0  0  0  0  0  0  0  0  0
   69.3010   72.9895   92.9456 C   0  0  0  0  0  0  0  0  0  0  0  0
   70.1872   72.6220   93.9725 C   0  0  0  0  0  0  0  0  0  0  0  0
   70.6957   71.3208   94.0331 C   0  0  0  0  0  0  0  0  0  0  0  0
   70.3249   70.3784   93.0701 C   0  0  0  0  0  0  0  0  0  0  0  0
   69.4453   70.7359   92.0445 C   0  0  0  0  0  0  0  0  0  0  0  0
   68.9344   72.0360   91.9806 C   0  0  0  0  0  0  0  0  0  0  0  0
   72.1882   77.3263   91.7630 C   0  0  0  0  0  0  0  0  0  0  0  0
   72.4917   77.3377   92.9853 O   0  0  0  0  0  0  0  0  0  0  0  0
   72.9613   76.5891   90.8714 O   0  0  0  0  0  0  0  0  0  0  0  0
   72.7416   76.5759   89.9606 H   0  0  0  0  0  0  0  0  0  0  0  0
 14 15  1  0  0  0
 15 16  1  0  0  0
 16 17  2  0  0  0
 16 18  1  0  0  0
 18  1  1  0  0  0
  1  2  1  0  0  0
  2  3  2  0  0  0
  3  6  1  0  0  0
  6  7  2  0  0  0
  7  8  1  0  0  0
  8  9  2  0  0  0
  9 10  1  0  0  0
  9 11  1  0  0  0
 11 12  1  0  0  0
 11 13  2  0  0  0
  3  4  1  0  0  0
  4  5  1  0  0  0
  5 26  1  0  0  0
 26 27  2  0  0  0
 26 28  1  0  0  0
 15 20  1  0  0  0
 20 21  2  0  0  0
 21 22  1  0  0  0
 22 23  2  0  0  0
 23 24  1  0  0  0
 24 25  2  0  0  0
  5  1  2  0  0  0
 25 20  1  0  0  0
 13  6  1  0  0  0
 18 19  1  0  0  0
 28 29  1  0  0  0
M  END
> <score>
-0.496417

> <minimizedAffinity>
-6.91909

> <CNNscore>
0.7120891213

> <CNNaffinity>
6.1550531387

> <CNN_VS>
4.3829464912

$$$$
HIPS448


 29 31  0  0  0  0  0  0  0  0999 V2000
   67.6780   78.8948   90.2979 C   0  0  0  0  0  0  0  0  0  0  0  0
   67.6547   78.3316   91.5873 C   0  0  0  0  0  0  0  0  0  0  0  0
   67.3506   76.9692   91.6016 C   0  0  0  0  0  0  0  0  0  0  0  0
   67.1075   76.4838   90.0051 S   0  0  0  0  0  0  0  0  0  0  0  0
   67.3790   77.9776   89.2848 C   0  0  0  0  0  0  0  0  0  0  0  0
   67.2458   76.0893   92.7950 C   0  0  0  0  0  0  0  0  0  0  0  0
   68.0125   74.9123   92.8770 C   0  0  0  0  0  0  0  0  0  0  0  0
   67.9213   74.0798   93.9951 C   0  0  0  0  0  0  0  0  0  0  0  0
   67.0635   74.4039   95.0492 C   0  0  0  0  0  0  0  0  0  0  0  0
   66.9771   73.3300   96.4391 Cl  0  0  0  0  0  0  0  0  0  0  0  0
   66.2891   75.5724   94.9812 C   0  0  0  0  0  0  0  0  0  0  0  0
   65.1919   76.0134   96.2832 Cl  0  0  0  0  0  0  0  0  0  0  0  0
   66.3810   76.4069   93.8606 C   0  0  0  0  0  0  0  0  0  0  0  0
   68.3730   83.1591   90.5324 C   0  0  0  0  0  0  0  0  0  0  0  0
   69.4241   82.2862   90.0012 N   0  0  0  0  0  0  0  0  0  0  0  0
   69.2146   80.8607   89.9075 C   0  0  0  0  0  0  0  0  0  0  0  0
   70.1953   80.1020   89.6711 O   0  0  0  0  0  0  0  0  0  0  0  0
   67.9016   80.2946   90.0638 N   0  0  0  0  0  0  0  0  0  0  0  0
   67.1216   80.8928   90.0079 H   0  0  0  0  0  0  0  0  0  0  0  0
   70.6546   82.8658   89.5278 C   0  0  0  0  0  0  0  0  0  0  0  0
   70.6809   83.5883   88.3228 C   0  0  0  0  0  0  0  0  0  0  0  0
   71.8762   84.1501   87.8632 C   0  0  0  0  0  0  0  0  0  0  0  0
   73.0526   83.9941   88.6013 C   0  0  0  0  0  0  0  0  0  0  0  0
   73.0357   83.2757   89.8000 C   0  0  0  0  0  0  0  0  0  0  0  0
   71.8424   82.7127   90.2631 C   0  0  0  0  0  0  0  0  0  0  0  0
   67.3517   78.2034   87.8296 C   0  0  0  0  0  0  0  0  0  0  0  0
   67.4351   77.2392   87.0236 O   0  0  0  0  0  0  0  0  0  0  0  0
   67.2083   79.4973   87.3382 O   0  0  0  0  0  0  0  0  0  0  0  0
   67.1456   80.2196   87.9318 H   0  0  0  0  0  0  0  0  0  0  0  0
 14 15  1  0  0  0
 15 16  1  0  0  0
 16 17  2  0  0  0
 16 18  1  0  0  0
 18  1  1  0  0  0
  1  2  1  0  0  0
  2  3  2  0  0  0
  3  6  1  0  0  0
  6  7  2  0  0  0
  7  8  1  0  0  0
  8  9  2  0  0  0
  9 10  1  0  0  0
  9 11  1  0  0  0
 11 12  1  0  0  0
 11 13  2  0  0  0
  3  4  1  0  0  0
  4  5  1  0  0  0
  5 26  1  0  0  0
 26 27  2  0  0  0
 26 28  1  0  0  0
 15 20  1  0  0  0
 20 21  2  0  0  0
 21 22  1  0  0  0
 22 23  2  0  0  0
 23 24  1  0  0  0
 24 25  2  0  0  0
  5  1  2  0  0  0
 25 20  1  0  0  0
 13  6  1  0  0  0
 18 19  1  0  0  0
 28 29  1  0  0  0
M  END
> <score>
-0.496417

> <minimizedAffinity>
-7.42947

> <CNNscore>
0.4438118935

> <CNNaffinity>
5.9851551056

> <CNN_VS>
2.6562829018

$$$$
HIPS449


 35 38  0  0  0  0  0  0  0  0999 V2000
   68.1457   76.4100   91.8251 N   0  0  0  0  0  0  0  0  0  0  0  0
   68.2524   75.0316   91.4263 C   0  0  0  0  0  0  0  0  0  0  0  0
   68.9453   74.7216   90.4189 O   0  0  0  0  0  0  0  0  0  0  0  0
   67.5793   73.9980   92.1761 N   0  0  0  0  0  0  0  0  0  0  0  0
   67.6032   76.6266   92.6176 H   0  0  0  0  0  0  0  0  0  0  0  0
   67.2584   74.2019   93.5642 C   0  0  0  0  0  0  0  0  0  0  0  0
   68.2661   74.5250   94.4870 C   0  0  0  0  0  0  0  0  0  0  0  0
   67.9477   74.7330   95.8325 C   0  0  0  0  0  0  0  0  0  0  0  0
   66.6229   74.6222   96.2645 C   0  0  0  0  0  0  0  0  0  0  0  0
   65.6141   74.3042   95.3511 C   0  0  0  0  0  0  0  0  0  0  0  0
   65.9284   74.0967   94.0051 C   0  0  0  0  0  0  0  0  0  0  0  0
   70.1698   77.7066   91.1599 C   0  0  0  0  0  0  0  0  0  0  0  0
   70.4883   79.1196   90.3057 S   0  0  0  0  0  0  0  0  0  0  0  0
   68.8940   79.4748   89.8866 C   0  0  0  0  0  0  0  0  0  0  0  0
   68.0806   78.4767   90.4247 C   0  0  0  0  0  0  0  0  0  0  0  0
   68.7904   77.4852   91.1259 C   0  0  0  0  0  0  0  0  0  0  0  0
   68.4511   80.6557   89.1023 C   0  0  0  0  0  0  0  0  0  0  0  0
   67.4319   80.5277   88.1411 C   0  0  0  0  0  0  0  0  0  0  0  0
   67.0100   81.6347   87.4005 C   0  0  0  0  0  0  0  0  0  0  0  0
   67.5936   82.8873   87.6074 C   0  0  0  0  0  0  0  0  0  0  0  0
   67.0345   84.2561   86.6555 Cl  0  0  0  0  0  0  0  0  0  0  0  0
   68.6078   83.0321   88.5669 C   0  0  0  0  0  0  0  0  0  0  0  0
   69.3623   84.5927   88.8649 Cl  0  0  0  0  0  0  0  0  0  0  0  0
   69.0308   81.9223   89.3085 C   0  0  0  0  0  0  0  0  0  0  0  0
   70.9452   76.2172   92.8268 O   0  0  0  0  0  0  0  0  0  0  0  0
   71.2053   76.8570   91.7730 C   0  0  0  0  0  0  0  0  0  0  0  0
   72.4767   76.7695   91.2151 O   0  0  0  0  0  0  0  0  0  0  0  0
   72.6781   77.2422   90.4315 H   0  0  0  0  0  0  0  0  0  0  0  0
   67.3988   72.6606   91.5941 C   0  0  0  0  0  0  0  0  0  0  0  0
   68.6436   71.8357   91.7864 C   0  0  0  0  0  0  0  0  0  0  0  0
   69.2730   71.7747   93.0410 C   0  0  0  0  0  0  0  0  0  0  0  0
   70.4074   70.9770   93.2218 C   0  0  0  0  0  0  0  0  0  0  0  0
   70.9170   70.2314   92.1553 C   0  0  0  0  0  0  0  0  0  0  0  0
   70.2930   70.2818   90.9060 C   0  0  0  0  0  0  0  0  0  0  0  0
   69.1594   71.0788   90.7207 C   0  0  0  0  0  0  0  0  0  0  0  0
 25 26  2  0  0  0
 26 27  1  0  0  0
 26 12  1  0  0  0
 12 13  1  0  0  0
 13 14  1  0  0  0
 14 17  1  0  0  0
 17 18  2  0  0  0
 18 19  1  0  0  0
 19 20  2  0  0  0
 20 21  1  0  0  0
 20 22  1  0  0  0
 22 23  1  0  0  0
 22 24  2  0  0  0
 14 15  2  0  0  0
 15 16  1  0  0  0
 16  1  1  0  0  0
  1  2  1  0  0  0
  2  3  2  0  0  0
  2  4  1  0  0  0
  4 29  1  0  0  0
 29 30  1  0  0  0
 30 31  2  0  0  0
 31 32  1  0  0  0
 32 33  2  0  0  0
 33 34  1  0  0  0
 34 35  2  0  0  0
  4  6  1  0  0  0
  6  7  2  0  0  0
  7  8  1  0  0  0
  8  9  2  0  0  0
  9 10  1  0  0  0
 10 11  2  0  0  0
 16 12  2  0  0  0
 35 30  1  0  0  0
 11  6  1  0  0  0
 24 17  1  0  0  0
 27 28  1  0  0  0
  1  5  1  0  0  0
M  END
> <score>
-0.677065

> <minimizedAffinity>
-8.27437

> <CNNscore>
0.8302130699

> <CNNaffinity>
7.0958890915

> <CNN_VS>
5.8910999298

$$$$
HIPS449


 35 38  0  0  0  0  0  0  0  0999 V2000
   68.4694   77.0116   91.5649 N   0  0  0  0  0  0  0  0  0  0  0  0
   68.6982   75.6251   91.2555 C   0  0  0  0  0  0  0  0  0  0  0  0
   69.6183   75.3043   90.4545 O   0  0  0  0  0  0  0  0  0  0  0  0
   67.8880   74.5959   91.8620 N   0  0  0  0  0  0  0  0  0  0  0  0
   67.7487   77.2367   92.1967 H   0  0  0  0  0  0  0  0  0  0  0  0
   67.2403   74.8338   93.1251 C   0  0  0  0  0  0  0  0  0  0  0  0
   67.5973   74.0869   94.2592 C   0  0  0  0  0  0  0  0  0  0  0  0
   66.9729   74.3294   95.4866 C   0  0  0  0  0  0  0  0  0  0  0  0
   65.9912   75.3191   95.5901 C   0  0  0  0  0  0  0  0  0  0  0  0
   65.6331   76.0688   94.4664 C   0  0  0  0  0  0  0  0  0  0  0  0
   66.2559   75.8300   93.2381 C   0  0  0  0  0  0  0  0  0  0  0  0
   70.6225   78.2022   91.1562 C   0  0  0  0  0  0  0  0  0  0  0  0
   71.1029   79.6437   90.4359 S   0  0  0  0  0  0  0  0  0  0  0  0
   69.5754   80.1400   89.9218 C   0  0  0  0  0  0  0  0  0  0  0  0
   68.6564   79.1684   90.3201 C   0  0  0  0  0  0  0  0  0  0  0  0
   69.2391   78.0830   90.9991 C   0  0  0  0  0  0  0  0  0  0  0  0
   69.2776   81.4005   89.1948 C   0  0  0  0  0  0  0  0  0  0  0  0
   68.0551   81.5566   88.5164 C   0  0  0  0  0  0  0  0  0  0  0  0
   67.7682   82.7399   87.8314 C   0  0  0  0  0  0  0  0  0  0  0  0
   68.6923   83.7880   87.8137 C   0  0  0  0  0  0  0  0  0  0  0  0
   68.2937   85.2614   86.9406 Cl  0  0  0  0  0  0  0  0  0  0  0  0
   69.9141   83.6494   88.4907 C   0  0  0  0  0  0  0  0  0  0  0  0
   71.1008   84.9474   88.5010 Cl  0  0  0  0  0  0  0  0  0  0  0  0
   70.2015   82.4630   89.1765 C   0  0  0  0  0  0  0  0  0  0  0  0
   72.6607   77.0039   91.2463 O   0  0  0  0  0  0  0  0  0  0  0  0
   71.5457   77.2407   91.7832 C   0  0  0  0  0  0  0  0  0  0  0  0
   71.1925   76.5721   92.9509 O   0  0  0  0  0  0  0  0  0  0  0  0
   70.3651   76.7425   93.3564 H   0  0  0  0  0  0  0  0  0  0  0  0
   67.8808   73.2359   91.3050 C   0  0  0  0  0  0  0  0  0  0  0  0
   67.4271   73.2626   89.8696 C   0  0  0  0  0  0  0  0  0  0  0  0
   67.0361   74.4698   89.2666 C   0  0  0  0  0  0  0  0  0  0  0  0
   66.6515   74.4934   87.9223 C   0  0  0  0  0  0  0  0  0  0  0  0
   66.6602   73.3157   87.1701 C   0  0  0  0  0  0  0  0  0  0  0  0
   67.0538   72.1120   87.7608 C   0  0  0  0  0  0  0  0  0  0  0  0
   67.4381   72.0838   89.1048 C   0  0  0  0  0  0  0  0  0  0  0  0
 25 26  2  0  0  0
 26 27  1  0  0  0
 26 12  1  0  0  0
 12 13  1  0  0  0
 13 14  1  0  0  0
 14 17  1  0  0  0
 17 18  2  0  0  0
 18 19  1  0  0  0
 19 20  2  0  0  0
 20 21  1  0  0  0
 20 22  1  0  0  0
 22 23  1  0  0  0
 22 24  2  0  0  0
 14 15  2  0  0  0
 15 16  1  0  0  0
 16  1  1  0  0  0
  1  2  1  0  0  0
  2  3  2  0  0  0
  2  4  1  0  0  0
  4 29  1  0  0  0
 29 30  1  0  0  0
 30 31  2  0  0  0
 31 32  1  0  0  0
 32 33  2  0  0  0
 33 34  1  0  0  0
 34 35  2  0  0  0
  4  6  1  0  0  0
  6  7  2  0  0  0
  7  8  1  0  0  0
  8  9  2  0  0  0
  9 10  1  0  0  0
 10 11  2  0  0  0
 16 12  2  0  0  0
 35 30  1  0  0  0
 11  6  1  0  0  0
 24 17  1  0  0  0
 27 28  1  0  0  0
  1  5  1  0  0  0
M  END
> <score>
-0.677065

> <minimizedAffinity>
-7.64589

> <CNNscore>
0.5543817878

> <CNNaffinity>
6.9645690918

> <CNN_VS>
3.8610303402

$$$$
HIPS449


 35 38  0  0  0  0  0  0  0  0999 V2000
   69.1650   77.5773   90.6102 N   0  0  0  0  0  0  0  0  0  0  0  0
   67.9743   77.6217   91.4168 C   0  0  0  0  0  0  0  0  0  0  0  0
   67.5987   78.7150   91.9217 O   0  0  0  0  0  0  0  0  0  0  0  0
   67.1998   76.4254   91.6460 N   0  0  0  0  0  0  0  0  0  0  0  0
   69.4353   76.7134   90.2230 H   0  0  0  0  0  0  0  0  0  0  0  0
   67.2518   75.3372   90.7054 C   0  0  0  0  0  0  0  0  0  0  0  0
   67.7280   74.0771   91.1015 C   0  0  0  0  0  0  0  0  0  0  0  0
   67.7663   73.0201   90.1869 C   0  0  0  0  0  0  0  0  0  0  0  0
   67.3280   73.2134   88.8737 C   0  0  0  0  0  0  0  0  0  0  0  0
   66.8496   74.4639   88.4732 C   0  0  0  0  0  0  0  0  0  0  0  0
   66.8088   75.5225   89.3850 C   0  0  0  0  0  0  0  0  0  0  0  0
   71.3380   78.8007   90.6584 C   0  0  0  0  0  0  0  0  0  0  0  0
   71.8764   80.3482   90.2807 S   0  0  0  0  0  0  0  0  0  0  0  0
   70.4048   80.9506   89.7190 C   0  0  0  0  0  0  0  0  0  0  0  0
   69.4587   79.9307   89.8280 C   0  0  0  0  0  0  0  0  0  0  0  0
   69.9788   78.7289   90.3417 C   0  0  0  0  0  0  0  0  0  0  0  0
   70.1713   82.3303   89.2210 C   0  0  0  0  0  0  0  0  0  0  0  0
   71.1455   83.3274   89.4102 C   0  0  0  0  0  0  0  0  0  0  0  0
   70.9326   84.6270   88.9437 C   0  0  0  0  0  0  0  0  0  0  0  0
   69.7480   84.9537   88.2783 C   0  0  0  0  0  0  0  0  0  0  0  0
   69.5180   86.6004   87.7059 Cl  0  0  0  0  0  0  0  0  0  0  0  0
   68.7690   83.9682   88.0769 C   0  0  0  0  0  0  0  0  0  0  0  0
   67.2682   84.3351   87.2365 Cl  0  0  0  0  0  0  0  0  0  0  0  0
   68.9824   82.6661   88.5453 C   0  0  0  0  0  0  0  0  0  0  0  0
   72.9736   77.1110   90.3976 O   0  0  0  0  0  0  0  0  0  0  0  0
   72.2010   77.7267   91.1797 C   0  0  0  0  0  0  0  0  0  0  0  0
   72.1576   77.3672   92.5229 O   0  0  0  0  0  0  0  0  0  0  0  0
   71.5858   77.8201   93.1109 H   0  0  0  0  0  0  0  0  0  0  0  0
   66.2015   76.3858   92.7238 C   0  0  0  0  0  0  0  0  0  0  0  0
   66.6742   75.4929   93.8401 C   0  0  0  0  0  0  0  0  0  0  0  0
   67.9768   75.6179   94.3515 C   0  0  0  0  0  0  0  0  0  0  0  0
   68.3969   74.8106   95.4134 C   0  0  0  0  0  0  0  0  0  0  0  0
   67.5198   73.8790   95.9752 C   0  0  0  0  0  0  0  0  0  0  0  0
   66.2205   73.7530   95.4763 C   0  0  0  0  0  0  0  0  0  0  0  0
   65.7968   74.5573   94.4141 C   0  0  0  0  0  0  0  0  0  0  0  0
 25 26  2  0  0  0
 26 27  1  0  0  0
 26 12  1  0  0  0
 12 13  1  0  0  0
 13 14  1  0  0  0
 14 17  1  0  0  0
 17 18  2  0  0  0
 18 19  1  0  0  0
 19 20  2  0  0  0
 20 21  1  0  0  0
 20 22  1  0  0  0
 22 23  1  0  0  0
 22 24  2  0  0  0
 14 15  2  0  0  0
 15 16  1  0  0  0
 16  1  1  0  0  0
  1  2  1  0  0  0
  2  3  2  0  0  0
  2  4  1  0  0  0
  4 29  1  0  0  0
 29 30  1  0  0  0
 30 31  2  0  0  0
 31 32  1  0  0  0
 32 33  2  0  0  0
 33 34  1  0  0  0
 34 35  2  0  0  0
  4  6  1  0  0  0
  6  7  2  0  0  0
  7  8  1  0  0  0
  8  9  2  0  0  0
  9 10  1  0  0  0
 10 11  2  0  0  0
 16 12  2  0  0  0
 35 30  1  0  0  0
 11  6  1  0  0  0
 24 17  1  0  0  0
 27 28  1  0  0  0
  1  5  1  0  0  0
M  END
> <score>
-0.677065

> <minimizedAffinity>
-8.26422

> <CNNscore>
0.4901031256

> <CNNaffinity>
6.8517503738

> <CNN_VS>
3.3580641747

$$$$
HIPS450


 30 32  0  0  0  0  0  0  0  0999 V2000
   69.4258   78.5199   90.6068 C   0  0  0  0  0  0  0  0  0  0  0  0
   69.0079   79.7517   90.0693 C   0  0  0  0  0  0  0  0  0  0  0  0
   70.0521   80.6490   89.8367 C   0  0  0  0  0  0  0  0  0  0  0  0
   71.4866   79.8909   90.2969 S   0  0  0  0  0  0  0  0  0  0  0  0
   70.8098   78.4336   90.7886 C   0  0  0  0  0  0  0  0  0  0  0  0
   69.9435   82.0216   89.2748 C   0  0  0  0  0  0  0  0  0  0  0  0
   70.9607   82.9741   89.4768 C   0  0  0  0  0  0  0  0  0  0  0  0
   70.8458   84.2604   88.9439 C   0  0  0  0  0  0  0  0  0  0  0  0
   69.7177   84.6212   88.2030 C   0  0  0  0  0  0  0  0  0  0  0  0
   69.6115   86.2504   87.5503 Cl  0  0  0  0  0  0  0  0  0  0  0  0
   68.6942   83.6841   87.9946 C   0  0  0  0  0  0  0  0  0  0  0  0
   67.2576   84.0965   87.0680 Cl  0  0  0  0  0  0  0  0  0  0  0  0
   68.8093   82.3951   88.5286 C   0  0  0  0  0  0  0  0  0  0  0  0
   68.2611   77.8413   93.1452 O   0  0  0  0  0  0  0  0  0  0  0  0
   67.8685   77.2250   92.1168 C   0  0  0  0  0  0  0  0  0  0  0  0
   66.7856   76.2901   92.2103 N   0  0  0  0  0  0  0  0  0  0  0  0
   68.5221   77.4314   90.8567 N   0  0  0  0  0  0  0  0  0  0  0  0
   66.5430   75.7651   91.4136 H   0  0  0  0  0  0  0  0  0  0  0  0
   68.3424   76.7955   90.1268 H   0  0  0  0  0  0  0  0  0  0  0  0
   66.0282   76.0872   93.4432 C   0  0  0  0  0  0  0  0  0  0  0  0
   66.7141   75.0696   94.3137 C   0  0  0  0  0  0  0  0  0  0  0  0
   67.8987   74.4477   93.8919 C   0  0  0  0  0  0  0  0  0  0  0  0
   68.5292   73.5276   94.7330 C   0  0  0  0  0  0  0  0  0  0  0  0
   67.9988   73.2420   95.9518 N   0  0  0  0  0  0  0  0  0  0  0  0
   66.8547   73.8334   96.3873 C   0  0  0  0  0  0  0  0  0  0  0  0
   66.1924   74.7597   95.5780 C   0  0  0  0  0  0  0  0  0  0  0  0
   71.5859   77.3181   91.3562 C   0  0  0  0  0  0  0  0  0  0  0  0
   72.6832   76.9683   90.8463 O   0  0  0  0  0  0  0  0  0  0  0  0
   71.0902   76.6268   92.4576 O   0  0  0  0  0  0  0  0  0  0  0  0
   70.2745   76.8813   92.8422 H   0  0  0  0  0  0  0  0  0  0  0  0
 14 15  2  0  0  0
 15 16  1  0  0  0
 16 20  1  0  0  0
 20 21  1  0  0  0
 21 22  2  0  0  0
 22 23  1  0  0  0
 23 24  2  0  0  0
 24 25  2  0  0  0
 25 26  2  0  0  0
 15 17  1  0  0  0
 17  1  1  0  0  0
  1  2  1  0  0  0
  2  3  2  0  0  0
  3  6  1  0  0  0
  6  7  2  0  0  0
  7  8  1  0  0  0
  8  9  2  0  0  0
  9 10  1  0  0  0
  9 11  1  0  0  0
 11 12  1  0  0  0
 11 13  2  0  0  0
  3  4  1  0  0  0
  4  5  1  0  0  0
  5 27  1  0  0  0
 27 28  2  0  0  0
 27 29  1  0  0  0
 26 21  1  0  0  0
  5  1  2  0  0  0
 13  6  1  0  0  0
 16 18  1  0  0  0
 17 19  1  0  0  0
 29 30  1  0  0  0
M  END
> <score>
-0.438614

> <minimizedAffinity>
-7.57960

> <CNNscore>
0.6713319421

> <CNNaffinity>
5.9476585388

> <CNN_VS>
3.9928531647

$$$$
HIPS450


 30 32  0  0  0  0  0  0  0  0999 V2000
   68.2797   75.9747   90.0784 C   0  0  0  0  0  0  0  0  0  0  0  0
   67.8211   77.0983   89.3655 C   0  0  0  0  0  0  0  0  0  0  0  0
   68.4703   78.2864   89.7069 C   0  0  0  0  0  0  0  0  0  0  0  0
   69.6155   77.9191   90.8892 S   0  0  0  0  0  0  0  0  0  0  0  0
   69.3074   76.2697   90.9799 C   0  0  0  0  0  0  0  0  0  0  0  0
   68.2223   79.6371   89.1362 C   0  0  0  0  0  0  0  0  0  0  0  0
   67.2696   79.8342   88.1183 C   0  0  0  0  0  0  0  0  0  0  0  0
   67.0469   81.1084   87.5903 C   0  0  0  0  0  0  0  0  0  0  0  0
   67.7683   82.2067   88.0646 C   0  0  0  0  0  0  0  0  0  0  0  0
   67.4585   83.7933   87.3730 Cl  0  0  0  0  0  0  0  0  0  0  0  0
   68.7228   82.0265   89.0772 C   0  0  0  0  0  0  0  0  0  0  0  0
   69.6526   83.3817   89.7031 Cl  0  0  0  0  0  0  0  0  0  0  0  0
   68.9461   80.7497   89.6063 C   0  0  0  0  0  0  0  0  0  0  0  0
   66.6260   75.1603   87.8733 O   0  0  0  0  0  0  0  0  0  0  0  0
   67.0866   74.2727   88.6424 C   0  0  0  0  0  0  0  0  0  0  0  0
   66.8753   72.8860   88.3457 N   0  0  0  0  0  0  0  0  0  0  0  0
   67.7956   74.6445   89.8327 N   0  0  0  0  0  0  0  0  0  0  0  0
   67.1776   72.2112   88.9957 H   0  0  0  0  0  0  0  0  0  0  0  0
   67.9586   73.9538   90.5151 H   0  0  0  0  0  0  0  0  0  0  0  0
   66.2283   72.4365   87.1152 C   0  0  0  0  0  0  0  0  0  0  0  0
   67.0366   71.3426   86.4720 C   0  0  0  0  0  0  0  0  0  0  0  0
   67.8760   70.5242   87.2424 C   0  0  0  0  0  0  0  0  0  0  0  0
   68.5932   69.4979   86.6226 C   0  0  0  0  0  0  0  0  0  0  0  0
   68.4737   69.2939   85.2837 N   0  0  0  0  0  0  0  0  0  0  0  0
   67.6641   70.0691   84.5143 C   0  0  0  0  0  0  0  0  0  0  0  0
   66.9288   71.1059   85.0939 C   0  0  0  0  0  0  0  0  0  0  0  0
   69.9949   75.3558   91.9079 C   0  0  0  0  0  0  0  0  0  0  0  0
   70.1196   74.1322   91.6367 O   0  0  0  0  0  0  0  0  0  0  0  0
   70.4947   75.8461   93.1105 O   0  0  0  0  0  0  0  0  0  0  0  0
   70.4056   76.7553   93.3190 H   0  0  0  0  0  0  0  0  0  0  0  0
 14 15  2  0  0  0
 15 16  1  0  0  0
 16 20  1  0  0  0
 20 21  1  0  0  0
 21 22  2  0  0  0
 22 23  1  0  0  0
 23 24  2  0  0  0
 24 25  2  0  0  0
 25 26  2  0  0  0
 15 17  1  0  0  0
 17  1  1  0  0  0
  1  2  1  0  0  0
  2  3  2  0  0  0
  3  6  1  0  0  0
  6  7  2  0  0  0
  7  8  1  0  0  0
  8  9  2  0  0  0
  9 10  1  0  0  0
  9 11  1  0  0  0
 11 12  1  0  0  0
 11 13  2  0  0  0
  3  4  1  0  0  0
  4  5  1  0  0  0
  5 27  1  0  0  0
 27 28  2  0  0  0
 27 29  1  0  0  0
 26 21  1  0  0  0
  5  1  2  0  0  0
 13  6  1  0  0  0
 16 18  1  0  0  0
 17 19  1  0  0  0
 29 30  1  0  0  0
M  END
> <score>
-0.438614

> <minimizedAffinity>
-7.51323

> <CNNscore>
0.4565297663

> <CNNaffinity>
6.0378808975

> <CNN_VS>
2.7564723492

$$$$
HIPS450


 30 32  0  0  0  0  0  0  0  0999 V2000
   69.9009   77.9613   90.5779 C   0  0  0  0  0  0  0  0  0  0  0  0
   68.9365   78.9828   90.6641 C   0  0  0  0  0  0  0  0  0  0  0  0
   69.4564   80.2660   90.4836 C   0  0  0  0  0  0  0  0  0  0  0  0
   71.1133   80.1101   90.2100 S   0  0  0  0  0  0  0  0  0  0  0  0
   71.1901   78.4347   90.3138 C   0  0  0  0  0  0  0  0  0  0  0  0
   68.7035   81.5481   90.5107 C   0  0  0  0  0  0  0  0  0  0  0  0
   67.8984   81.8971   91.6119 C   0  0  0  0  0  0  0  0  0  0  0  0
   67.1957   83.1045   91.6243 C   0  0  0  0  0  0  0  0  0  0  0  0
   67.2807   83.9837   90.5419 C   0  0  0  0  0  0  0  0  0  0  0  0
   66.3799   85.4928   90.5966 Cl  0  0  0  0  0  0  0  0  0  0  0  0
   68.0769   83.6496   89.4360 C   0  0  0  0  0  0  0  0  0  0  0  0
   68.2121   84.7274   88.0530 Cl  0  0  0  0  0  0  0  0  0  0  0  0
   68.7811   82.4397   89.4235 C   0  0  0  0  0  0  0  0  0  0  0  0
   70.5378   76.2071   92.7637 O   0  0  0  0  0  0  0  0  0  0  0  0
   69.7948   75.7755   91.8402 C   0  0  0  0  0  0  0  0  0  0  0  0
   69.1973   74.4766   91.9477 N   0  0  0  0  0  0  0  0  0  0  0  0
   69.5690   76.5661   90.6648 N   0  0  0  0  0  0  0  0  0  0  0  0
   68.6819   74.1277   91.1849 H   0  0  0  0  0  0  0  0  0  0  0  0
   69.1665   76.1312   89.8786 H   0  0  0  0  0  0  0  0  0  0  0  0
   69.3244   73.6512   93.1467 C   0  0  0  0  0  0  0  0  0  0  0  0
   68.0977   73.7904   94.0066 C   0  0  0  0  0  0  0  0  0  0  0  0
   66.8378   74.0050   93.4284 C   0  0  0  0  0  0  0  0  0  0  0  0
   65.7119   74.1021   94.2498 C   0  0  0  0  0  0  0  0  0  0  0  0
   65.8388   73.9851   95.5984 N   0  0  0  0  0  0  0  0  0  0  0  0
   67.0470   73.7724   96.1846 C   0  0  0  0  0  0  0  0  0  0  0  0
   68.1982   73.6685   95.4000 C   0  0  0  0  0  0  0  0  0  0  0  0
   72.4376   77.6610   90.1942 C   0  0  0  0  0  0  0  0  0  0  0  0
   73.1863   77.7925   89.1900 O   0  0  0  0  0  0  0  0  0  0  0  0
   72.7834   76.7566   91.1937 O   0  0  0  0  0  0  0  0  0  0  0  0
   72.2312   76.6534   91.9437 H   0  0  0  0  0  0  0  0  0  0  0  0
 14 15  2  0  0  0
 15 16  1  0  0  0
 16 20  1  0  0  0
 20 21  1  0  0  0
 21 22  2  0  0  0
 22 23  1  0  0  0
 23 24  2  0  0  0
 24 25  2  0  0  0
 25 26  2  0  0  0
 15 17  1  0  0  0
 17  1  1  0  0  0
  1  2  1  0  0  0
  2  3  2  0  0  0
  3  6  1  0  0  0
  6  7  2  0  0  0
  7  8  1  0  0  0
  8  9  2  0  0  0
  9 10  1  0  0  0
  9 11  1  0  0  0
 11 12  1  0  0  0
 11 13  2  0  0  0
  3  4  1  0  0  0
  4  5  1  0  0  0
  5 27  1  0  0  0
 27 28  2  0  0  0
 27 29  1  0  0  0
 26 21  1  0  0  0
  5  1  2  0  0  0
 13  6  1  0  0  0
 16 18  1  0  0  0
 17 19  1  0  0  0
 29 30  1  0  0  0
M  END
> <score>
-0.438614

> <minimizedAffinity>
-6.61154

> <CNNscore>
0.4180333316

> <CNNaffinity>
5.7943572998

> <CNN_VS>
2.4222345352

$$$$
HIPS451


 30 32  0  0  0  0  0  0  0  0999 V2000
   68.6917   77.2841   91.2414 C   0  0  0  0  0  0  0  0  0  0  0  0
   68.0350   78.3286   90.5732 C   0  0  0  0  0  0  0  0  0  0  0  0
   68.9000   79.2735   90.0187 C   0  0  0  0  0  0  0  0  0  0  0  0
   70.4775   78.7757   90.3483 S   0  0  0  0  0  0  0  0  0  0  0  0
   70.0874   77.3760   91.1944 C   0  0  0  0  0  0  0  0  0  0  0  0
   68.5210   80.4958   89.2635 C   0  0  0  0  0  0  0  0  0  0  0  0
   69.2119   81.7098   89.4495 C   0  0  0  0  0  0  0  0  0  0  0  0
   68.8459   82.8529   88.7320 C   0  0  0  0  0  0  0  0  0  0  0  0
   67.7895   82.8018   87.8199 C   0  0  0  0  0  0  0  0  0  0  0  0
   67.2929   84.3653   86.8419 Br  0  0  0  0  0  0  0  0  0  0  0  0
   67.0982   81.6043   87.6231 C   0  0  0  0  0  0  0  0  0  0  0  0
   67.4603   80.4584   88.3374 C   0  0  0  0  0  0  0  0  0  0  0  0
   67.3756   74.9254   93.9565 N   0  0  0  0  0  0  0  0  0  0  0  0
   67.9346   76.1032   93.3289 C   0  0  0  0  0  0  0  0  0  0  0  0
   68.3975   77.0329   94.0464 O   0  0  0  0  0  0  0  0  0  0  0  0
   67.9623   76.2392   91.8985 N   0  0  0  0  0  0  0  0  0  0  0  0
   67.4627   75.5918   91.3503 H   0  0  0  0  0  0  0  0  0  0  0  0
   65.6629   75.2564   95.6930 C   0  0  0  0  0  0  0  0  0  0  0  0
   67.1239   74.9279   95.4061 C   0  0  0  0  0  0  0  0  0  0  0  0
   67.1337   73.6953   93.1850 C   0  0  0  0  0  0  0  0  0  0  0  0
   68.4075   72.9070   93.0337 C   0  0  0  0  0  0  0  0  0  0  0  0
   68.6386   72.1655   91.8632 C   0  0  0  0  0  0  0  0  0  0  0  0
   69.8094   71.4136   91.7249 C   0  0  0  0  0  0  0  0  0  0  0  0
   70.7551   71.3947   92.7535 C   0  0  0  0  0  0  0  0  0  0  0  0
   70.5333   72.1305   93.9206 C   0  0  0  0  0  0  0  0  0  0  0  0
   69.3654   72.8863   94.0619 C   0  0  0  0  0  0  0  0  0  0  0  0
   71.0818   76.4014   91.6737 C   0  0  0  0  0  0  0  0  0  0  0  0
   70.7317   75.2127   91.9011 O   0  0  0  0  0  0  0  0  0  0  0  0
   72.3964   76.7853   91.9134 O   0  0  0  0  0  0  0  0  0  0  0  0
   72.6646   77.6675   91.7469 H   0  0  0  0  0  0  0  0  0  0  0  0
 18 19  1  0  0  0
 19 13  1  0  0  0
 13 20  1  0  0  0
 20 21  1  0  0  0
 21 22  2  0  0  0
 22 23  1  0  0  0
 23 24  2  0  0  0
 24 25  1  0  0  0
 25 26  2  0  0  0
 13 14  1  0  0  0
 14 15  2  0  0  0
 14 16  1  0  0  0
 16  1  1  0  0  0
  1  2  1  0  0  0
  2  3  2  0  0  0
  3  6  1  0  0  0
  6  7  2  0  0  0
  7  8  1  0  0  0
  8  9  2  0  0  0
  9 10  1  0  0  0
  9 11  1  0  0  0
 11 12  2  0  0  0
  3  4  1  0  0  0
  4  5  1  0  0  0
  5 27  1  0  0  0
 27 28  2  0  0  0
 27 29  1  0  0  0
 26 21  1  0  0  0
  5  1  2  0  0  0
 12  6  1  0  0  0
 16 17  1  0  0  0
 29 30  1  0  0  0
M  END
> <score>
-0.300895

> <minimizedAffinity>
-7.35899

> <CNNscore>
0.7699710131

> <CNNaffinity>
6.3750934601

> <CNN_VS>
4.9086370468

$$$$
HIPS451


 30 32  0  0  0  0  0  0  0  0999 V2000
   69.0773   79.7706   90.6690 C   0  0  0  0  0  0  0  0  0  0  0  0
   68.7772   81.1152   90.4023 C   0  0  0  0  0  0  0  0  0  0  0  0
   69.8840   81.8725   90.0148 C   0  0  0  0  0  0  0  0  0  0  0  0
   71.2202   80.8435   89.9844 S   0  0  0  0  0  0  0  0  0  0  0  0
   70.4223   79.4431   90.4634 C   0  0  0  0  0  0  0  0  0  0  0  0
   69.9013   83.3193   89.6765 C   0  0  0  0  0  0  0  0  0  0  0  0
   70.6801   83.8078   88.6085 C   0  0  0  0  0  0  0  0  0  0  0  0
   70.6871   85.1716   88.2998 C   0  0  0  0  0  0  0  0  0  0  0  0
   69.9185   86.0655   89.0488 C   0  0  0  0  0  0  0  0  0  0  0  0
   69.9308   87.9275   88.6238 Br  0  0  0  0  0  0  0  0  0  0  0  0
   69.1393   85.5946   90.1079 C   0  0  0  0  0  0  0  0  0  0  0  0
   69.1283   84.2320   90.4204 C   0  0  0  0  0  0  0  0  0  0  0  0
   66.4540   78.0237   92.8447 N   0  0  0  0  0  0  0  0  0  0  0  0
   67.3066   79.0626   92.3086 C   0  0  0  0  0  0  0  0  0  0  0  0
   67.3765   80.1778   92.8959 O   0  0  0  0  0  0  0  0  0  0  0  0
   68.0693   78.8510   91.1092 N   0  0  0  0  0  0  0  0  0  0  0  0
   67.8935   78.0458   90.5706 H   0  0  0  0  0  0  0  0  0  0  0  0
   64.4020   79.2728   93.3804 C   0  0  0  0  0  0  0  0  0  0  0  0
   65.4954   78.3523   93.9112 C   0  0  0  0  0  0  0  0  0  0  0  0
   66.5881   76.6263   92.4015 C   0  0  0  0  0  0  0  0  0  0  0  0
   66.7999   75.7155   93.5815 C   0  0  0  0  0  0  0  0  0  0  0  0
   68.0580   75.6548   94.2037 C   0  0  0  0  0  0  0  0  0  0  0  0
   68.2680   74.7951   95.2862 C   0  0  0  0  0  0  0  0  0  0  0  0
   67.2260   73.9893   95.7530 C   0  0  0  0  0  0  0  0  0  0  0  0
   65.9713   74.0446   95.1404 C   0  0  0  0  0  0  0  0  0  0  0  0
   65.7559   74.9052   94.0596 C   0  0  0  0  0  0  0  0  0  0  0  0
   71.0567   78.1156   90.5240 C   0  0  0  0  0  0  0  0  0  0  0  0
   72.1322   77.9087   89.9014 O   0  0  0  0  0  0  0  0  0  0  0  0
   70.4644   77.0754   91.2312 O   0  0  0  0  0  0  0  0  0  0  0  0
   69.6645   77.2212   91.6968 H   0  0  0  0  0  0  0  0  0  0  0  0
 18 19  1  0  0  0
 19 13  1  0  0  0
 13 20  1  0  0  0
 20 21  1  0  0  0
 21 22  2  0  0  0
 22 23  1  0  0  0
 23 24  2  0  0  0
 24 25  1  0  0  0
 25 26  2  0  0  0
 13 14  1  0  0  0
 14 15  2  0  0  0
 14 16  1  0  0  0
 16  1  1  0  0  0
  1  2  1  0  0  0
  2  3  2  0  0  0
  3  6  1  0  0  0
  6  7  2  0  0  0
  7  8  1  0  0  0
  8  9  2  0  0  0
  9 10  1  0  0  0
  9 11  1  0  0  0
 11 12  2  0  0  0
  3  4  1  0  0  0
  4  5  1  0  0  0
  5 27  1  0  0  0
 27 28  2  0  0  0
 27 29  1  0  0  0
 26 21  1  0  0  0
  5  1  2  0  0  0
 12  6  1  0  0  0
 16 17  1  0  0  0
 29 30  1  0  0  0
M  END
> <score>
-0.300895

> <minimizedAffinity>
-6.48080

> <CNNscore>
0.5441499352

> <CNNaffinity>
5.9005737305

> <CNN_VS>
3.2107968330

$$$$
HIPS451


 30 32  0  0  0  0  0  0  0  0999 V2000
   69.7395   78.6209   90.9851 C   0  0  0  0  0  0  0  0  0  0  0  0
   69.2584   79.8118   90.4201 C   0  0  0  0  0  0  0  0  0  0  0  0
   70.2645   80.6623   89.9587 C   0  0  0  0  0  0  0  0  0  0  0  0
   71.7435   79.9012   90.2390 S   0  0  0  0  0  0  0  0  0  0  0  0
   71.1335   78.5033   90.9469 C   0  0  0  0  0  0  0  0  0  0  0  0
   70.0862   81.9941   89.3242 C   0  0  0  0  0  0  0  0  0  0  0  0
   68.8627   82.3578   88.7270 C   0  0  0  0  0  0  0  0  0  0  0  0
   68.7073   83.6145   88.1339 C   0  0  0  0  0  0  0  0  0  0  0  0
   69.7664   84.5250   88.1291 C   0  0  0  0  0  0  0  0  0  0  0  0
   69.5500   86.2406   87.3180 Br  0  0  0  0  0  0  0  0  0  0  0  0
   70.9835   84.1790   88.7204 C   0  0  0  0  0  0  0  0  0  0  0  0
   71.1440   82.9241   89.3152 C   0  0  0  0  0  0  0  0  0  0  0  0
   67.3503   75.6436   91.2914 N   0  0  0  0  0  0  0  0  0  0  0  0
   68.4078   76.4962   90.7930 C   0  0  0  0  0  0  0  0  0  0  0  0
   68.9594   76.2268   89.6900 O   0  0  0  0  0  0  0  0  0  0  0  0
   68.8507   77.6418   91.5390 N   0  0  0  0  0  0  0  0  0  0  0  0
   68.5325   77.7584   92.4633 H   0  0  0  0  0  0  0  0  0  0  0  0
   68.2238   73.3662   90.9613 C   0  0  0  0  0  0  0  0  0  0  0  0
   67.1001   74.3465   90.6435 C   0  0  0  0  0  0  0  0  0  0  0  0
   66.4652   76.0879   92.3805 C   0  0  0  0  0  0  0  0  0  0  0  0
   66.7558   75.3218   93.6437 C   0  0  0  0  0  0  0  0  0  0  0  0
   68.0593   75.3009   94.1671 C   0  0  0  0  0  0  0  0  0  0  0  0
   68.3411   74.5736   95.3277 C   0  0  0  0  0  0  0  0  0  0  0  0
   67.3258   73.8613   95.9715 C   0  0  0  0  0  0  0  0  0  0  0  0
   66.0263   73.8779   95.4580 C   0  0  0  0  0  0  0  0  0  0  0  0
   65.7393   74.6063   94.2994 C   0  0  0  0  0  0  0  0  0  0  0  0
   71.9615   77.3477   91.3305 C   0  0  0  0  0  0  0  0  0  0  0  0
   72.9670   77.0419   90.6356 O   0  0  0  0  0  0  0  0  0  0  0  0
   71.6272   76.5665   92.4309 O   0  0  0  0  0  0  0  0  0  0  0  0
   70.8809   76.7873   92.9528 H   0  0  0  0  0  0  0  0  0  0  0  0
 18 19  1  0  0  0
 19 13  1  0  0  0
 13 20  1  0  0  0
 20 21  1  0  0  0
 21 22  2  0  0  0
 22 23  1  0  0  0
 23 24  2  0  0  0
 24 25  1  0  0  0
 25 26  2  0  0  0
 13 14  1  0  0  0
 14 15  2  0  0  0
 14 16  1  0  0  0
 16  1  1  0  0  0
  1  2  1  0  0  0
  2  3  2  0  0  0
  3  6  1  0  0  0
  6  7  2  0  0  0
  7  8  1  0  0  0
  8  9  2  0  0  0
  9 10  1  0  0  0
  9 11  1  0  0  0
 11 12  2  0  0  0
  3  4  1  0  0  0
  4  5  1  0  0  0
  5 27  1  0  0  0
 27 28  2  0  0  0
 27 29  1  0  0  0
 26 21  1  0  0  0
  5  1  2  0  0  0
 12  6  1  0  0  0
 16 17  1  0  0  0
 29 30  1  0  0  0
M  END
> <score>
-0.300895

> <minimizedAffinity>
-5.93392

> <CNNscore>
0.4366585910

> <CNNaffinity>
6.0102319717

> <CNN_VS>
2.6244194508

$$$$
HIPS452


 30 32  0  0  0  0  0  0  0  0999 V2000
   69.4013   77.4040   90.5690 C   0  0  0  0  0  0  0  0  0  0  0  0
   68.6194   78.3287   89.8534 C   0  0  0  0  0  0  0  0  0  0  0  0
   69.2489   79.5551   89.6487 C   0  0  0  0  0  0  0  0  0  0  0  0
   70.7791   79.4732   90.3507 S   0  0  0  0  0  0  0  0  0  0  0  0
   70.6585   77.8982   90.9292 C   0  0  0  0  0  0  0  0  0  0  0  0
   68.6753   80.7410   88.9693 C   0  0  0  0  0  0  0  0  0  0  0  0
   69.2263   82.0161   89.1924 C   0  0  0  0  0  0  0  0  0  0  0  0
   68.6969   83.1395   88.5535 C   0  0  0  0  0  0  0  0  0  0  0  0
   67.5968   83.0118   87.6930 C   0  0  0  0  0  0  0  0  0  0  0  0
   67.0630   84.2129   86.9695 C   0  0  0  0  0  0  0  0  0  0  0  0
   67.0471   81.7424   87.4596 C   0  0  0  0  0  0  0  0  0  0  0  0
   67.5757   80.6174   88.0978 C   0  0  0  0  0  0  0  0  0  0  0  0
   68.0956   74.9440   93.0354 N   0  0  0  0  0  0  0  0  0  0  0  0
   67.9564   75.9987   92.0623 C   0  0  0  0  0  0  0  0  0  0  0  0
   66.9960   76.8102   92.1410 O   0  0  0  0  0  0  0  0  0  0  0  0
   68.8975   76.1302   90.9909 N   0  0  0  0  0  0  0  0  0  0  0  0
   69.2089   75.3186   90.5286 H   0  0  0  0  0  0  0  0  0  0  0  0
   66.9621   74.3639   95.1599 C   0  0  0  0  0  0  0  0  0  0  0  0
   66.8935   74.3454   93.6347 C   0  0  0  0  0  0  0  0  0  0  0  0
   69.4271   74.3941   93.3459 C   0  0  0  0  0  0  0  0  0  0  0  0
   69.5556   72.9799   92.8368 C   0  0  0  0  0  0  0  0  0  0  0  0
   69.2008   72.6588   91.5166 C   0  0  0  0  0  0  0  0  0  0  0  0
   69.3862   71.3609   91.0301 C   0  0  0  0  0  0  0  0  0  0  0  0
   69.9175   70.3720   91.8597 C   0  0  0  0  0  0  0  0  0  0  0  0
   70.2559   70.6770   93.1795 C   0  0  0  0  0  0  0  0  0  0  0  0
   70.0742   71.9745   93.6683 C   0  0  0  0  0  0  0  0  0  0  0  0
   71.7388   77.1945   91.6419 C   0  0  0  0  0  0  0  0  0  0  0  0
   71.6091   76.9252   92.8661 O   0  0  0  0  0  0  0  0  0  0  0  0
   72.9114   76.8392   90.9826 O   0  0  0  0  0  0  0  0  0  0  0  0
   73.0152   77.0361   90.0724 H   0  0  0  0  0  0  0  0  0  0  0  0
 18 19  1  0  0  0
 19 13  1  0  0  0
 13 20  1  0  0  0
 20 21  1  0  0  0
 21 22  2  0  0  0
 22 23  1  0  0  0
 23 24  2  0  0  0
 24 25  1  0  0  0
 25 26  2  0  0  0
 13 14  1  0  0  0
 14 15  2  0  0  0
 14 16  1  0  0  0
 16  1  1  0  0  0
  1  2  1  0  0  0
  2  3  2  0  0  0
  3  6  1  0  0  0
  6  7  2  0  0  0
  7  8  1  0  0  0
  8  9  2  0  0  0
  9 10  1  0  0  0
  9 11  1  0  0  0
 11 12  2  0  0  0
  3  4  1  0  0  0
  4  5  1  0  0  0
  5 27  1  0  0  0
 27 28  2  0  0  0
 27 29  1  0  0  0
 26 21  1  0  0  0
  5  1  2  0  0  0
 12  6  1  0  0  0
 16 17  1  0  0  0
 29 30  1  0  0  0
M  END
> <score>
-0.065204

> <minimizedAffinity>
-7.44589

> <CNNscore>
0.6230839491

> <CNNaffinity>
6.1417531967

> <CNN_VS>
3.8268277645

$$$$
HIPS452


 30 32  0  0  0  0  0  0  0  0999 V2000
   69.7202   78.8433   90.7061 C   0  0  0  0  0  0  0  0  0  0  0  0
   70.6420   79.7887   90.2211 C   0  0  0  0  0  0  0  0  0  0  0  0
   70.0813   81.0391   89.9672 C   0  0  0  0  0  0  0  0  0  0  0  0
   68.4442   80.9599   90.3602 S   0  0  0  0  0  0  0  0  0  0  0  0
   68.4235   79.3482   90.8416 C   0  0  0  0  0  0  0  0  0  0  0  0
   70.7785   82.2252   89.4159 C   0  0  0  0  0  0  0  0  0  0  0  0
   70.1343   83.0457   88.4720 C   0  0  0  0  0  0  0  0  0  0  0  0
   70.7799   84.1687   87.9500 C   0  0  0  0  0  0  0  0  0  0  0  0
   72.0872   84.4831   88.3490 C   0  0  0  0  0  0  0  0  0  0  0  0
   72.7584   85.7180   87.8244 C   0  0  0  0  0  0  0  0  0  0  0  0
   72.7329   83.6740   89.2958 C   0  0  0  0  0  0  0  0  0  0  0  0
   72.0883   82.5503   89.8193 C   0  0  0  0  0  0  0  0  0  0  0  0
   69.0244   75.2844   91.5361 N   0  0  0  0  0  0  0  0  0  0  0  0
   69.1483   76.4021   90.6339 C   0  0  0  0  0  0  0  0  0  0  0  0
   68.4575   76.4456   89.5812 O   0  0  0  0  0  0  0  0  0  0  0  0
   70.0630   77.4674   90.9151 N   0  0  0  0  0  0  0  0  0  0  0  0
   70.9572   77.2475   91.2635 H   0  0  0  0  0  0  0  0  0  0  0  0
   69.6249   72.8827   91.6129 C   0  0  0  0  0  0  0  0  0  0  0  0
   68.7195   73.9491   91.0010 C   0  0  0  0  0  0  0  0  0  0  0  0
   69.3096   75.4567   92.9717 C   0  0  0  0  0  0  0  0  0  0  0  0
   68.1243   75.0420   93.8078 C   0  0  0  0  0  0  0  0  0  0  0  0
   66.8173   75.3615   93.4058 C   0  0  0  0  0  0  0  0  0  0  0  0
   65.7198   74.9158   94.1491 C   0  0  0  0  0  0  0  0  0  0  0  0
   65.9185   74.1568   95.3036 C   0  0  0  0  0  0  0  0  0  0  0  0
   67.2148   73.8499   95.7216 C   0  0  0  0  0  0  0  0  0  0  0  0
   68.3143   74.2918   94.9792 C   0  0  0  0  0  0  0  0  0  0  0  0
   67.2298   78.6541   91.3548 C   0  0  0  0  0  0  0  0  0  0  0  0
   67.0670   78.5247   92.5977 O   0  0  0  0  0  0  0  0  0  0  0  0
   66.2866   78.1220   90.4811 O   0  0  0  0  0  0  0  0  0  0  0  0
   66.4007   78.2142   89.5557 H   0  0  0  0  0  0  0  0  0  0  0  0
 18 19  1  0  0  0
 19 13  1  0  0  0
 13 20  1  0  0  0
 20 21  1  0  0  0
 21 22  2  0  0  0
 22 23  1  0  0  0
 23 24  2  0  0  0
 24 25  1  0  0  0
 25 26  2  0  0  0
 13 14  1  0  0  0
 14 15  2  0  0  0
 14 16  1  0  0  0
 16  1  1  0  0  0
  1  2  1  0  0  0
  2  3  2  0  0  0
  3  6  1  0  0  0
  6  7  2  0  0  0
  7  8  1  0  0  0
  8  9  2  0  0  0
  9 10  1  0  0  0
  9 11  1  0  0  0
 11 12  2  0  0  0
  3  4  1  0  0  0
  4  5  1  0  0  0
  5 27  1  0  0  0
 27 28  2  0  0  0
 27 29  1  0  0  0
 26 21  1  0  0  0
  5  1  2  0  0  0
 12  6  1  0  0  0
 16 17  1  0  0  0
 29 30  1  0  0  0
M  END
> <score>
-0.065204

> <minimizedAffinity>
-7.80568

> <CNNscore>
0.3450368345

> <CNNaffinity>
5.6634836197

> <CNN_VS>
1.9541105032

$$$$
HIPS452


 30 32  0  0  0  0  0  0  0  0999 V2000
   67.6600   78.0743   89.6272 C   0  0  0  0  0  0  0  0  0  0  0  0
   67.6320   77.6947   90.9813 C   0  0  0  0  0  0  0  0  0  0  0  0
   67.3920   76.3360   91.1776 C   0  0  0  0  0  0  0  0  0  0  0  0
   67.2282   75.6167   89.6621 S   0  0  0  0  0  0  0  0  0  0  0  0
   67.4457   77.0105   88.7458 C   0  0  0  0  0  0  0  0  0  0  0  0
   67.2643   75.6398   92.4799 C   0  0  0  0  0  0  0  0  0  0  0  0
   68.1370   74.5849   92.8035 C   0  0  0  0  0  0  0  0  0  0  0  0
   68.0290   73.9254   94.0298 C   0  0  0  0  0  0  0  0  0  0  0  0
   67.0364   74.2969   94.9484 C   0  0  0  0  0  0  0  0  0  0  0  0
   66.9557   73.6202   96.2850 C   0  0  0  0  0  0  0  0  0  0  0  0
   66.1677   75.3532   94.6359 C   0  0  0  0  0  0  0  0  0  0  0  0
   66.2746   76.0142   93.4095 C   0  0  0  0  0  0  0  0  0  0  0  0
   68.3556   81.6976   90.1037 N   0  0  0  0  0  0  0  0  0  0  0  0
   68.7245   80.3399   89.7888 C   0  0  0  0  0  0  0  0  0  0  0  0
   69.8964   79.9345   90.0108 O   0  0  0  0  0  0  0  0  0  0  0  0
   67.7709   79.4413   89.2107 N   0  0  0  0  0  0  0  0  0  0  0  0
   67.1717   79.7735   88.5038 H   0  0  0  0  0  0  0  0  0  0  0  0
   69.8944   83.1766   91.3605 C   0  0  0  0  0  0  0  0  0  0  0  0
   69.3580   82.7676   89.9907 C   0  0  0  0  0  0  0  0  0  0  0  0
   66.9569   82.0281   90.4299 C   0  0  0  0  0  0  0  0  0  0  0  0
   66.4485   81.1597   91.5539 C   0  0  0  0  0  0  0  0  0  0  0  0
   65.2308   80.4709   91.4322 C   0  0  0  0  0  0  0  0  0  0  0  0
   64.7982   79.6142   92.4493 C   0  0  0  0  0  0  0  0  0  0  0  0
   65.5720   79.4462   93.5989 C   0  0  0  0  0  0  0  0  0  0  0  0
   66.7750   80.1413   93.7372 C   0  0  0  0  0  0  0  0  0  0  0  0
   67.2117   80.9966   92.7208 C   0  0  0  0  0  0  0  0  0  0  0  0
   67.4489   77.0392   87.2729 C   0  0  0  0  0  0  0  0  0  0  0  0
   67.1071   76.0130   86.6263 O   0  0  0  0  0  0  0  0  0  0  0  0
   67.8438   78.1825   86.5852 O   0  0  0  0  0  0  0  0  0  0  0  0
   68.0994   78.9493   87.0590 H   0  0  0  0  0  0  0  0  0  0  0  0
 18 19  1  0  0  0
 19 13  1  0  0  0
 13 20  1  0  0  0
 20 21  1  0  0  0
 21 22  2  0  0  0
 22 23  1  0  0  0
 23 24  2  0  0  0
 24 25  1  0  0  0
 25 26  2  0  0  0
 13 14  1  0  0  0
 14 15  2  0  0  0
 14 16  1  0  0  0
 16  1  1  0  0  0
  1  2  1  0  0  0
  2  3  2  0  0  0
  3  6  1  0  0  0
  6  7  2  0  0  0
  7  8  1  0  0  0
  8  9  2  0  0  0
  9 10  1  0  0  0
  9 11  1  0  0  0
 11 12  2  0  0  0
  3  4  1  0  0  0
  4  5  1  0  0  0
  5 27  1  0  0  0
 27 28  2  0  0  0
 27 29  1  0  0  0
 26 21  1  0  0  0
  5  1  2  0  0  0
 12  6  1  0  0  0
 16 17  1  0  0  0
 29 30  1  0  0  0
M  END
> <score>
-0.065204

> <minimizedAffinity>
-6.61932

> <CNNscore>
0.3391045332

> <CNNaffinity>
6.2868232727

> <CNN_VS>
2.1318902969

$$$$
HIPS456


 34 36  0  0  0  0  0  0  0  0999 V2000
   69.2092   77.9885   91.5569 C   0  0  0  0  0  0  0  0  0  0  0  0
   68.6816   79.1732   91.0128 C   0  0  0  0  0  0  0  0  0  0  0  0
   69.5791   79.8720   90.2029 C   0  0  0  0  0  0  0  0  0  0  0  0
   71.0249   79.0044   90.1844 S   0  0  0  0  0  0  0  0  0  0  0  0
   70.5357   77.7490   91.1894 C   0  0  0  0  0  0  0  0  0  0  0  0
   69.3310   81.1511   89.4843 C   0  0  0  0  0  0  0  0  0  0  0  0
   68.1158   81.3897   88.8142 C   0  0  0  0  0  0  0  0  0  0  0  0
   67.8964   82.5946   88.1385 C   0  0  0  0  0  0  0  0  0  0  0  0
   68.8902   83.5893   88.1163 C   0  0  0  0  0  0  0  0  0  0  0  0
   70.0970   83.3564   88.7822 C   0  0  0  0  0  0  0  0  0  0  0  0
   70.3181   82.1539   89.4596 C   0  0  0  0  0  0  0  0  0  0  0  0
   68.7258   84.8141   87.4487 O   0  0  0  0  0  0  0  0  0  0  0  0
   69.7598   85.7662   87.2081 C   0  0  0  0  0  0  0  0  0  0  0  0
   70.6781   85.7435   88.2423 F   0  0  0  0  0  0  0  0  0  0  0  0
   69.2216   87.0343   87.0823 F   0  0  0  0  0  0  0  0  0  0  0  0
   70.4053   85.4384   86.0317 F   0  0  0  0  0  0  0  0  0  0  0  0
   66.9365   75.2253   92.9111 N   0  0  0  0  0  0  0  0  0  0  0  0
   67.9467   75.8778   92.1066 C   0  0  0  0  0  0  0  0  0  0  0  0
   68.3942   75.2966   91.0796 O   0  0  0  0  0  0  0  0  0  0  0  0
   68.4752   77.1628   92.4737 N   0  0  0  0  0  0  0  0  0  0  0  0
   68.3281   77.4899   93.3905 H   0  0  0  0  0  0  0  0  0  0  0  0
   65.8591   75.1689   95.1308 C   0  0  0  0  0  0  0  0  0  0  0  0
   66.1092   75.9819   93.8643 C   0  0  0  0  0  0  0  0  0  0  0  0
   66.7182   73.7790   92.7547 C   0  0  0  0  0  0  0  0  0  0  0  0
   67.9981   73.0316   93.0166 C   0  0  0  0  0  0  0  0  0  0  0  0
   68.8002   73.3512   94.1262 C   0  0  0  0  0  0  0  0  0  0  0  0
   69.9692   72.6263   94.3821 C   0  0  0  0  0  0  0  0  0  0  0  0
   70.3427   71.5773   93.5367 C   0  0  0  0  0  0  0  0  0  0  0  0
   69.5467   71.2493   92.4350 C   0  0  0  0  0  0  0  0  0  0  0  0
   68.3765   71.9714   92.1758 C   0  0  0  0  0  0  0  0  0  0  0  0
   71.3764   76.5887   91.5329 C   0  0  0  0  0  0  0  0  0  0  0  0
   72.5906   76.5745   91.1932 O   0  0  0  0  0  0  0  0  0  0  0  0
   70.8411   75.4947   92.2042 O   0  0  0  0  0  0  0  0  0  0  0  0
   69.9397   75.4972   92.4602 H   0  0  0  0  0  0  0  0  0  0  0  0
 22 23  1  0  0  0
 23 17  1  0  0  0
 17 24  1  0  0  0
 24 25  1  0  0  0
 25 26  2  0  0  0
 26 27  1  0  0  0
 27 28  2  0  0  0
 28 29  1  0  0  0
 29 30  2  0  0  0
 17 18  1  0  0  0
 18 19  2  0  0  0
 18 20  1  0  0  0
 20  1  1  0  0  0
  1  2  1  0  0  0
  2  3  2  0  0  0
  3  6  1  0  0  0
  6  7  2  0  0  0
  7  8  1  0  0  0
  8  9  2  0  0  0
  9 12  1  0  0  0
 12 13  1  0  0  0
 13 14  1  0  0  0
 13 15  1  0  0  0
 13 16  1  0  0  0
  9 10  1  0  0  0
 10 11  2  0  0  0
  3  4  1  0  0  0
  4  5  1  0  0  0
  5 31  1  0  0  0
 31 32  2  0  0  0
 31 33  1  0  0  0
 30 25  1  0  0  0
  5  1  2  0  0  0
 11  6  1  0  0  0
 20 21  1  0  0  0
 33 34  1  0  0  0
M  END
> <score>
-0.506282

> <minimizedAffinity>
-7.22357

> <CNNscore>
0.5214729309

> <CNNaffinity>
6.2868661880

> <CNN_VS>
3.2784304619

$$$$
HIPS456


 34 36  0  0  0  0  0  0  0  0999 V2000
   69.7985   78.4571   90.5859 C   0  0  0  0  0  0  0  0  0  0  0  0
   69.0573   79.6517   90.6218 C   0  0  0  0  0  0  0  0  0  0  0  0
   69.8327   80.8029   90.4695 C   0  0  0  0  0  0  0  0  0  0  0  0
   71.4374   80.3133   90.3009 S   0  0  0  0  0  0  0  0  0  0  0  0
   71.1708   78.6578   90.4169 C   0  0  0  0  0  0  0  0  0  0  0  0
   69.3550   82.2121   90.4612 C   0  0  0  0  0  0  0  0  0  0  0  0
   70.0177   83.2047   89.7139 C   0  0  0  0  0  0  0  0  0  0  0  0
   69.5615   84.5268   89.7178 C   0  0  0  0  0  0  0  0  0  0  0  0
   68.4306   84.8872   90.4720 C   0  0  0  0  0  0  0  0  0  0  0  0
   67.7691   83.9040   91.2134 C   0  0  0  0  0  0  0  0  0  0  0  0
   68.2221   82.5816   91.2099 C   0  0  0  0  0  0  0  0  0  0  0  0
   67.9331   86.1999   90.5171 O   0  0  0  0  0  0  0  0  0  0  0  0
   68.0688   87.0947   91.6192 C   0  0  0  0  0  0  0  0  0  0  0  0
   66.8754   87.1797   92.3133 F   0  0  0  0  0  0  0  0  0  0  0  0
   68.4457   88.3486   91.1727 F   0  0  0  0  0  0  0  0  0  0  0  0
   69.0455   86.6132   92.4691 F   0  0  0  0  0  0  0  0  0  0  0  0
   69.1978   74.9267   91.9311 N   0  0  0  0  0  0  0  0  0  0  0  0
   69.5364   76.3333   91.9170 C   0  0  0  0  0  0  0  0  0  0  0  0
   70.1097   76.8445   92.9184 O   0  0  0  0  0  0  0  0  0  0  0  0
   69.2020   77.1683   90.7962 N   0  0  0  0  0  0  0  0  0  0  0  0
   68.5373   76.8436   90.1467 H   0  0  0  0  0  0  0  0  0  0  0  0
   68.8193   72.6963   90.9447 C   0  0  0  0  0  0  0  0  0  0  0  0
   68.8982   74.1981   90.6881 C   0  0  0  0  0  0  0  0  0  0  0  0
   69.1756   74.2067   93.2136 C   0  0  0  0  0  0  0  0  0  0  0  0
   67.9304   74.5584   93.9825 C   0  0  0  0  0  0  0  0  0  0  0  0
   67.8283   74.2653   95.3537 C   0  0  0  0  0  0  0  0  0  0  0  0
   66.6818   74.6293   96.0681 C   0  0  0  0  0  0  0  0  0  0  0  0
   65.6333   75.2904   95.4212 C   0  0  0  0  0  0  0  0  0  0  0  0
   65.7303   75.5912   94.0593 C   0  0  0  0  0  0  0  0  0  0  0  0
   66.8755   75.2294   93.3412 C   0  0  0  0  0  0  0  0  0  0  0  0
   72.2269   77.6387   90.2862 C   0  0  0  0  0  0  0  0  0  0  0  0
   72.9583   77.6249   89.2593 O   0  0  0  0  0  0  0  0  0  0  0  0
   72.4106   76.6727   91.2698 O   0  0  0  0  0  0  0  0  0  0  0  0
   71.8713   76.6758   92.0361 H   0  0  0  0  0  0  0  0  0  0  0  0
 22 23  1  0  0  0
 23 17  1  0  0  0
 17 24  1  0  0  0
 24 25  1  0  0  0
 25 26  2  0  0  0
 26 27  1  0  0  0
 27 28  2  0  0  0
 28 29  1  0  0  0
 29 30  2  0  0  0
 17 18  1  0  0  0
 18 19  2  0  0  0
 18 20  1  0  0  0
 20  1  1  0  0  0
  1  2  1  0  0  0
  2  3  2  0  0  0
  3  6  1  0  0  0
  6  7  2  0  0  0
  7  8  1  0  0  0
  8  9  2  0  0  0
  9 12  1  0  0  0
 12 13  1  0  0  0
 13 14  1  0  0  0
 13 15  1  0  0  0
 13 16  1  0  0  0
  9 10  1  0  0  0
 10 11  2  0  0  0
  3  4  1  0  0  0
  4  5  1  0  0  0
  5 31  1  0  0  0
 31 32  2  0  0  0
 31 33  1  0  0  0
 30 25  1  0  0  0
  5  1  2  0  0  0
 11  6  1  0  0  0
 20 21  1  0  0  0
 33 34  1  0  0  0
M  END
> <score>
-0.506282

> <minimizedAffinity>
-6.82589

> <CNNscore>
0.3926987350

> <CNNaffinity>
6.1254091263

> <CNN_VS>
2.4054403305

$$$$
HIPS456


 34 36  0  0  0  0  0  0  0  0999 V2000
   67.6301   75.5827   89.3154 C   0  0  0  0  0  0  0  0  0  0  0  0
   67.8654   76.9421   89.5880 C   0  0  0  0  0  0  0  0  0  0  0  0
   67.5185   77.7971   88.5400 C   0  0  0  0  0  0  0  0  0  0  0  0
   66.9301   76.8417   87.2814 S   0  0  0  0  0  0  0  0  0  0  0  0
   67.1056   75.3526   88.0410 C   0  0  0  0  0  0  0  0  0  0  0  0
   67.6424   79.2797   88.5127 C   0  0  0  0  0  0  0  0  0  0  0  0
   68.4812   79.9603   89.4161 C   0  0  0  0  0  0  0  0  0  0  0  0
   68.5856   81.3547   89.3832 C   0  0  0  0  0  0  0  0  0  0  0  0
   67.8508   82.1015   88.4452 C   0  0  0  0  0  0  0  0  0  0  0  0
   67.0187   81.4289   87.5456 C   0  0  0  0  0  0  0  0  0  0  0  0
   66.9138   80.0353   87.5753 C   0  0  0  0  0  0  0  0  0  0  0  0
   67.9129   83.5028   88.3718 O   0  0  0  0  0  0  0  0  0  0  0  0
   68.5265   84.2461   87.3209 C   0  0  0  0  0  0  0  0  0  0  0  0
   67.7143   84.2470   86.2012 F   0  0  0  0  0  0  0  0  0  0  0  0
   69.7599   83.7032   87.0090 F   0  0  0  0  0  0  0  0  0  0  0  0
   68.7077   85.5495   87.7410 F   0  0  0  0  0  0  0  0  0  0  0  0
   69.1931   73.7595   92.2932 N   0  0  0  0  0  0  0  0  0  0  0  0
   68.5312   74.7986   91.5345 C   0  0  0  0  0  0  0  0  0  0  0  0
   68.4041   75.9495   92.0366 O   0  0  0  0  0  0  0  0  0  0  0  0
   67.9853   74.5358   90.2314 N   0  0  0  0  0  0  0  0  0  0  0  0
   67.8494   73.6005   89.9557 H   0  0  0  0  0  0  0  0  0  0  0  0
   69.1369   71.2922   92.2896 C   0  0  0  0  0  0  0  0  0  0  0  0
   69.7129   72.5472   91.6409 C   0  0  0  0  0  0  0  0  0  0  0  0
   69.3693   73.9314   93.7435 C   0  0  0  0  0  0  0  0  0  0  0  0
   68.0332   74.1339   94.4062 C   0  0  0  0  0  0  0  0  0  0  0  0
   66.8611   73.6146   93.8290 C   0  0  0  0  0  0  0  0  0  0  0  0
   65.6287   73.7762   94.4712 C   0  0  0  0  0  0  0  0  0  0  0  0
   65.5583   74.4519   95.6932 C   0  0  0  0  0  0  0  0  0  0  0  0
   66.7206   74.9652   96.2767 C   0  0  0  0  0  0  0  0  0  0  0  0
   67.9553   74.8054   95.6379 C   0  0  0  0  0  0  0  0  0  0  0  0
   66.6964   74.0677   87.4472 C   0  0  0  0  0  0  0  0  0  0  0  0
   66.8669   73.8667   86.2142 O   0  0  0  0  0  0  0  0  0  0  0  0
   66.0984   73.0817   88.2247 O   0  0  0  0  0  0  0  0  0  0  0  0
   65.9681   73.2231   89.1418 H   0  0  0  0  0  0  0  0  0  0  0  0
 22 23  1  0  0  0
 23 17  1  0  0  0
 17 24  1  0  0  0
 24 25  1  0  0  0
 25 26  2  0  0  0
 26 27  1  0  0  0
 27 28  2  0  0  0
 28 29  1  0  0  0
 29 30  2  0  0  0
 17 18  1  0  0  0
 18 19  2  0  0  0
 18 20  1  0  0  0
 20  1  1  0  0  0
  1  2  1  0  0  0
  2  3  2  0  0  0
  3  6  1  0  0  0
  6  7  2  0  0  0
  7  8  1  0  0  0
  8  9  2  0  0  0
  9 12  1  0  0  0
 12 13  1  0  0  0
 13 14  1  0  0  0
 13 15  1  0  0  0
 13 16  1  0  0  0
  9 10  1  0  0  0
 10 11  2  0  0  0
  3  4  1  0  0  0
  4  5  1  0  0  0
  5 31  1  0  0  0
 31 32  2  0  0  0
 31 33  1  0  0  0
 30 25  1  0  0  0
  5  1  2  0  0  0
 11  6  1  0  0  0
 20 21  1  0  0  0
 33 34  1  0  0  0
M  END
> <score>
-0.506282

> <minimizedAffinity>
-7.58713

> <CNNscore>
0.3809831142

> <CNNaffinity>
6.3634681702

> <CNN_VS>
2.4243738651

$$$$
HIPS470


 32 35  0  0  0  0  0  0  0  0999 V2000
   66.9589   81.0430   89.3980 O   0  0  0  0  0  0  0  0  0  0  0  0
   68.2205   81.0784   89.3950 C   0  0  0  0  0  0  0  0  0  0  0  0
   68.9643   79.8576   89.5380 N   0  0  0  0  0  0  0  0  0  0  0  0
   69.9357   79.8711   89.3786 H   0  0  0  0  0  0  0  0  0  0  0  0
   68.9139   82.3774   89.2198 C   0  0  0  0  0  0  0  0  0  0  0  0
   68.1708   83.5560   89.0356 C   0  0  0  0  0  0  0  0  0  0  0  0
   68.8151   84.7859   88.8771 C   0  0  0  0  0  0  0  0  0  0  0  0
   70.2179   84.8667   88.9052 C   0  0  0  0  0  0  0  0  0  0  0  0
   70.9610   83.6897   89.1000 C   0  0  0  0  0  0  0  0  0  0  0  0
   70.3166   82.4595   89.2587 C   0  0  0  0  0  0  0  0  0  0  0  0
   70.9035   86.1737   88.7368 C   0  0  0  0  0  0  0  0  0  0  0  0
   70.2015   87.3800   88.9227 C   0  0  0  0  0  0  0  0  0  0  0  0
   70.8499   88.6087   88.7640 C   0  0  0  0  0  0  0  0  0  0  0  0
   72.2024   88.6480   88.4179 C   0  0  0  0  0  0  0  0  0  0  0  0
   72.9097   87.4586   88.2303 C   0  0  0  0  0  0  0  0  0  0  0  0
   72.2668   86.2271   88.3886 C   0  0  0  0  0  0  0  0  0  0  0  0
   68.3399   78.6204   89.9050 C   0  0  0  0  0  0  0  0  0  0  0  0
   68.2700   78.1990   91.2413 C   0  0  0  0  0  0  0  0  0  0  0  0
   67.6619   76.9531   91.4058 C   0  0  0  0  0  0  0  0  0  0  0  0
   67.2009   76.4039   89.8783 S   0  0  0  0  0  0  0  0  0  0  0  0
   67.7603   77.7236   89.0009 C   0  0  0  0  0  0  0  0  0  0  0  0
   67.4493   76.2260   92.6840 C   0  0  0  0  0  0  0  0  0  0  0  0
   68.5181   75.5482   93.3020 C   0  0  0  0  0  0  0  0  0  0  0  0
   68.3255   74.8619   94.5047 C   0  0  0  0  0  0  0  0  0  0  0  0
   67.0651   74.8398   95.1062 C   0  0  0  0  0  0  0  0  0  0  0  0
   66.8261   73.9771   96.6148 Cl  0  0  0  0  0  0  0  0  0  0  0  0
   65.9948   75.5042   94.5026 C   0  0  0  0  0  0  0  0  0  0  0  0
   66.1823   76.1926   93.3001 C   0  0  0  0  0  0  0  0  0  0  0  0
   67.5487   77.8966   87.5542 C   0  0  0  0  0  0  0  0  0  0  0  0
   67.5825   76.9076   86.7749 O   0  0  0  0  0  0  0  0  0  0  0  0
   67.3432   79.1718   87.0370 O   0  0  0  0  0  0  0  0  0  0  0  0
   67.3169   79.9117   87.6114 H   0  0  0  0  0  0  0  0  0  0  0  0
  1  2  2  0  0  0
  2  3  1  0  0  0
  3 17  1  0  0  0
 17 18  1  0  0  0
 18 19  2  0  0  0
 19 22  1  0  0  0
 22 23  2  0  0  0
 23 24  1  0  0  0
 24 25  2  0  0  0
 25 26  1  0  0  0
 25 27  1  0  0  0
 27 28  2  0  0  0
 19 20  1  0  0  0
 20 21  1  0  0  0
 21 29  1  0  0  0
 29 30  2  0  0  0
 29 31  1  0  0  0
  2  5  1  0  0  0
  5  6  2  0  0  0
  6  7  1  0  0  0
  7  8  2  0  0  0
  8 11  1  0  0  0
 11 12  2  0  0  0
 12 13  1  0  0  0
 13 14  2  0  0  0
 14 15  1  0  0  0
 15 16  2  0  0  0
  8  9  1  0  0  0
  9 10  2  0  0  0
 21 17  2  0  0  0
 10  5  1  0  0  0
 28 22  1  0  0  0
 16 11  1  0  0  0
  3  4  1  0  0  0
 31 32  1  0  0  0
M  END
> <score>
-0.799211

> <minimizedAffinity>
-7.90897

> <CNNscore>
0.3001927435

> <CNNaffinity>
5.8940763474

> <CNN_VS>
1.7693589926

$$$$
HIPS470


 32 35  0  0  0  0  0  0  0  0999 V2000
   68.7561   79.9144   89.5623 O   0  0  0  0  0  0  0  0  0  0  0  0
   69.8254   80.4509   89.9644 C   0  0  0  0  0  0  0  0  0  0  0  0
   70.7982   79.6566   90.6622 N   0  0  0  0  0  0  0  0  0  0  0  0
   71.6895   80.0381   90.8331 H   0  0  0  0  0  0  0  0  0  0  0  0
   70.0702   81.8872   89.6887 C   0  0  0  0  0  0  0  0  0  0  0  0
   71.3850   82.3747   89.5949 C   0  0  0  0  0  0  0  0  0  0  0  0
   71.6258   83.7252   89.3281 C   0  0  0  0  0  0  0  0  0  0  0  0
   70.5569   84.6186   89.1425 C   0  0  0  0  0  0  0  0  0  0  0  0
   69.2420   84.1292   89.2257 C   0  0  0  0  0  0  0  0  0  0  0  0
   69.0011   82.7784   89.4926 C   0  0  0  0  0  0  0  0  0  0  0  0
   70.8120   86.0543   88.8587 C   0  0  0  0  0  0  0  0  0  0  0  0
   69.7688   86.9966   88.9391 C   0  0  0  0  0  0  0  0  0  0  0  0
   70.0122   88.3474   88.6719 C   0  0  0  0  0  0  0  0  0  0  0  0
   71.2955   88.7724   88.3213 C   0  0  0  0  0  0  0  0  0  0  0  0
   72.3386   87.8476   88.2377 C   0  0  0  0  0  0  0  0  0  0  0  0
   72.1013   86.4958   88.5048 C   0  0  0  0  0  0  0  0  0  0  0  0
   70.5149   78.3273   91.1182 C   0  0  0  0  0  0  0  0  0  0  0  0
   69.2762   77.9917   91.6850 C   0  0  0  0  0  0  0  0  0  0  0  0
   69.1935   76.6634   92.1065 C   0  0  0  0  0  0  0  0  0  0  0  0
   70.6647   75.9201   91.7457 S   0  0  0  0  0  0  0  0  0  0  0  0
   71.4152   77.2579   91.0590 C   0  0  0  0  0  0  0  0  0  0  0  0
   68.0309   76.0044   92.7561 C   0  0  0  0  0  0  0  0  0  0  0  0
   66.9551   76.7755   93.2377 C   0  0  0  0  0  0  0  0  0  0  0  0
   65.8579   76.1625   93.8501 C   0  0  0  0  0  0  0  0  0  0  0  0
   65.8192   74.7736   93.9930 C   0  0  0  0  0  0  0  0  0  0  0  0
   64.4418   74.0071   94.7626 Cl  0  0  0  0  0  0  0  0  0  0  0  0
   66.8809   73.9964   93.5237 C   0  0  0  0  0  0  0  0  0  0  0  0
   67.9802   74.6045   92.9099 C   0  0  0  0  0  0  0  0  0  0  0  0
   72.7436   77.2185   90.4254 C   0  0  0  0  0  0  0  0  0  0  0  0
   73.7291   76.7125   91.0249 O   0  0  0  0  0  0  0  0  0  0  0  0
   72.9204   77.7777   89.1637 O   0  0  0  0  0  0  0  0  0  0  0  0
   72.1913   78.1557   88.7124 H   0  0  0  0  0  0  0  0  0  0  0  0
  1  2  2  0  0  0
  2  3  1  0  0  0
  3 17  1  0  0  0
 17 18  1  0  0  0
 18 19  2  0  0  0
 19 22  1  0  0  0
 22 23  2  0  0  0
 23 24  1  0  0  0
 24 25  2  0  0  0
 25 26  1  0  0  0
 25 27  1  0  0  0
 27 28  2  0  0  0
 19 20  1  0  0  0
 20 21  1  0  0  0
 21 29  1  0  0  0
 29 30  2  0  0  0
 29 31  1  0  0  0
  2  5  1  0  0  0
  5  6  2  0  0  0
  6  7  1  0  0  0
  7  8  2  0  0  0
  8 11  1  0  0  0
 11 12  2  0  0  0
 12 13  1  0  0  0
 13 14  2  0  0  0
 14 15  1  0  0  0
 15 16  2  0  0  0
  8  9  1  0  0  0
  9 10  2  0  0  0
 21 17  2  0  0  0
 10  5  1  0  0  0
 28 22  1  0  0  0
 16 11  1  0  0  0
  3  4  1  0  0  0
 31 32  1  0  0  0
M  END
> <score>
-0.799211

> <minimizedAffinity>
-5.18848

> <CNNscore>
0.2458850741

> <CNNaffinity>
5.8626737595

> <CNN_VS>
1.4415439367

$$$$
HIPS470


 32 35  0  0  0  0  0  0  0  0999 V2000
   68.0644   84.2691   89.0915 O   0  0  0  0  0  0  0  0  0  0  0  0
   69.2300   84.6338   89.4101 C   0  0  0  0  0  0  0  0  0  0  0  0
   69.7220   84.3598   90.7318 N   0  0  0  0  0  0  0  0  0  0  0  0
   70.6770   84.5040   90.9231 H   0  0  0  0  0  0  0  0  0  0  0  0
   70.0807   85.3180   88.4066 C   0  0  0  0  0  0  0  0  0  0  0  0
   71.0281   86.2720   88.8160 C   0  0  0  0  0  0  0  0  0  0  0  0
   71.8395   86.9166   87.8784 C   0  0  0  0  0  0  0  0  0  0  0  0
   71.7266   86.6176   86.5098 C   0  0  0  0  0  0  0  0  0  0  0  0
   70.7866   85.6560   86.1013 C   0  0  0  0  0  0  0  0  0  0  0  0
   69.9750   85.0110   87.0390 C   0  0  0  0  0  0  0  0  0  0  0  0
   72.5888   87.3024   85.5126 C   0  0  0  0  0  0  0  0  0  0  0  0
   73.5458   88.2499   85.9236 C   0  0  0  0  0  0  0  0  0  0  0  0
   74.3562   88.8923   84.9825 C   0  0  0  0  0  0  0  0  0  0  0  0
   74.2209   88.5985   83.6239 C   0  0  0  0  0  0  0  0  0  0  0  0
   73.2751   87.6610   83.2033 C   0  0  0  0  0  0  0  0  0  0  0  0
   72.4627   87.0148   84.1400 C   0  0  0  0  0  0  0  0  0  0  0  0
   68.8697   83.8837   91.7815 C   0  0  0  0  0  0  0  0  0  0  0  0
   68.4111   84.7328   92.7998 C   0  0  0  0  0  0  0  0  0  0  0  0
   67.6243   84.0882   93.7561 C   0  0  0  0  0  0  0  0  0  0  0  0
   67.4955   82.4677   93.3038 S   0  0  0  0  0  0  0  0  0  0  0  0
   68.4248   82.5630   91.9068 C   0  0  0  0  0  0  0  0  0  0  0  0
   67.0036   84.6995   94.9598 C   0  0  0  0  0  0  0  0  0  0  0  0
   65.7095   85.2510   94.8892 C   0  0  0  0  0  0  0  0  0  0  0  0
   65.1192   85.8280   96.0176 C   0  0  0  0  0  0  0  0  0  0  0  0
   65.8112   85.8653   97.2303 C   0  0  0  0  0  0  0  0  0  0  0  0
   65.0684   86.5906   98.6443 Cl  0  0  0  0  0  0  0  0  0  0  0  0
   67.0970   85.3257   97.3141 C   0  0  0  0  0  0  0  0  0  0  0  0
   67.6916   84.7470   96.1887 C   0  0  0  0  0  0  0  0  0  0  0  0
   68.6089   81.4459   90.9657 C   0  0  0  0  0  0  0  0  0  0  0  0
   67.7626   80.5155   90.8959 O   0  0  0  0  0  0  0  0  0  0  0  0
   69.7481   81.3992   90.1684 O   0  0  0  0  0  0  0  0  0  0  0  0
   70.3815   82.0881   90.2155 H   0  0  0  0  0  0  0  0  0  0  0  0
  1  2  2  0  0  0
  2  3  1  0  0  0
  3 17  1  0  0  0
 17 18  1  0  0  0
 18 19  2  0  0  0
 19 22  1  0  0  0
 22 23  2  0  0  0
 23 24  1  0  0  0
 24 25  2  0  0  0
 25 26  1  0  0  0
 25 27  1  0  0  0
 27 28  2  0  0  0
 19 20  1  0  0  0
 20 21  1  0  0  0
 21 29  1  0  0  0
 29 30  2  0  0  0
 29 31  1  0  0  0
  2  5  1  0  0  0
  5  6  2  0  0  0
  6  7  1  0  0  0
  7  8  2  0  0  0
  8 11  1  0  0  0
 11 12  2  0  0  0
 12 13  1  0  0  0
 13 14  2  0  0  0
 14 15  1  0  0  0
 15 16  2  0  0  0
  8  9  1  0  0  0
  9 10  2  0  0  0
 21 17  2  0  0  0
 10  5  1  0  0  0
 28 22  1  0  0  0
 16 11  1  0  0  0
  3  4  1  0  0  0
 31 32  1  0  0  0
M  END
> <score>
-0.799211

> <minimizedAffinity>
10.96225

> <CNNscore>
0.2435981482

> <CNNaffinity>
5.2110624313

> <CNN_VS>
1.2694051266

$$$$
HIPS477


 31 33  0  0  0  0  0  0  0  0999 V2000
   67.9808   81.3906   88.4539 C   0  0  0  0  0  0  0  0  0  0  0  0
   67.2575   81.9503   87.0478 S   0  0  0  0  0  0  0  0  0  0  0  0
   68.2100   83.3229   86.8873 C   0  0  0  0  0  0  0  0  0  0  0  0
   69.1362   83.3530   87.9291 C   0  0  0  0  0  0  0  0  0  0  0  0
   69.0134   82.2612   88.8247 C   0  0  0  0  0  0  0  0  0  0  0  0
   70.1763   84.4027   88.0039 C   0  0  0  0  0  0  0  0  0  0  0  0
   71.5144   84.1072   87.6975 C   0  0  0  0  0  0  0  0  0  0  0  0
   72.4874   85.1085   87.7496 C   0  0  0  0  0  0  0  0  0  0  0  0
   72.1357   86.4173   88.0964 C   0  0  0  0  0  0  0  0  0  0  0  0
   73.3885   87.6500   88.1505 Cl  0  0  0  0  0  0  0  0  0  0  0  0
   70.7963   86.7254   88.3880 C   0  0  0  0  0  0  0  0  0  0  0  0
   70.3104   88.3592   88.8204 Cl  0  0  0  0  0  0  0  0  0  0  0  0
   69.8230   85.7206   88.3351 C   0  0  0  0  0  0  0  0  0  0  0  0
   67.3739   79.0107   91.3427 N   0  0  0  0  0  0  0  0  0  0  0  0
   67.2304   80.2095   90.5438 C   0  0  0  0  0  0  0  0  0  0  0  0
   66.8056   81.2724   91.0747 O   0  0  0  0  0  0  0  0  0  0  0  0
   67.5487   80.2118   89.1456 N   0  0  0  0  0  0  0  0  0  0  0  0
   67.4672   79.3705   88.6407 H   0  0  0  0  0  0  0  0  0  0  0  0
   66.4763   77.6495   93.2103 C   0  0  0  0  0  0  0  0  0  0  0  0
   66.9559   79.0281   92.7556 C   0  0  0  0  0  0  0  0  0  0  0  0
   67.8850   77.7601   90.7517 C   0  0  0  0  0  0  0  0  0  0  0  0
   69.3816   77.6688   90.9011 C   0  0  0  0  0  0  0  0  0  0  0  0
   70.2198   78.1841   89.8984 C   0  0  0  0  0  0  0  0  0  0  0  0
   71.6085   78.0675   90.0097 C   0  0  0  0  0  0  0  0  0  0  0  0
   72.1716   77.4429   91.1254 C   0  0  0  0  0  0  0  0  0  0  0  0
   71.3469   76.9428   92.1361 C   0  0  0  0  0  0  0  0  0  0  0  0
   69.9576   77.0584   92.0290 C   0  0  0  0  0  0  0  0  0  0  0  0
   69.8832   82.0540   90.0012 C   0  0  0  0  0  0  0  0  0  0  0  0
   70.9611   81.4110   89.8881 O   0  0  0  0  0  0  0  0  0  0  0  0
   69.5145   82.5615   91.2426 O   0  0  0  0  0  0  0  0  0  0  0  0
   68.7145   83.0406   91.3340 H   0  0  0  0  0  0  0  0  0  0  0  0
 19 20  1  0  0  0
 20 14  1  0  0  0
 14 21  1  0  0  0
 21 22  1  0  0  0
 22 23  2  0  0  0
 23 24  1  0  0  0
 24 25  2  0  0  0
 25 26  1  0  0  0
 26 27  2  0  0  0
 14 15  1  0  0  0
 15 16  2  0  0  0
 15 17  1  0  0  0
 17  1  1  0  0  0
  1  2  1  0  0  0
  2  3  1  0  0  0
  3  4  2  0  0  0
  4  6  1  0  0  0
  6  7  2  0  0  0
  7  8  1  0  0  0
  8  9  2  0  0  0
  9 10  1  0  0  0
  9 11  1  0  0  0
 11 12  1  0  0  0
 11 13  2  0  0  0
  4  5  1  0  0  0
  5 28  1  0  0  0
 28 29  2  0  0  0
 28 30  1  0  0  0
 27 22  1  0  0  0
  5  1  2  0  0  0
 13  6  1  0  0  0
 17 18  1  0  0  0
 30 31  1  0  0  0
M  END
> <score>
-0.169582

> <minimizedAffinity>
-7.68165

> <CNNscore>
0.7527179718

> <CNNaffinity>
6.6145114899

> <CNN_VS>
4.9788618088

$$$$
HIPS477


 31 33  0  0  0  0  0  0  0  0999 V2000
   69.3146   77.2767   91.2177 C   0  0  0  0  0  0  0  0  0  0  0  0
   70.9653   76.9800   91.1917 S   0  0  0  0  0  0  0  0  0  0  0  0
   71.4074   78.4677   90.5526 C   0  0  0  0  0  0  0  0  0  0  0  0
   70.2601   79.2387   90.3704 C   0  0  0  0  0  0  0  0  0  0  0  0
   69.0667   78.5711   90.7436 C   0  0  0  0  0  0  0  0  0  0  0  0
   70.3411   80.6403   89.9032 C   0  0  0  0  0  0  0  0  0  0  0  0
   69.1998   81.3007   89.4206 C   0  0  0  0  0  0  0  0  0  0  0  0
   69.2794   82.6310   89.0012 C   0  0  0  0  0  0  0  0  0  0  0  0
   70.4944   83.3210   89.0686 C   0  0  0  0  0  0  0  0  0  0  0  0
   70.5547   84.9944   88.5318 Cl  0  0  0  0  0  0  0  0  0  0  0  0
   71.6376   82.6732   89.5659 C   0  0  0  0  0  0  0  0  0  0  0  0
   73.1824   83.5063   89.6751 Cl  0  0  0  0  0  0  0  0  0  0  0  0
   71.5556   81.3402   89.9858 C   0  0  0  0  0  0  0  0  0  0  0  0
   67.5040   74.8609   93.5117 N   0  0  0  0  0  0  0  0  0  0  0  0
   67.9766   76.1364   93.0165 C   0  0  0  0  0  0  0  0  0  0  0  0
   68.0543   77.1249   93.7969 O   0  0  0  0  0  0  0  0  0  0  0  0
   68.3475   76.3074   91.6418 N   0  0  0  0  0  0  0  0  0  0  0  0
   67.9211   75.7364   90.9626 H   0  0  0  0  0  0  0  0  0  0  0  0
   65.6614   74.1220   94.9968 C   0  0  0  0  0  0  0  0  0  0  0  0
   67.0528   74.7494   94.9101 C   0  0  0  0  0  0  0  0  0  0  0  0
   67.4204   73.6851   92.6256 C   0  0  0  0  0  0  0  0  0  0  0  0
   68.6449   72.8184   92.7678 C   0  0  0  0  0  0  0  0  0  0  0  0
   68.9330   71.8457   91.7961 C   0  0  0  0  0  0  0  0  0  0  0  0
   70.0444   71.0101   91.9409 C   0  0  0  0  0  0  0  0  0  0  0  0
   70.8808   71.1435   93.0520 C   0  0  0  0  0  0  0  0  0  0  0  0
   70.6124   72.1195   94.0149 C   0  0  0  0  0  0  0  0  0  0  0  0
   69.5025   72.9579   93.8731 C   0  0  0  0  0  0  0  0  0  0  0  0
   67.7203   79.1744   90.6605 C   0  0  0  0  0  0  0  0  0  0  0  0
   67.2750   79.8664   91.6149 O   0  0  0  0  0  0  0  0  0  0  0  0
   66.9329   78.9765   89.5312 O   0  0  0  0  0  0  0  0  0  0  0  0
   67.2576   78.4631   88.8178 H   0  0  0  0  0  0  0  0  0  0  0  0
 19 20  1  0  0  0
 20 14  1  0  0  0
 14 21  1  0  0  0
 21 22  1  0  0  0
 22 23  2  0  0  0
 23 24  1  0  0  0
 24 25  2  0  0  0
 25 26  1  0  0  0
 26 27  2  0  0  0
 14 15  1  0  0  0
 15 16  2  0  0  0
 15 17  1  0  0  0
 17  1  1  0  0  0
  1  2  1  0  0  0
  2  3  1  0  0  0
  3  4  2  0  0  0
  4  6  1  0  0  0
  6  7  2  0  0  0
  7  8  1  0  0  0
  8  9  2  0  0  0
  9 10  1  0  0  0
  9 11  1  0  0  0
 11 12  1  0  0  0
 11 13  2  0  0  0
  4  5  1  0  0  0
  5 28  1  0  0  0
 28 29  2  0  0  0
 28 30  1  0  0  0
 27 22  1  0  0  0
  5  1  2  0  0  0
 13  6  1  0  0  0
 17 18  1  0  0  0
 30 31  1  0  0  0
M  END
> <score>
-0.169582

> <minimizedAffinity>
-7.69483

> <CNNscore>
0.6380019188

> <CNNaffinity>
6.2622880936

> <CNN_VS>
3.9953517914

$$$$
HIPS477


 31 33  0  0  0  0  0  0  0  0999 V2000
   68.1350   80.9399   88.8642 C   0  0  0  0  0  0  0  0  0  0  0  0
   67.2651   81.4446   87.5217 S   0  0  0  0  0  0  0  0  0  0  0  0
   68.1259   82.8632   87.2700 C   0  0  0  0  0  0  0  0  0  0  0  0
   69.1351   82.9539   88.2278 C   0  0  0  0  0  0  0  0  0  0  0  0
   69.1478   81.8677   89.1384 C   0  0  0  0  0  0  0  0  0  0  0  0
   70.1204   84.0575   88.2052 C   0  0  0  0  0  0  0  0  0  0  0  0
   71.4592   83.8144   87.8585 C   0  0  0  0  0  0  0  0  0  0  0  0
   72.3792   84.8650   87.8185 C   0  0  0  0  0  0  0  0  0  0  0  0
   71.9728   86.1709   88.1124 C   0  0  0  0  0  0  0  0  0  0  0  0
   73.1599   87.4667   88.0510 Cl  0  0  0  0  0  0  0  0  0  0  0  0
   70.6315   86.4258   88.4439 C   0  0  0  0  0  0  0  0  0  0  0  0
   70.0772   88.0536   88.8123 Cl  0  0  0  0  0  0  0  0  0  0  0  0
   69.7112   85.3716   88.4833 C   0  0  0  0  0  0  0  0  0  0  0  0
   67.1856   78.7514   91.8114 N   0  0  0  0  0  0  0  0  0  0  0  0
   67.0205   79.7583   90.7845 C   0  0  0  0  0  0  0  0  0  0  0  0
   66.1450   80.6569   90.9193 O   0  0  0  0  0  0  0  0  0  0  0  0
   67.8271   79.7482   89.5989 N   0  0  0  0  0  0  0  0  0  0  0  0
   68.1834   78.8889   89.2768 H   0  0  0  0  0  0  0  0  0  0  0  0
   66.6972   79.7945   94.0068 C   0  0  0  0  0  0  0  0  0  0  0  0
   66.2799   78.7475   92.9738 C   0  0  0  0  0  0  0  0  0  0  0  0
   68.2130   77.7007   91.6875 C   0  0  0  0  0  0  0  0  0  0  0  0
   68.0891   76.6954   92.8032 C   0  0  0  0  0  0  0  0  0  0  0  0
   69.0180   76.6985   93.8570 C   0  0  0  0  0  0  0  0  0  0  0  0
   68.9345   75.7439   94.8750 C   0  0  0  0  0  0  0  0  0  0  0  0
   67.9196   74.7839   94.8533 C   0  0  0  0  0  0  0  0  0  0  0  0
   66.9808   74.7836   93.8187 C   0  0  0  0  0  0  0  0  0  0  0  0
   67.0602   75.7373   92.7994 C   0  0  0  0  0  0  0  0  0  0  0  0
   70.1250   81.7201   90.2370 C   0  0  0  0  0  0  0  0  0  0  0  0
   70.8974   80.7250   90.2698 O   0  0  0  0  0  0  0  0  0  0  0  0
   70.1938   82.6752   91.2458 O   0  0  0  0  0  0  0  0  0  0  0  0
   69.6225   83.4177   91.2278 H   0  0  0  0  0  0  0  0  0  0  0  0
 19 20  1  0  0  0
 20 14  1  0  0  0
 14 21  1  0  0  0
 21 22  1  0  0  0
 22 23  2  0  0  0
 23 24  1  0  0  0
 24 25  2  0  0  0
 25 26  1  0  0  0
 26 27  2  0  0  0
 14 15  1  0  0  0
 15 16  2  0  0  0
 15 17  1  0  0  0
 17  1  1  0  0  0
  1  2  1  0  0  0
  2  3  1  0  0  0
  3  4  2  0  0  0
  4  6  1  0  0  0
  6  7  2  0  0  0
  7  8  1  0  0  0
  8  9  2  0  0  0
  9 10  1  0  0  0
  9 11  1  0  0  0
 11 12  1  0  0  0
 11 13  2  0  0  0
  4  5  1  0  0  0
  5 28  1  0  0  0
 28 29  2  0  0  0
 28 30  1  0  0  0
 27 22  1  0  0  0
  5  1  2  0  0  0
 13  6  1  0  0  0
 17 18  1  0  0  0
 30 31  1  0  0  0
M  END
> <score>
-0.169582

> <minimizedAffinity>
-7.73108

> <CNNscore>
0.6366251111

> <CNNaffinity>
6.2937221527

> <CNN_VS>
4.0067415237

$$$$
HIPS478


 29 30  0  0  0  0  0  0  0  0999 V2000
   68.4895   81.7980   88.7403 C   0  0  0  0  0  0  0  0  0  0  0  0
   67.7132   82.3345   87.3541 S   0  0  0  0  0  0  0  0  0  0  0  0
   68.6863   83.6799   87.1158 C   0  0  0  0  0  0  0  0  0  0  0  0
   69.6432   83.7291   88.1277 C   0  0  0  0  0  0  0  0  0  0  0  0
   69.5625   82.6467   89.0423 C   0  0  0  0  0  0  0  0  0  0  0  0
   70.6227   84.8304   88.1894 C   0  0  0  0  0  0  0  0  0  0  0  0
   71.9629   84.6009   87.8450 C   0  0  0  0  0  0  0  0  0  0  0  0
   72.8843   85.6512   87.8662 C   0  0  0  0  0  0  0  0  0  0  0  0
   72.4745   86.9424   88.2183 C   0  0  0  0  0  0  0  0  0  0  0  0
   73.6629   88.2383   88.2348 Cl  0  0  0  0  0  0  0  0  0  0  0  0
   71.1286   87.1828   88.5464 C   0  0  0  0  0  0  0  0  0  0  0  0
   70.5699   88.7910   88.9858 Cl  0  0  0  0  0  0  0  0  0  0  0  0
   70.2074   86.1289   88.5224 C   0  0  0  0  0  0  0  0  0  0  0  0
   66.9572   78.4416   89.6794 N   0  0  0  0  0  0  0  0  0  0  0  0
   67.3129   79.5853   88.8906 C   0  0  0  0  0  0  0  0  0  0  0  0
   66.9908   79.6415   87.6721 O   0  0  0  0  0  0  0  0  0  0  0  0
   68.0581   80.6554   89.4883 N   0  0  0  0  0  0  0  0  0  0  0  0
   67.1643   78.4526   90.6418 H   0  0  0  0  0  0  0  0  0  0  0  0
   68.2807   80.6026   90.4459 H   0  0  0  0  0  0  0  0  0  0  0  0
   66.3011   77.2594   89.1206 C   0  0  0  0  0  0  0  0  0  0  0  0
   67.3341   76.1950   88.7244 C   0  0  0  0  0  0  0  0  0  0  0  0
   67.0568   75.5327   87.3635 C   0  0  0  0  0  0  0  0  0  0  0  0
   66.6820   76.5496   86.2753 C   0  0  0  0  0  0  0  0  0  0  0  0
   68.5903   77.7159   85.1054 C   0  0  0  0  0  0  0  0  0  0  0  0
   67.6753   76.4942   85.1092 C   0  0  0  0  0  0  0  0  0  0  0  0
   70.5728   82.3455   90.0891 C   0  0  0  0  0  0  0  0  0  0  0  0
   70.8043   83.1627   91.0185 O   0  0  0  0  0  0  0  0  0  0  0  0
   71.3084   81.1650   90.0335 O   0  0  0  0  0  0  0  0  0  0  0  0
   71.1491   80.5456   89.3487 H   0  0  0  0  0  0  0  0  0  0  0  0
 24 25  1  0  0  0
 25 23  1  0  0  0
 23 22  1  0  0  0
 22 21  1  0  0  0
 21 20  1  0  0  0
 20 14  1  0  0  0
 14 15  1  0  0  0
 15 16  2  0  0  0
 15 17  1  0  0  0
 17  1  1  0  0  0
  1  2  1  0  0  0
  2  3  1  0  0  0
  3  4  2  0  0  0
  4  6  1  0  0  0
  6  7  2  0  0  0
  7  8  1  0  0  0
  8  9  2  0  0  0
  9 10  1  0  0  0
  9 11  1  0  0  0
 11 12  1  0  0  0
 11 13  2  0  0  0
  4  5  1  0  0  0
  5 26  1  0  0  0
 26 27  2  0  0  0
 26 28  1  0  0  0
  5  1  2  0  0  0
 13  6  1  0  0  0
 14 18  1  0  0  0
 17 19  1  0  0  0
 28 29  1  0  0  0
M  END
> <score>
-1.455511

> <minimizedAffinity>
-6.47198

> <CNNscore>
0.6193052530

> <CNNaffinity>
6.2557735443

> <CNN_VS>
3.8742334843

$$$$
HIPS478


 29 30  0  0  0  0  0  0  0  0999 V2000
   67.6312   75.8665   93.2674 C   0  0  0  0  0  0  0  0  0  0  0  0
   66.4748   75.0438   94.1607 S   0  0  0  0  0  0  0  0  0  0  0  0
   67.3200   73.5979   94.2552 C   0  0  0  0  0  0  0  0  0  0  0  0
   68.5324   73.7396   93.5826 C   0  0  0  0  0  0  0  0  0  0  0  0
   68.7365   75.0358   93.0416 C   0  0  0  0  0  0  0  0  0  0  0  0
   69.4747   72.6097   93.4763 C   0  0  0  0  0  0  0  0  0  0  0  0
   70.3542   72.3246   94.5312 C   0  0  0  0  0  0  0  0  0  0  0  0
   71.2211   71.2319   94.4484 C   0  0  0  0  0  0  0  0  0  0  0  0
   71.2096   70.4060   93.3184 C   0  0  0  0  0  0  0  0  0  0  0  0
   72.3161   69.0411   93.2496 Cl  0  0  0  0  0  0  0  0  0  0  0  0
   70.3173   70.6755   92.2656 C   0  0  0  0  0  0  0  0  0  0  0  0
   70.2638   69.6584   90.8322 Cl  0  0  0  0  0  0  0  0  0  0  0  0
   69.4485   71.7698   92.3524 C   0  0  0  0  0  0  0  0  0  0  0  0
   66.8333   78.8634   91.0590 N   0  0  0  0  0  0  0  0  0  0  0  0
   67.0500   77.5017   91.4532 C   0  0  0  0  0  0  0  0  0  0  0  0
   66.8682   76.5650   90.6278 O   0  0  0  0  0  0  0  0  0  0  0  0
   67.4518   77.2079   92.7985 N   0  0  0  0  0  0  0  0  0  0  0  0
   67.0446   79.5776   91.7028 H   0  0  0  0  0  0  0  0  0  0  0  0
   67.6096   77.9541   93.4210 H   0  0  0  0  0  0  0  0  0  0  0  0
   66.3129   79.2409   89.7447 C   0  0  0  0  0  0  0  0  0  0  0  0
   67.4577   79.4842   88.7511 C   0  0  0  0  0  0  0  0  0  0  0  0
   67.8245   78.2505   87.9079 C   0  0  0  0  0  0  0  0  0  0  0  0
   66.6192   77.6680   87.1551 C   0  0  0  0  0  0  0  0  0  0  0  0
   68.3042   77.3359   85.3054 C   0  0  0  0  0  0  0  0  0  0  0  0
   67.0773   76.7605   86.0077 C   0  0  0  0  0  0  0  0  0  0  0  0
   70.0138   75.5170   92.4548 C   0  0  0  0  0  0  0  0  0  0  0  0
   70.4615   75.0226   91.3870 O   0  0  0  0  0  0  0  0  0  0  0  0
   70.7558   76.5003   93.1031 O   0  0  0  0  0  0  0  0  0  0  0  0
   70.4375   76.8791   93.8989 H   0  0  0  0  0  0  0  0  0  0  0  0
 24 25  1  0  0  0
 25 23  1  0  0  0
 23 22  1  0  0  0
 22 21  1  0  0  0
 21 20  1  0  0  0
 20 14  1  0  0  0
 14 15  1  0  0  0
 15 16  2  0  0  0
 15 17  1  0  0  0
 17  1  1  0  0  0
  1  2  1  0  0  0
  2  3  1  0  0  0
  3  4  2  0  0  0
  4  6  1  0  0  0
  6  7  2  0  0  0
  7  8  1  0  0  0
  8  9  2  0  0  0
  9 10  1  0  0  0
  9 11  1  0  0  0
 11 12  1  0  0  0
 11 13  2  0  0  0
  4  5  1  0  0  0
  5 26  1  0  0  0
 26 27  2  0  0  0
 26 28  1  0  0  0
  5  1  2  0  0  0
 13  6  1  0  0  0
 14 18  1  0  0  0
 17 19  1  0  0  0
 28 29  1  0  0  0
M  END
> <score>
-1.455511

> <minimizedAffinity>
-6.60024

> <CNNscore>
0.5685717463

> <CNNaffinity>
6.0933713913

> <CNN_VS>
3.4645187855

$$$$
HIPS478


 29 30  0  0  0  0  0  0  0  0999 V2000
   68.0679   81.3735   88.8400 C   0  0  0  0  0  0  0  0  0  0  0  0
   67.3829   81.7940   87.3683 S   0  0  0  0  0  0  0  0  0  0  0  0
   68.3753   83.1157   87.0824 C   0  0  0  0  0  0  0  0  0  0  0  0
   69.2670   83.2483   88.1452 C   0  0  0  0  0  0  0  0  0  0  0  0
   69.1237   82.2446   89.1386 C   0  0  0  0  0  0  0  0  0  0  0  0
   70.2458   84.3514   88.1781 C   0  0  0  0  0  0  0  0  0  0  0  0
   71.6034   84.0956   87.9353 C   0  0  0  0  0  0  0  0  0  0  0  0
   72.5265   85.1446   87.9284 C   0  0  0  0  0  0  0  0  0  0  0  0
   72.1019   86.4597   88.1506 C   0  0  0  0  0  0  0  0  0  0  0  0
   73.2929   87.7533   88.1357 Cl  0  0  0  0  0  0  0  0  0  0  0  0
   70.7396   86.7250   88.3761 C   0  0  0  0  0  0  0  0  0  0  0  0
   70.1625   88.3630   88.6507 Cl  0  0  0  0  0  0  0  0  0  0  0  0
   69.8169   85.6722   88.3804 C   0  0  0  0  0  0  0  0  0  0  0  0
   67.1261   77.8951   90.0683 N   0  0  0  0  0  0  0  0  0  0  0  0
   67.5704   78.9376   89.1895 C   0  0  0  0  0  0  0  0  0  0  0  0
   67.9664   78.6602   88.0243 O   0  0  0  0  0  0  0  0  0  0  0  0
   67.5849   80.2959   89.6505 N   0  0  0  0  0  0  0  0  0  0  0  0
   66.7621   78.1462   90.9480 H   0  0  0  0  0  0  0  0  0  0  0  0
   67.2513   80.4943   90.5552 H   0  0  0  0  0  0  0  0  0  0  0  0
   67.1885   76.4758   89.7188 C   0  0  0  0  0  0  0  0  0  0  0  0
   68.3717   75.7907   90.4171 C   0  0  0  0  0  0  0  0  0  0  0  0
   69.0880   76.6807   91.4478 C   0  0  0  0  0  0  0  0  0  0  0  0
   70.4676   76.1348   91.8446 C   0  0  0  0  0  0  0  0  0  0  0  0
   71.5226   77.8353   90.3064 C   0  0  0  0  0  0  0  0  0  0  0  0
   71.5455   77.2152   91.7009 C   0  0  0  0  0  0  0  0  0  0  0  0
   70.0648   82.0308   90.2682 C   0  0  0  0  0  0  0  0  0  0  0  0
   70.8331   81.0336   90.2897 O   0  0  0  0  0  0  0  0  0  0  0  0
   70.0817   82.9156   91.3427 O   0  0  0  0  0  0  0  0  0  0  0  0
   69.5165   83.6629   91.3431 H   0  0  0  0  0  0  0  0  0  0  0  0
 24 25  1  0  0  0
 25 23  1  0  0  0
 23 22  1  0  0  0
 22 21  1  0  0  0
 21 20  1  0  0  0
 20 14  1  0  0  0
 14 15  1  0  0  0
 15 16  2  0  0  0
 15 17  1  0  0  0
 17  1  1  0  0  0
  1  2  1  0  0  0
  2  3  1  0  0  0
  3  4  2  0  0  0
  4  6  1  0  0  0
  6  7  2  0  0  0
  7  8  1  0  0  0
  8  9  2  0  0  0
  9 10  1  0  0  0
  9 11  1  0  0  0
 11 12  1  0  0  0
 11 13  2  0  0  0
  4  5  1  0  0  0
  5 26  1  0  0  0
 26 27  2  0  0  0
 26 28  1  0  0  0
  5  1  2  0  0  0
 13  6  1  0  0  0
 14 18  1  0  0  0
 17 19  1  0  0  0
 28 29  1  0  0  0
M  END
> <score>
-1.455511

> <minimizedAffinity>
-6.66504

> <CNNscore>
0.5656086206

> <CNNaffinity>
6.2412528992

> <CNN_VS>
3.5301065445

$$$$
HIPS482


 31 33  0  0  0  0  0  0  0  0999 V2000
   68.8599   78.1135   91.2964 C   0  0  0  0  0  0  0  0  0  0  0  0
   68.4975   79.3634   90.7748 C   0  0  0  0  0  0  0  0  0  0  0  0
   69.5483   80.0325   90.1425 C   0  0  0  0  0  0  0  0  0  0  0  0
   70.9263   79.0665   90.2834 S   0  0  0  0  0  0  0  0  0  0  0  0
   70.2094   77.7987   91.1214 C   0  0  0  0  0  0  0  0  0  0  0  0
   69.4844   81.3471   89.4500 C   0  0  0  0  0  0  0  0  0  0  0  0
   70.5707   82.2407   89.5215 C   0  0  0  0  0  0  0  0  0  0  0  0
   70.5241   83.4740   88.8654 C   0  0  0  0  0  0  0  0  0  0  0  0
   69.3939   83.8342   88.1251 C   0  0  0  0  0  0  0  0  0  0  0  0
   68.3086   82.9563   88.0446 C   0  0  0  0  0  0  0  0  0  0  0  0
   68.3509   81.7233   88.7018 C   0  0  0  0  0  0  0  0  0  0  0  0
   69.3482   85.1029   87.4472 C   0  0  0  0  0  0  0  0  0  0  0  0
   69.3114   86.1229   86.9022 N   0  0  0  0  0  0  0  0  0  0  0  0
   67.3613   75.7470   90.0531 N   0  0  0  0  0  0  0  0  0  0  0  0
   67.5268   75.9864   91.4680 C   0  0  0  0  0  0  0  0  0  0  0  0
   67.2853   75.0633   92.2916 O   0  0  0  0  0  0  0  0  0  0  0  0
   67.9175   77.2720   91.9685 N   0  0  0  0  0  0  0  0  0  0  0  0
   67.5201   77.5897   92.8114 H   0  0  0  0  0  0  0  0  0  0  0  0
   68.5976   73.6418   90.3736 C   0  0  0  0  0  0  0  0  0  0  0  0
   67.5633   74.3831   89.5354 C   0  0  0  0  0  0  0  0  0  0  0  0
   66.5924   76.7151   89.2526 C   0  0  0  0  0  0  0  0  0  0  0  0
   67.1197   76.8251   87.8423 C   0  0  0  0  0  0  0  0  0  0  0  0
   67.9884   77.8710   87.4862 C   0  0  0  0  0  0  0  0  0  0  0  0
   68.4711   77.9723   86.1777 C   0  0  0  0  0  0  0  0  0  0  0  0
   68.0930   77.0315   85.2166 C   0  0  0  0  0  0  0  0  0  0  0  0
   67.2313   75.9880   85.5627 C   0  0  0  0  0  0  0  0  0  0  0  0
   66.7466   75.8851   86.8694 C   0  0  0  0  0  0  0  0  0  0  0  0
   70.9427   76.6372   91.6454 C   0  0  0  0  0  0  0  0  0  0  0  0
   72.0848   76.3462   91.2020 O   0  0  0  0  0  0  0  0  0  0  0  0
   70.3548   75.8306   92.6141 O   0  0  0  0  0  0  0  0  0  0  0  0
   69.5052   76.0425   92.9475 H   0  0  0  0  0  0  0  0  0  0  0  0
 19 20  1  0  0  0
 20 14  1  0  0  0
 14 21  1  0  0  0
 21 22  1  0  0  0
 22 23  2  0  0  0
 23 24  1  0  0  0
 24 25  2  0  0  0
 25 26  1  0  0  0
 26 27  2  0  0  0
 14 15  1  0  0  0
 15 16  2  0  0  0
 15 17  1  0  0  0
 17  1  1  0  0  0
  1  2  1  0  0  0
  2  3  2  0  0  0
  3  6  1  0  0  0
  6  7  2  0  0  0
  7  8  1  0  0  0
  8  9  2  0  0  0
  9 12  1  0  0  0
 12 13  3  0  0  0
  9 10  1  0  0  0
 10 11  2  0  0  0
  3  4  1  0  0  0
  4  5  1  0  0  0
  5 28  1  0  0  0
 28 29  2  0  0  0
 28 30  1  0  0  0
 27 22  1  0  0  0
  5  1  2  0  0  0
 11  6  1  0  0  0
 17 18  1  0  0  0
 30 31  1  0  0  0
M  END
> <score>
0.342203

> <minimizedAffinity>
-7.07487

> <CNNscore>
0.7334630489

> <CNNaffinity>
6.6712446213

> <CNN_VS>
4.8931112289

$$$$
HIPS482


 31 33  0  0  0  0  0  0  0  0999 V2000
   69.2769   78.7344   90.2092 C   0  0  0  0  0  0  0  0  0  0  0  0
   69.3806   80.0556   89.7520 C   0  0  0  0  0  0  0  0  0  0  0  0
   70.6575   80.6021   89.9032 C   0  0  0  0  0  0  0  0  0  0  0  0
   71.6267   79.4358   90.6464 S   0  0  0  0  0  0  0  0  0  0  0  0
   70.4567   78.2357   90.7662 C   0  0  0  0  0  0  0  0  0  0  0  0
   71.1082   81.9543   89.4789 C   0  0  0  0  0  0  0  0  0  0  0  0
   72.3809   82.4281   89.8525 C   0  0  0  0  0  0  0  0  0  0  0  0
   72.8174   83.6933   89.4497 C   0  0  0  0  0  0  0  0  0  0  0  0
   71.9922   84.5051   88.6653 C   0  0  0  0  0  0  0  0  0  0  0  0
   70.7267   84.0469   88.2862 C   0  0  0  0  0  0  0  0  0  0  0  0
   70.2860   82.7832   88.6896 C   0  0  0  0  0  0  0  0  0  0  0  0
   72.4439   85.8063   88.2484 C   0  0  0  0  0  0  0  0  0  0  0  0
   72.8070   86.8526   87.9133 N   0  0  0  0  0  0  0  0  0  0  0  0
   66.4686   79.8679   90.6787 N   0  0  0  0  0  0  0  0  0  0  0  0
   66.7719   78.6318   89.9956 C   0  0  0  0  0  0  0  0  0  0  0  0
   65.8856   78.0675   89.2993 O   0  0  0  0  0  0  0  0  0  0  0  0
   68.0520   77.9991   90.1268 N   0  0  0  0  0  0  0  0  0  0  0  0
   68.0898   77.0160   90.1617 H   0  0  0  0  0  0  0  0  0  0  0  0
   64.1600   80.7013   90.8756 C   0  0  0  0  0  0  0  0  0  0  0  0
   65.4661   80.7747   90.0942 C   0  0  0  0  0  0  0  0  0  0  0  0
   66.8094   79.9944   92.1060 C   0  0  0  0  0  0  0  0  0  0  0  0
   67.3441   81.3666   92.4383 C   0  0  0  0  0  0  0  0  0  0  0  0
   67.4291   81.7935   93.7747 C   0  0  0  0  0  0  0  0  0  0  0  0
   67.9206   83.0670   94.0782 C   0  0  0  0  0  0  0  0  0  0  0  0
   68.3321   83.9220   93.0529 C   0  0  0  0  0  0  0  0  0  0  0  0
   68.2526   83.5047   91.7222 C   0  0  0  0  0  0  0  0  0  0  0  0
   67.7607   82.2330   91.4160 C   0  0  0  0  0  0  0  0  0  0  0  0
   70.6637   76.9465   91.4421 C   0  0  0  0  0  0  0  0  0  0  0  0
   71.6387   76.7801   92.2215 O   0  0  0  0  0  0  0  0  0  0  0  0
   69.7956   75.8894   91.1908 O   0  0  0  0  0  0  0  0  0  0  0  0
   69.0685   76.0077   90.6118 H   0  0  0  0  0  0  0  0  0  0  0  0
 19 20  1  0  0  0
 20 14  1  0  0  0
 14 21  1  0  0  0
 21 22  1  0  0  0
 22 23  2  0  0  0
 23 24  1  0  0  0
 24 25  2  0  0  0
 25 26  1  0  0  0
 26 27  2  0  0  0
 14 15  1  0  0  0
 15 16  2  0  0  0
 15 17  1  0  0  0
 17  1  1  0  0  0
  1  2  1  0  0  0
  2  3  2  0  0  0
  3  6  1  0  0  0
  6  7  2  0  0  0
  7  8  1  0  0  0
  8  9  2  0  0  0
  9 12  1  0  0  0
 12 13  3  0  0  0
  9 10  1  0  0  0
 10 11  2  0  0  0
  3  4  1  0  0  0
  4  5  1  0  0  0
  5 28  1  0  0  0
 28 29  2  0  0  0
 28 30  1  0  0  0
 27 22  1  0  0  0
  5  1  2  0  0  0
 11  6  1  0  0  0
 17 18  1  0  0  0
 30 31  1  0  0  0
M  END
> <score>
0.342203

> <minimizedAffinity>
-6.46361

> <CNNscore>
0.7320551276

> <CNNaffinity>
6.4846286774

> <CNN_VS>
4.7471055984

$$$$
HIPS482


 31 33  0  0  0  0  0  0  0  0999 V2000
   69.7092   78.1926   90.3331 C   0  0  0  0  0  0  0  0  0  0  0  0
   69.3192   79.4825   89.9465 C   0  0  0  0  0  0  0  0  0  0  0  0
   70.3526   80.4210   90.0038 C   0  0  0  0  0  0  0  0  0  0  0  0
   71.7292   79.6293   90.5785 S   0  0  0  0  0  0  0  0  0  0  0  0
   71.0420   78.1046   90.7416 C   0  0  0  0  0  0  0  0  0  0  0  0
   70.2814   81.8553   89.6177 C   0  0  0  0  0  0  0  0  0  0  0  0
   69.0390   82.4510   89.3253 C   0  0  0  0  0  0  0  0  0  0  0  0
   68.9610   83.8010   88.9717 C   0  0  0  0  0  0  0  0  0  0  0  0
   70.1210   84.5791   88.9069 C   0  0  0  0  0  0  0  0  0  0  0  0
   71.3609   84.0010   89.1957 C   0  0  0  0  0  0  0  0  0  0  0  0
   71.4428   82.6505   89.5470 C   0  0  0  0  0  0  0  0  0  0  0  0
   70.0391   85.9698   88.5458 C   0  0  0  0  0  0  0  0  0  0  0  0
   69.9731   87.0879   88.2556 N   0  0  0  0  0  0  0  0  0  0  0  0
   67.3704   77.7942   92.2731 N   0  0  0  0  0  0  0  0  0  0  0  0
   67.5285   77.1293   91.0005 C   0  0  0  0  0  0  0  0  0  0  0  0
   66.5486   76.5306   90.4808 O   0  0  0  0  0  0  0  0  0  0  0  0
   68.7945   77.0921   90.3280 N   0  0  0  0  0  0  0  0  0  0  0  0
   69.0452   76.2738   89.8415 H   0  0  0  0  0  0  0  0  0  0  0  0
   66.1958   79.4989   93.6061 C   0  0  0  0  0  0  0  0  0  0  0  0
   66.0491   78.3371   92.6311 C   0  0  0  0  0  0  0  0  0  0  0  0
   68.3572   77.5397   93.3365 C   0  0  0  0  0  0  0  0  0  0  0  0
   68.0808   76.2460   94.0639 C   0  0  0  0  0  0  0  0  0  0  0  0
   69.1415   75.4475   94.5251 C   0  0  0  0  0  0  0  0  0  0  0  0
   68.8815   74.2476   95.1944 C   0  0  0  0  0  0  0  0  0  0  0  0
   67.5638   73.8368   95.4102 C   0  0  0  0  0  0  0  0  0  0  0  0
   66.5039   74.6255   94.9566 C   0  0  0  0  0  0  0  0  0  0  0  0
   66.7609   75.8245   94.2864 C   0  0  0  0  0  0  0  0  0  0  0  0
   71.7371   76.9438   91.3169 C   0  0  0  0  0  0  0  0  0  0  0  0
   72.9951   76.9037   91.3554 O   0  0  0  0  0  0  0  0  0  0  0  0
   70.9996   75.8637   91.7901 O   0  0  0  0  0  0  0  0  0  0  0  0
   70.0633   75.8882   91.7638 H   0  0  0  0  0  0  0  0  0  0  0  0
 19 20  1  0  0  0
 20 14  1  0  0  0
 14 21  1  0  0  0
 21 22  1  0  0  0
 22 23  2  0  0  0
 23 24  1  0  0  0
 24 25  2  0  0  0
 25 26  1  0  0  0
 26 27  2  0  0  0
 14 15  1  0  0  0
 15 16  2  0  0  0
 15 17  1  0  0  0
 17  1  1  0  0  0
  1  2  1  0  0  0
  2  3  2  0  0  0
  3  6  1  0  0  0
  6  7  2  0  0  0
  7  8  1  0  0  0
  8  9  2  0  0  0
  9 12  1  0  0  0
 12 13  3  0  0  0
  9 10  1  0  0  0
 10 11  2  0  0  0
  3  4  1  0  0  0
  4  5  1  0  0  0
  5 28  1  0  0  0
 28 29  2  0  0  0
 28 30  1  0  0  0
 27 22  1  0  0  0
  5  1  2  0  0  0
 11  6  1  0  0  0
 17 18  1  0  0  0
 30 31  1  0  0  0
M  END
> <score>
0.342203

> <minimizedAffinity>
-6.65513

> <CNNscore>
0.7020093799

> <CNNaffinity>
6.2866964340

> <CNN_VS>
4.4133200645

$$$$
HIPS495


 29 30  0  0  0  0  0  0  0  0999 V2000
   69.2382   78.2274   90.7365 C   0  0  0  0  0  0  0  0  0  0  0  0
   68.8516   79.7479   90.1447 S   0  0  0  0  0  0  0  0  0  0  0  0
   70.4361   80.3220   90.0539 C   0  0  0  0  0  0  0  0  0  0  0  0
   71.2901   79.3024   90.4849 C   0  0  0  0  0  0  0  0  0  0  0  0
   70.6272   78.1192   90.8555 C   0  0  0  0  0  0  0  0  0  0  0  0
   70.8326   81.6757   89.5864 C   0  0  0  0  0  0  0  0  0  0  0  0
   72.1097   82.1834   89.8876 C   0  0  0  0  0  0  0  0  0  0  0  0
   72.4910   83.4548   89.4517 C   0  0  0  0  0  0  0  0  0  0  0  0
   71.6060   84.2426   88.7112 C   0  0  0  0  0  0  0  0  0  0  0  0
   72.1234   85.8375   88.1811 Cl  0  0  0  0  0  0  0  0  0  0  0  0
   70.3267   83.7523   88.4065 C   0  0  0  0  0  0  0  0  0  0  0  0
   69.1797   84.7149   87.4839 Cl  0  0  0  0  0  0  0  0  0  0  0  0
   69.9451   82.4778   88.8430 C   0  0  0  0  0  0  0  0  0  0  0  0
   66.5683   76.2214   92.5679 N   0  0  0  0  0  0  0  0  0  0  0  0
   67.5130   77.2633   92.2887 C   0  0  0  0  0  0  0  0  0  0  0  0
   67.6746   78.2084   93.1090 O   0  0  0  0  0  0  0  0  0  0  0  0
   68.2616   77.2334   91.0662 N   0  0  0  0  0  0  0  0  0  0  0  0
   66.4601   75.4937   91.9137 H   0  0  0  0  0  0  0  0  0  0  0  0
   68.0979   76.5010   90.4289 H   0  0  0  0  0  0  0  0  0  0  0  0
   65.7597   76.1967   93.7852 C   0  0  0  0  0  0  0  0  0  0  0  0
   65.8069   74.8068   94.4310 C   0  0  0  0  0  0  0  0  0  0  0  0
   66.6833   74.7621   95.6941 C   0  0  0  0  0  0  0  0  0  0  0  0
   67.9088   73.8330   95.5648 C   0  0  0  0  0  0  0  0  0  0  0  0
   69.3768   75.8325   95.0877 C   0  0  0  0  0  0  0  0  0  0  0  0
   68.9908   74.4231   94.6484 C   0  0  0  0  0  0  0  0  0  0  0  0
   71.3612   76.8958   91.2359 C   0  0  0  0  0  0  0  0  0  0  0  0
   72.6159   76.8406   91.1349 O   0  0  0  0  0  0  0  0  0  0  0  0
   70.6674   75.8021   91.7454 O   0  0  0  0  0  0  0  0  0  0  0  0
   69.7342   75.8345   91.8241 H   0  0  0  0  0  0  0  0  0  0  0  0
 24 25  1  0  0  0
 25 23  1  0  0  0
 23 22  1  0  0  0
 22 21  1  0  0  0
 21 20  1  0  0  0
 20 14  1  0  0  0
 14 15  1  0  0  0
 15 16  2  0  0  0
 15 17  1  0  0  0
 17  1  1  0  0  0
  1  2  1  0  0  0
  2  3  1  0  0  0
  3  6  1  0  0  0
  6  7  2  0  0  0
  7  8  1  0  0  0
  8  9  2  0  0  0
  9 10  1  0  0  0
  9 11  1  0  0  0
 11 12  1  0  0  0
 11 13  2  0  0  0
  3  4  2  0  0  0
  4  5  1  0  0  0
  5 26  1  0  0  0
 26 27  2  0  0  0
 26 28  1  0  0  0
  5  1  2  0  0  0
 13  6  1  0  0  0
 14 18  1  0  0  0
 17 19  1  0  0  0
 28 29  1  0  0  0
M  END
> <score>
0.554324

> <minimizedAffinity>
-7.24112

> <CNNscore>
0.6606259346

> <CNNaffinity>
6.0769710541

> <CNN_VS>
4.0146045685

$$$$
HIPS495


 29 30  0  0  0  0  0  0  0  0999 V2000
   67.3159   74.7045   89.2870 C   0  0  0  0  0  0  0  0  0  0  0  0
   66.7032   76.1679   88.7438 S   0  0  0  0  0  0  0  0  0  0  0  0
   67.5439   77.1404   89.8372 C   0  0  0  0  0  0  0  0  0  0  0  0
   68.3299   76.3080   90.6397 C   0  0  0  0  0  0  0  0  0  0  0  0
   68.2190   74.9416   90.3278 C   0  0  0  0  0  0  0  0  0  0  0  0
   67.4558   78.6220   89.9112 C   0  0  0  0  0  0  0  0  0  0  0  0
   67.4333   79.2689   91.1605 C   0  0  0  0  0  0  0  0  0  0  0  0
   67.3512   80.6613   91.2394 C   0  0  0  0  0  0  0  0  0  0  0  0
   67.2873   81.4323   90.0758 C   0  0  0  0  0  0  0  0  0  0  0  0
   67.1844   83.1820   90.2172 Cl  0  0  0  0  0  0  0  0  0  0  0  0
   67.3040   80.8017   88.8220 C   0  0  0  0  0  0  0  0  0  0  0  0
   67.2172   81.7345   87.3335 Cl  0  0  0  0  0  0  0  0  0  0  0  0
   67.3871   79.4062   88.7434 C   0  0  0  0  0  0  0  0  0  0  0  0
   66.3439   71.9280   86.8678 N   0  0  0  0  0  0  0  0  0  0  0  0
   66.7536   73.2183   87.3401 C   0  0  0  0  0  0  0  0  0  0  0  0
   66.9675   74.1541   86.5211 O   0  0  0  0  0  0  0  0  0  0  0  0
   66.9330   73.4352   88.7460 N   0  0  0  0  0  0  0  0  0  0  0  0
   66.1816   71.2135   87.5254 H   0  0  0  0  0  0  0  0  0  0  0  0
   66.7874   72.6822   89.3634 H   0  0  0  0  0  0  0  0  0  0  0  0
   66.1576   71.6312   85.4488 C   0  0  0  0  0  0  0  0  0  0  0  0
   67.5116   71.3941   84.7694 C   0  0  0  0  0  0  0  0  0  0  0  0
   67.7796   69.9097   84.4688 C   0  0  0  0  0  0  0  0  0  0  0  0
   67.5928   68.9868   85.6915 C   0  0  0  0  0  0  0  0  0  0  0  0
   69.3370   69.1859   87.5078 C   0  0  0  0  0  0  0  0  0  0  0  0
   68.9306   68.4581   86.2297 C   0  0  0  0  0  0  0  0  0  0  0  0
   69.0492   73.9164   90.9911 C   0  0  0  0  0  0  0  0  0  0  0  0
   68.7768   72.6920   90.8722 O   0  0  0  0  0  0  0  0  0  0  0  0
   70.1665   74.3001   91.7273 O   0  0  0  0  0  0  0  0  0  0  0  0
   70.3765   75.2084   91.8209 H   0  0  0  0  0  0  0  0  0  0  0  0
 24 25  1  0  0  0
 25 23  1  0  0  0
 23 22  1  0  0  0
 22 21  1  0  0  0
 21 20  1  0  0  0
 20 14  1  0  0  0
 14 15  1  0  0  0
 15 16  2  0  0  0
 15 17  1  0  0  0
 17  1  1  0  0  0
  1  2  1  0  0  0
  2  3  1  0  0  0
  3  6  1  0  0  0
  6  7  2  0  0  0
  7  8  1  0  0  0
  8  9  2  0  0  0
  9 10  1  0  0  0
  9 11  1  0  0  0
 11 12  1  0  0  0
 11 13  2  0  0  0
  3  4  2  0  0  0
  4  5  1  0  0  0
  5 26  1  0  0  0
 26 27  2  0  0  0
 26 28  1  0  0  0
  5  1  2  0  0  0
 13  6  1  0  0  0
 14 18  1  0  0  0
 17 19  1  0  0  0
 28 29  1  0  0  0
M  END
> <score>
0.554324

> <minimizedAffinity>
-6.68160

> <CNNscore>
0.5573691130

> <CNNaffinity>
6.2361240387

> <CNN_VS>
3.4758229256

$$$$
HIPS495


 29 30  0  0  0  0  0  0  0  0999 V2000
   69.3477   78.2067   90.6282 C   0  0  0  0  0  0  0  0  0  0  0  0
   68.9234   79.6888   89.9686 S   0  0  0  0  0  0  0  0  0  0  0  0
   70.4657   80.3710   90.0333 C   0  0  0  0  0  0  0  0  0  0  0  0
   71.3366   79.4193   90.5721 C   0  0  0  0  0  0  0  0  0  0  0  0
   70.7203   78.1975   90.8948 C   0  0  0  0  0  0  0  0  0  0  0  0
   70.8164   81.7431   89.5828 C   0  0  0  0  0  0  0  0  0  0  0  0
   72.0998   82.2637   89.8305 C   0  0  0  0  0  0  0  0  0  0  0  0
   72.4382   83.5523   89.4102 C   0  0  0  0  0  0  0  0  0  0  0  0
   71.5035   84.3447   88.7388 C   0  0  0  0  0  0  0  0  0  0  0  0
   71.9680   85.9614   88.2261 Cl  0  0  0  0  0  0  0  0  0  0  0  0
   70.2174   83.8415   88.4882 C   0  0  0  0  0  0  0  0  0  0  0  0
   69.0089   84.8090   87.6535 Cl  0  0  0  0  0  0  0  0  0  0  0  0
   69.8789   82.5497   88.9090 C   0  0  0  0  0  0  0  0  0  0  0  0
   66.9551   75.7983   92.3550 N   0  0  0  0  0  0  0  0  0  0  0  0
   67.8689   76.8884   92.1744 C   0  0  0  0  0  0  0  0  0  0  0  0
   68.1833   77.6203   93.1530 O   0  0  0  0  0  0  0  0  0  0  0  0
   68.4117   77.1512   90.8735 N   0  0  0  0  0  0  0  0  0  0  0  0
   66.7255   75.2401   91.5772 H   0  0  0  0  0  0  0  0  0  0  0  0
   68.1299   76.5839   90.1198 H   0  0  0  0  0  0  0  0  0  0  0  0
   66.3510   75.4828   93.6480 C   0  0  0  0  0  0  0  0  0  0  0  0
   66.3872   73.9709   93.9010 C   0  0  0  0  0  0  0  0  0  0  0  0
   67.6741   73.3071   93.3825 C   0  0  0  0  0  0  0  0  0  0  0  0
   67.4423   72.3531   92.1917 C   0  0  0  0  0  0  0  0  0  0  0  0
   67.7652   73.2957   89.8705 C   0  0  0  0  0  0  0  0  0  0  0  0
   68.4385   72.5983   91.0488 C   0  0  0  0  0  0  0  0  0  0  0  0
   71.4915   77.0334   91.3748 C   0  0  0  0  0  0  0  0  0  0  0  0
   72.6567   76.8135   90.9488 O   0  0  0  0  0  0  0  0  0  0  0  0
   70.9431   76.1874   92.3344 O   0  0  0  0  0  0  0  0  0  0  0  0
   70.0772   76.3435   92.6568 H   0  0  0  0  0  0  0  0  0  0  0  0
 24 25  1  0  0  0
 25 23  1  0  0  0
 23 22  1  0  0  0
 22 21  1  0  0  0
 21 20  1  0  0  0
 20 14  1  0  0  0
 14 15  1  0  0  0
 15 16  2  0  0  0
 15 17  1  0  0  0
 17  1  1  0  0  0
  1  2  1  0  0  0
  2  3  1  0  0  0
  3  6  1  0  0  0
  6  7  2  0  0  0
  7  8  1  0  0  0
  8  9  2  0  0  0
  9 10  1  0  0  0
  9 11  1  0  0  0
 11 12  1  0  0  0
 11 13  2  0  0  0
  3  4  2  0  0  0
  4  5  1  0  0  0
  5 26  1  0  0  0
 26 27  2  0  0  0
 26 28  1  0  0  0
  5  1  2  0  0  0
 13  6  1  0  0  0
 14 18  1  0  0  0
 17 19  1  0  0  0
 28 29  1  0  0  0
M  END
> <score>
0.554324

> <minimizedAffinity>
-7.28222

> <CNNscore>
0.5466753840

> <CNNaffinity>
6.0352144241

> <CNN_VS>
3.2993030548

$$$$
HIPS5021


 23 25  0  0  0  0  0  0  0  0999 V2000
   69.3408   80.3273   89.5927 O   0  0  0  0  0  0  0  0  0  0  0  0
   71.3249   77.5150   90.9642 C   0  0  0  0  0  0  0  0  0  0  0  0
   70.9714   78.7245   90.3439 C   0  0  0  0  0  0  0  0  0  0  0  0
   69.6294   79.0975   90.2085 C   0  0  0  0  0  0  0  0  0  0  0  0
   68.6257   78.2381   90.6923 C   0  0  0  0  0  0  0  0  0  0  0  0
   68.9679   77.0260   91.2950 C   0  0  0  0  0  0  0  0  0  0  0  0
   70.3122   76.6546   91.4287 C   0  0  0  0  0  0  0  0  0  0  0  0
   70.6422   75.4350   92.0197 O   0  0  0  0  0  0  0  0  0  0  0  0
   69.9651   74.8652   92.3276 H   0  0  0  0  0  0  0  0  0  0  0  0
   73.2049   77.2066   92.3973 O   0  0  0  0  0  0  0  0  0  0  0  0
   72.7770   77.1258   91.0655 C   0  0  0  0  0  0  0  0  0  0  0  0
   74.1400   76.9545   92.4523 H   0  0  0  0  0  0  0  0  0  0  0  0
   69.4437   81.6065   90.2225 C   0  0  0  0  0  0  0  0  0  0  0  0
   70.6206   82.4178   89.7041 C   0  0  0  0  0  0  0  0  0  0  0  0
   71.8957   82.2277   90.2738 C   0  0  0  0  0  0  0  0  0  0  0  0
   72.9934   82.9695   89.8421 C   0  0  0  0  0  0  0  0  0  0  0  0
   72.8539   83.9003   88.8174 C   0  0  0  0  0  0  0  0  0  0  0  0
   71.6139   84.0807   88.1922 C   0  0  0  0  0  0  0  0  0  0  0  0
   71.4931   84.9990   87.1371 C   0  0  0  0  0  0  0  0  0  0  0  0
   70.2716   85.1665   86.4860 C   0  0  0  0  0  0  0  0  0  0  0  0
   69.1636   84.4154   86.8743 C   0  0  0  0  0  0  0  0  0  0  0  0
   69.2639   83.4998   87.9248 C   0  0  0  0  0  0  0  0  0  0  0  0
   70.4845   83.3261   88.6159 C   0  0  0  0  0  0  0  0  0  0  0  0
 10 11  1  0  0  0
 11  2  1  0  0  0
  2  3  2  0  0  0
  3  4  1  0  0  0
  4  1  1  0  0  0
  1 13  1  0  0  0
 13 14  1  0  0  0
 14 15  2  0  0  0
 15 16  1  0  0  0
 16 17  2  0  0  0
 17 18  1  0  0  0
 18 19  2  0  0  0
 19 20  1  0  0  0
 20 21  2  0  0  0
 21 22  1  0  0  0
 22 23  2  0  0  0
  4  5  2  0  0  0
  5  6  1  0  0  0
  6  7  2  0  0  0
  7  8  1  0  0  0
  7  2  1  0  0  0
 23 14  1  0  0  0
 23 18  1  0  0  0
 10 12  1  0  0  0
  8  9  1  0  0  0
M  END
> <score>
1.153769

> <minimizedAffinity>
-7.83876

> <CNNscore>
0.9054943919

> <CNNaffinity>
5.5596895218

> <CNN_VS>
5.0342679024

$$$$
HIPS5021


 23 25  0  0  0  0  0  0  0  0999 V2000
   69.4543   80.2253   89.5963 O   0  0  0  0  0  0  0  0  0  0  0  0
   69.1041   77.0385   91.4531 C   0  0  0  0  0  0  0  0  0  0  0  0
   68.8058   78.2513   90.8105 C   0  0  0  0  0  0  0  0  0  0  0  0
   69.8184   79.0298   90.2389 C   0  0  0  0  0  0  0  0  0  0  0  0
   71.1527   78.5909   90.3235 C   0  0  0  0  0  0  0  0  0  0  0  0
   71.4596   77.3948   90.9753 C   0  0  0  0  0  0  0  0  0  0  0  0
   70.4440   76.6175   91.5474 C   0  0  0  0  0  0  0  0  0  0  0  0
   70.7635   75.4316   92.2086 O   0  0  0  0  0  0  0  0  0  0  0  0
   71.6566   75.1549   92.2692 H   0  0  0  0  0  0  0  0  0  0  0  0
   68.2235   76.1091   93.4641 O   0  0  0  0  0  0  0  0  0  0  0  0
   67.9957   76.2389   92.0877 C   0  0  0  0  0  0  0  0  0  0  0  0
   67.5055   75.5935   93.8635 H   0  0  0  0  0  0  0  0  0  0  0  0
   69.4837   81.5229   90.1955 C   0  0  0  0  0  0  0  0  0  0  0  0
   70.6528   82.3635   89.7073 C   0  0  0  0  0  0  0  0  0  0  0  0
   71.9230   82.1871   90.2924 C   0  0  0  0  0  0  0  0  0  0  0  0
   73.0130   82.9554   89.8885 C   0  0  0  0  0  0  0  0  0  0  0  0
   72.8712   83.9001   88.8768 C   0  0  0  0  0  0  0  0  0  0  0  0
   71.6371   84.0683   88.2367 C   0  0  0  0  0  0  0  0  0  0  0  0
   71.5147   85.0012   87.1947 C   0  0  0  0  0  0  0  0  0  0  0  0
   70.2997   85.1572   86.5286 C   0  0  0  0  0  0  0  0  0  0  0  0
   69.2002   84.3801   86.8887 C   0  0  0  0  0  0  0  0  0  0  0  0
   69.3022   83.4497   87.9259 C   0  0  0  0  0  0  0  0  0  0  0  0
   70.5157   83.2867   88.6319 C   0  0  0  0  0  0  0  0  0  0  0  0
 10 11  1  0  0  0
 11  2  1  0  0  0
  2  3  2  0  0  0
  3  4  1  0  0  0
  4  1  1  0  0  0
  1 13  1  0  0  0
 13 14  1  0  0  0
 14 15  2  0  0  0
 15 16  1  0  0  0
 16 17  2  0  0  0
 17 18  1  0  0  0
 18 19  2  0  0  0
 19 20  1  0  0  0
 20 21  2  0  0  0
 21 22  1  0  0  0
 22 23  2  0  0  0
  4  5  2  0  0  0
  5  6  1  0  0  0
  6  7  2  0  0  0
  7  8  1  0  0  0
  7  2  1  0  0  0
 23 14  1  0  0  0
 23 18  1  0  0  0
 10 12  1  0  0  0
  8  9  1  0  0  0
M  END
> <score>
1.153769

> <minimizedAffinity>
-7.78390

> <CNNscore>
0.7863749266

> <CNNaffinity>
5.2882223129

> <CNN_VS>
4.1585254669

$$$$
HIPS5021


 23 25  0  0  0  0  0  0  0  0999 V2000
   68.6271   80.0609   89.3904 O   0  0  0  0  0  0  0  0  0  0  0  0
   68.9993   77.1808   91.6910 C   0  0  0  0  0  0  0  0  0  0  0  0
   68.4477   78.2467   90.9616 C   0  0  0  0  0  0  0  0  0  0  0  0
   69.2410   79.0180   90.1048 C   0  0  0  0  0  0  0  0  0  0  0  0
   70.6118   78.7229   89.9869 C   0  0  0  0  0  0  0  0  0  0  0  0
   71.1716   77.6757   90.7215 C   0  0  0  0  0  0  0  0  0  0  0  0
   70.3753   76.9055   91.5791 C   0  0  0  0  0  0  0  0  0  0  0  0
   70.9476   75.8708   92.3189 O   0  0  0  0  0  0  0  0  0  0  0  0
   71.8639   75.6908   92.2416 H   0  0  0  0  0  0  0  0  0  0  0  0
   66.8142   76.3404   92.1410 O   0  0  0  0  0  0  0  0  0  0  0  0
   68.1262   76.3897   92.6304 C   0  0  0  0  0  0  0  0  0  0  0  0
   66.2602   75.8297   92.7519 H   0  0  0  0  0  0  0  0  0  0  0  0
   68.5227   81.4144   89.8385 C   0  0  0  0  0  0  0  0  0  0  0  0
   69.1497   82.4000   88.8652 C   0  0  0  0  0  0  0  0  0  0  0  0
   68.3571   82.9625   87.8443 C   0  0  0  0  0  0  0  0  0  0  0  0
   68.9015   83.8506   86.9189 C   0  0  0  0  0  0  0  0  0  0  0  0
   70.2408   84.2188   87.0015 C   0  0  0  0  0  0  0  0  0  0  0  0
   71.0472   83.7204   88.0322 C   0  0  0  0  0  0  0  0  0  0  0  0
   72.3884   84.1251   88.1246 C   0  0  0  0  0  0  0  0  0  0  0  0
   73.1940   83.6602   89.1634 C   0  0  0  0  0  0  0  0  0  0  0  0
   72.6687   82.7961   90.1225 C   0  0  0  0  0  0  0  0  0  0  0  0
   71.3375   82.3794   90.0443 C   0  0  0  0  0  0  0  0  0  0  0  0
   70.5051   82.8184   88.9898 C   0  0  0  0  0  0  0  0  0  0  0  0
 10 11  1  0  0  0
 11  2  1  0  0  0
  2  3  2  0  0  0
  3  4  1  0  0  0
  4  1  1  0  0  0
  1 13  1  0  0  0
 13 14  1  0  0  0
 14 15  2  0  0  0
 15 16  1  0  0  0
 16 17  2  0  0  0
 17 18  1  0  0  0
 18 19  2  0  0  0
 19 20  1  0  0  0
 20 21  2  0  0  0
 21 22  1  0  0  0
 22 23  2  0  0  0
  4  5  2  0  0  0
  5  6  1  0  0  0
  6  7  2  0  0  0
  7  8  1  0  0  0
  7  2  1  0  0  0
 23 14  1  0  0  0
 23 18  1  0  0  0
 10 12  1  0  0  0
  8  9  1  0  0  0
M  END
> <score>
1.153769

> <minimizedAffinity>
-7.47341

> <CNNscore>
0.7203480601

> <CNNaffinity>
5.2513170242

> <CNN_VS>
3.7827761173

$$$$
HIPS5022


 25 27  0  0  0  0  0  0  0  0999 V2000
   69.0938   80.0974   89.4568 N   0  0  0  0  0  0  0  0  0  0  0  0
   68.8991   79.9800   88.4989 H   0  0  0  0  0  0  0  0  0  0  0  0
   71.1445   77.4955   91.2728 C   0  0  0  0  0  0  0  0  0  0  0  0
   70.8040   78.6338   90.5195 C   0  0  0  0  0  0  0  0  0  0  0  0
   69.4624   78.9299   90.2175 C   0  0  0  0  0  0  0  0  0  0  0  0
   68.4595   78.0599   90.6626 C   0  0  0  0  0  0  0  0  0  0  0  0
   68.7824   76.9354   91.4223 C   0  0  0  0  0  0  0  0  0  0  0  0
   70.1116   76.6557   91.7545 C   0  0  0  0  0  0  0  0  0  0  0  0
   70.3582   75.5628   92.5881 O   0  0  0  0  0  0  0  0  0  0  0  0
   69.6467   75.0307   92.8859 H   0  0  0  0  0  0  0  0  0  0  0  0
   73.2829   76.7411   90.5645 O   0  0  0  0  0  0  0  0  0  0  0  0
   72.5763   77.2014   91.5020 C   0  0  0  0  0  0  0  0  0  0  0  0
   73.1417   77.3706   92.7625 O   0  0  0  0  0  0  0  0  0  0  0  0
   72.6250   77.7119   93.4657 H   0  0  0  0  0  0  0  0  0  0  0  0
   68.9902   81.4474   90.0164 C   0  0  0  0  0  0  0  0  0  0  0  0
   70.1755   82.2974   89.5885 C   0  0  0  0  0  0  0  0  0  0  0  0
   71.3823   82.0968   90.2852 C   0  0  0  0  0  0  0  0  0  0  0  0
   72.5368   82.7963   89.9456 C   0  0  0  0  0  0  0  0  0  0  0  0
   72.5160   83.7218   88.9086 C   0  0  0  0  0  0  0  0  0  0  0  0
   71.3290   83.9734   88.2092 C   0  0  0  0  0  0  0  0  0  0  0  0
   71.3264   84.9229   87.1750 C   0  0  0  0  0  0  0  0  0  0  0  0
   70.1532   85.2013   86.4775 C   0  0  0  0  0  0  0  0  0  0  0  0
   68.9718   84.5435   86.8094 C   0  0  0  0  0  0  0  0  0  0  0  0
   68.9534   83.5952   87.8349 C   0  0  0  0  0  0  0  0  0  0  0  0
   70.1332   83.2760   88.5488 C   0  0  0  0  0  0  0  0  0  0  0  0
 11 12  2  0  0  0
 12 13  1  0  0  0
 12  3  1  0  0  0
  3  4  2  0  0  0
  4  5  1  0  0  0
  5  1  1  0  0  0
  1 15  1  0  0  0
 15 16  1  0  0  0
 16 17  2  0  0  0
 17 18  1  0  0  0
 18 19  2  0  0  0
 19 20  1  0  0  0
 20 21  2  0  0  0
 21 22  1  0  0  0
 22 23  2  0  0  0
 23 24  1  0  0  0
 24 25  2  0  0  0
  5  6  2  0  0  0
  6  7  1  0  0  0
  7  8  2  0  0  0
  8  9  1  0  0  0
  8  3  1  0  0  0
 25 16  1  0  0  0
 25 20  1  0  0  0
 13 14  1  0  0  0
  1  2  1  0  0  0
  9 10  1  0  0  0
M  END
> <score>
0.427273

> <minimizedAffinity>
-7.56129

> <CNNscore>
0.8343752027

> <CNNaffinity>
5.4352874756

> <CNN_VS>
4.5350689888

$$$$
HIPS5022


 25 27  0  0  0  0  0  0  0  0999 V2000
   68.3255   79.9830   89.5206 N   0  0  0  0  0  0  0  0  0  0  0  0
   67.8431   79.8047   88.6812 H   0  0  0  0  0  0  0  0  0  0  0  0
   70.8897   77.5569   90.8669 C   0  0  0  0  0  0  0  0  0  0  0  0
   70.3178   78.6475   90.1867 C   0  0  0  0  0  0  0  0  0  0  0  0
   68.9281   78.8649   90.2021 C   0  0  0  0  0  0  0  0  0  0  0  0
   68.1087   77.9634   90.8926 C   0  0  0  0  0  0  0  0  0  0  0  0
   68.6642   76.8860   91.5828 C   0  0  0  0  0  0  0  0  0  0  0  0
   70.0480   76.6856   91.5993 C   0  0  0  0  0  0  0  0  0  0  0  0
   70.5449   75.6386   92.3784 O   0  0  0  0  0  0  0  0  0  0  0  0
   69.9545   75.0834   92.8487 H   0  0  0  0  0  0  0  0  0  0  0  0
   73.0064   76.9614   91.7660 O   0  0  0  0  0  0  0  0  0  0  0  0
   72.3498   77.3433   90.7595 C   0  0  0  0  0  0  0  0  0  0  0  0
   73.0208   77.6179   89.5714 O   0  0  0  0  0  0  0  0  0  0  0  0
   72.5419   77.9023   88.8178 H   0  0  0  0  0  0  0  0  0  0  0  0
   68.3844   81.3675   89.9960 C   0  0  0  0  0  0  0  0  0  0  0  0
   69.0839   82.2542   88.9787 C   0  0  0  0  0  0  0  0  0  0  0  0
   68.3253   82.6583   87.8637 C   0  0  0  0  0  0  0  0  0  0  0  0
   68.8596   83.5023   86.8944 C   0  0  0  0  0  0  0  0  0  0  0  0
   70.1682   83.9577   87.0060 C   0  0  0  0  0  0  0  0  0  0  0  0
   70.9672   83.5561   88.0839 C   0  0  0  0  0  0  0  0  0  0  0  0
   72.2909   84.0160   88.1698 C   0  0  0  0  0  0  0  0  0  0  0  0
   73.1086   83.6157   89.2240 C   0  0  0  0  0  0  0  0  0  0  0  0
   72.6183   82.7478   90.1961 C   0  0  0  0  0  0  0  0  0  0  0  0
   71.3040   82.2791   90.1290 C   0  0  0  0  0  0  0  0  0  0  0  0
   70.4425   82.6833   89.0812 C   0  0  0  0  0  0  0  0  0  0  0  0
 11 12  2  0  0  0
 12 13  1  0  0  0
 12  3  1  0  0  0
  3  4  2  0  0  0
  4  5  1  0  0  0
  5  1  1  0  0  0
  1 15  1  0  0  0
 15 16  1  0  0  0
 16 17  2  0  0  0
 17 18  1  0  0  0
 18 19  2  0  0  0
 19 20  1  0  0  0
 20 21  2  0  0  0
 21 22  1  0  0  0
 22 23  2  0  0  0
 23 24  1  0  0  0
 24 25  2  0  0  0
  5  6  2  0  0  0
  6  7  1  0  0  0
  7  8  2  0  0  0
  8  9  1  0  0  0
  8  3  1  0  0  0
 25 16  1  0  0  0
 25 20  1  0  0  0
 13 14  1  0  0  0
  1  2  1  0  0  0
  9 10  1  0  0  0
M  END
> <score>
0.427273

> <minimizedAffinity>
-7.92236

> <CNNscore>
0.7228615284

> <CNNaffinity>
5.3459291458

> <CNN_VS>
3.8643665314

$$$$
HIPS5022


 25 27  0  0  0  0  0  0  0  0999 V2000
   69.5128   80.1919   89.5683 N   0  0  0  0  0  0  0  0  0  0  0  0
   69.3447   80.1546   88.5990 H   0  0  0  0  0  0  0  0  0  0  0  0
   68.9988   76.9433   91.4272 C   0  0  0  0  0  0  0  0  0  0  0  0
   68.7292   78.1568   90.7686 C   0  0  0  0  0  0  0  0  0  0  0  0
   69.7705   78.9515   90.2558 C   0  0  0  0  0  0  0  0  0  0  0  0
   71.0941   78.5275   90.4269 C   0  0  0  0  0  0  0  0  0  0  0  0
   71.3744   77.3195   91.0656 C   0  0  0  0  0  0  0  0  0  0  0  0
   70.3411   76.5092   91.5462 C   0  0  0  0  0  0  0  0  0  0  0  0
   70.6858   75.2740   92.0990 O   0  0  0  0  0  0  0  0  0  0  0  0
   71.5865   75.0230   92.1602 H   0  0  0  0  0  0  0  0  0  0  0  0
   66.9619   76.7885   92.6399 O   0  0  0  0  0  0  0  0  0  0  0  0
   67.8667   76.1841   92.0025 C   0  0  0  0  0  0  0  0  0  0  0  0
   67.8187   74.7969   91.9002 O   0  0  0  0  0  0  0  0  0  0  0  0
   68.4863   74.3385   91.4288 H   0  0  0  0  0  0  0  0  0  0  0  0
   69.4848   81.5046   90.2183 C   0  0  0  0  0  0  0  0  0  0  0  0
   70.6145   82.3817   89.7038 C   0  0  0  0  0  0  0  0  0  0  0  0
   71.8747   82.2090   90.3069 C   0  0  0  0  0  0  0  0  0  0  0  0
   72.9840   82.9349   89.8824 C   0  0  0  0  0  0  0  0  0  0  0  0
   72.8636   83.8598   88.8517 C   0  0  0  0  0  0  0  0  0  0  0  0
   71.6217   84.0840   88.2443 C   0  0  0  0  0  0  0  0  0  0  0  0
   71.5191   85.0333   87.2150 C   0  0  0  0  0  0  0  0  0  0  0  0
   70.2905   85.2846   86.6086 C   0  0  0  0  0  0  0  0  0  0  0  0
   69.1530   84.5998   87.0276 C   0  0  0  0  0  0  0  0  0  0  0  0
   69.2340   83.6511   88.0498 C   0  0  0  0  0  0  0  0  0  0  0  0
   70.4713   83.3592   88.6720 C   0  0  0  0  0  0  0  0  0  0  0  0
 11 12  2  0  0  0
 12 13  1  0  0  0
 12  3  1  0  0  0
  3  4  2  0  0  0
  4  5  1  0  0  0
  5  1  1  0  0  0
  1 15  1  0  0  0
 15 16  1  0  0  0
 16 17  2  0  0  0
 17 18  1  0  0  0
 18 19  2  0  0  0
 19 20  1  0  0  0
 20 21  2  0  0  0
 21 22  1  0  0  0
 22 23  2  0  0  0
 23 24  1  0  0  0
 24 25  2  0  0  0
  5  6  2  0  0  0
  6  7  1  0  0  0
  7  8  2  0  0  0
  8  9  1  0  0  0
  8  3  1  0  0  0
 25 16  1  0  0  0
 25 20  1  0  0  0
 13 14  1  0  0  0
  1  2  1  0  0  0
  9 10  1  0  0  0
M  END
> <score>
0.427273

> <minimizedAffinity>
-7.88254

> <CNNscore>
0.6344948411

> <CNNaffinity>
5.1200885773

> <CNN_VS>
3.2486698627

$$$$
HIPS5023


 22 24  0  0  0  0  0  0  0  0999 V2000
   66.8772   76.5320   92.5207 O   0  0  0  0  0  0  0  0  0  0  0  0
   68.2619   74.0481   94.9004 C   0  0  0  0  0  0  0  0  0  0  0  0
   67.2224   73.9632   95.8416 C   0  0  0  0  0  0  0  0  0  0  0  0
   66.0658   74.7305   95.6873 C   0  0  0  0  0  0  0  0  0  0  0  0
   65.9318   75.5902   94.5955 C   0  0  0  0  0  0  0  0  0  0  0  0
   66.9621   75.6885   93.6414 C   0  0  0  0  0  0  0  0  0  0  0  0
   68.1195   74.9165   93.8023 C   0  0  0  0  0  0  0  0  0  0  0  0
   69.6412   72.5130   96.0881 O   0  0  0  0  0  0  0  0  0  0  0  0
   69.4861   73.2336   95.0651 C   0  0  0  0  0  0  0  0  0  0  0  0
   70.4802   73.2553   94.0901 O   0  0  0  0  0  0  0  0  0  0  0  0
   70.3753   73.7872   93.3259 H   0  0  0  0  0  0  0  0  0  0  0  0
   67.6054   77.7505   92.3513 C   0  0  0  0  0  0  0  0  0  0  0  0
   66.9179   78.7114   91.3942 C   0  0  0  0  0  0  0  0  0  0  0  0
   66.0417   79.6891   91.9069 C   0  0  0  0  0  0  0  0  0  0  0  0
   65.4116   80.6024   91.0639 C   0  0  0  0  0  0  0  0  0  0  0  0
   65.6195   80.5495   89.6892 C   0  0  0  0  0  0  0  0  0  0  0  0
   66.4431   79.5603   89.1377 C   0  0  0  0  0  0  0  0  0  0  0  0
   66.6186   79.4965   87.7463 C   0  0  0  0  0  0  0  0  0  0  0  0
   67.4118   78.4981   87.1819 C   0  0  0  0  0  0  0  0  0  0  0  0
   68.0289   77.5510   87.9971 C   0  0  0  0  0  0  0  0  0  0  0  0
   67.8689   77.6013   89.3841 C   0  0  0  0  0  0  0  0  0  0  0  0
   67.0880   78.6154   89.9838 C   0  0  0  0  0  0  0  0  0  0  0  0
  8  9  2  0  0  0
  9 10  1  0  0  0
  9  2  1  0  0  0
  2  3  2  0  0  0
  3  4  1  0  0  0
  4  5  2  0  0  0
  5  6  1  0  0  0
  6  1  1  0  0  0
  1 12  1  0  0  0
 12 13  1  0  0  0
 13 14  2  0  0  0
 14 15  1  0  0  0
 15 16  2  0  0  0
 16 17  1  0  0  0
 17 18  2  0  0  0
 18 19  1  0  0  0
 19 20  2  0  0  0
 20 21  1  0  0  0
 21 22  2  0  0  0
  6  7  2  0  0  0
  7  2  1  0  0  0
 22 13  1  0  0  0
 22 17  1  0  0  0
 10 11  1  0  0  0
M  END
> <score>
0.410179

> <minimizedAffinity>
-7.07449

> <CNNscore>
0.8113145828

> <CNNaffinity>
5.3747777939

> <CNN_VS>
4.3606357574

$$$$
HIPS5023


 22 24  0  0  0  0  0  0  0  0999 V2000
   70.6304   79.7781   89.9145 O   0  0  0  0  0  0  0  0  0  0  0  0
   69.6444   76.4041   91.0953 C   0  0  0  0  0  0  0  0  0  0  0  0
   68.5346   76.1416   90.2749 C   0  0  0  0  0  0  0  0  0  0  0  0
   68.1137   77.0836   89.3337 C   0  0  0  0  0  0  0  0  0  0  0  0
   68.7923   78.2963   89.1995 C   0  0  0  0  0  0  0  0  0  0  0  0
   69.9070   78.5773   90.0119 C   0  0  0  0  0  0  0  0  0  0  0  0
   70.3236   77.6284   90.9540 C   0  0  0  0  0  0  0  0  0  0  0  0
   70.3890   75.7598   93.2633 O   0  0  0  0  0  0  0  0  0  0  0  0
   70.0893   75.4044   92.0913 C   0  0  0  0  0  0  0  0  0  0  0  0
   70.1813   74.0593   91.7428 O   0  0  0  0  0  0  0  0  0  0  0  0
   69.9610   73.7841   90.8746 H   0  0  0  0  0  0  0  0  0  0  0  0
   70.0927   81.0830   90.1424 C   0  0  0  0  0  0  0  0  0  0  0  0
   70.9712   82.1832   89.5681 C   0  0  0  0  0  0  0  0  0  0  0  0
   72.2631   82.3823   90.0954 C   0  0  0  0  0  0  0  0  0  0  0  0
   73.1062   83.3645   89.5796 C   0  0  0  0  0  0  0  0  0  0  0  0
   72.6755   84.1875   88.5437 C   0  0  0  0  0  0  0  0  0  0  0  0
   71.3805   84.0536   88.0280 C   0  0  0  0  0  0  0  0  0  0  0  0
   70.9460   84.9118   87.0055 C   0  0  0  0  0  0  0  0  0  0  0  0
   69.6489   84.8092   86.5041 C   0  0  0  0  0  0  0  0  0  0  0  0
   68.7722   83.8577   87.0223 C   0  0  0  0  0  0  0  0  0  0  0  0
   69.1884   82.9925   88.0372 C   0  0  0  0  0  0  0  0  0  0  0  0
   70.5043   83.0606   88.5485 C   0  0  0  0  0  0  0  0  0  0  0  0
  8  9  2  0  0  0
  9 10  1  0  0  0
  9  2  1  0  0  0
  2  3  2  0  0  0
  3  4  1  0  0  0
  4  5  2  0  0  0
  5  6  1  0  0  0
  6  1  1  0  0  0
  1 12  1  0  0  0
 12 13  1  0  0  0
 13 14  2  0  0  0
 14 15  1  0  0  0
 15 16  2  0  0  0
 16 17  1  0  0  0
 17 18  2  0  0  0
 18 19  1  0  0  0
 19 20  2  0  0  0
 20 21  1  0  0  0
 21 22  2  0  0  0
  6  7  2  0  0  0
  7  2  1  0  0  0
 22 13  1  0  0  0
 22 17  1  0  0  0
 10 11  1  0  0  0
M  END
> <score>
0.410179

> <minimizedAffinity>
-8.11641

> <CNNscore>
0.7397350669

> <CNNaffinity>
5.3563575745

> <CNN_VS>
3.9622855186

$$$$
HIPS5023


 22 24  0  0  0  0  0  0  0  0999 V2000
   68.8742   79.7037   89.7902 O   0  0  0  0  0  0  0  0  0  0  0  0
   70.0321   76.6038   91.4633 C   0  0  0  0  0  0  0  0  0  0  0  0
   71.4250   76.7230   91.3247 C   0  0  0  0  0  0  0  0  0  0  0  0
   71.9778   77.8289   90.6754 C   0  0  0  0  0  0  0  0  0  0  0  0
   71.1507   78.8270   90.1571 C   0  0  0  0  0  0  0  0  0  0  0  0
   69.7526   78.7258   90.2867 C   0  0  0  0  0  0  0  0  0  0  0  0
   69.2047   77.6140   90.9387 C   0  0  0  0  0  0  0  0  0  0  0  0
   68.2846   75.0380   91.8687 O   0  0  0  0  0  0  0  0  0  0  0  0
   69.4483   75.4317   92.1524 C   0  0  0  0  0  0  0  0  0  0  0  0
   70.1800   74.7514   93.1224 O   0  0  0  0  0  0  0  0  0  0  0  0
   71.0458   75.0354   93.3411 H   0  0  0  0  0  0  0  0  0  0  0  0
   68.8327   81.0666   90.2201 C   0  0  0  0  0  0  0  0  0  0  0  0
   69.2560   82.0351   89.1271 C   0  0  0  0  0  0  0  0  0  0  0  0
   68.3656   82.3187   88.0719 C   0  0  0  0  0  0  0  0  0  0  0  0
   68.7082   83.2188   87.0648 C   0  0  0  0  0  0  0  0  0  0  0  0
   69.9535   83.8395   87.0706 C   0  0  0  0  0  0  0  0  0  0  0  0
   70.8842   83.5446   88.0744 C   0  0  0  0  0  0  0  0  0  0  0  0
   72.1497   84.1521   88.0508 C   0  0  0  0  0  0  0  0  0  0  0  0
   73.0965   83.8443   89.0271 C   0  0  0  0  0  0  0  0  0  0  0  0
   72.7942   82.9235   90.0287 C   0  0  0  0  0  0  0  0  0  0  0  0
   71.5387   82.3122   90.0704 C   0  0  0  0  0  0  0  0  0  0  0  0
   70.5531   82.6221   89.1059 C   0  0  0  0  0  0  0  0  0  0  0  0
  8  9  2  0  0  0
  9 10  1  0  0  0
  9  2  1  0  0  0
  2  3  2  0  0  0
  3  4  1  0  0  0
  4  5  2  0  0  0
  5  6  1  0  0  0
  6  1  1  0  0  0
  1 12  1  0  0  0
 12 13  1  0  0  0
 13 14  2  0  0  0
 14 15  1  0  0  0
 15 16  2  0  0  0
 16 17  1  0  0  0
 17 18  2  0  0  0
 18 19  1  0  0  0
 19 20  2  0  0  0
 20 21  1  0  0  0
 21 22  2  0  0  0
  6  7  2  0  0  0
  7  2  1  0  0  0
 22 13  1  0  0  0
 22 17  1  0  0  0
 10 11  1  0  0  0
M  END
> <score>
0.410179

> <minimizedAffinity>
-7.82875

> <CNNscore>
0.7391701937

> <CNNaffinity>
5.3542785645

> <CNN_VS>
3.9577231407

$$$$
HIPS5024


 28 30  0  0  0  0  0  0  0  0999 V2000
   68.0474   78.1635   89.0440 N   0  0  0  0  0  0  0  0  0  0  0  0
   67.5957   77.3988   88.6191 H   0  0  0  0  0  0  0  0  0  0  0  0
   70.0417   76.7766   91.9387 C   0  0  0  0  0  0  0  0  0  0  0  0
   68.9708   77.0401   91.0659 C   0  0  0  0  0  0  0  0  0  0  0  0
   69.1320   77.8847   89.9519 C   0  0  0  0  0  0  0  0  0  0  0  0
   70.3811   78.4750   89.7244 C   0  0  0  0  0  0  0  0  0  0  0  0
   71.4560   78.2093   90.5723 C   0  0  0  0  0  0  0  0  0  0  0  0
   71.3090   77.3482   91.6643 C   0  0  0  0  0  0  0  0  0  0  0  0
   72.4460   77.0630   92.4236 O   0  0  0  0  0  0  0  0  0  0  0  0
   73.2657   77.4627   92.2082 H   0  0  0  0  0  0  0  0  0  0  0  0
   69.3138   74.7706   93.0030 O   0  0  0  0  0  0  0  0  0  0  0  0
   69.7842   75.9328   93.1269 C   0  0  0  0  0  0  0  0  0  0  0  0
   70.1219   76.4007   94.3944 O   0  0  0  0  0  0  0  0  0  0  0  0
   70.4724   77.2635   94.4973 H   0  0  0  0  0  0  0  0  0  0  0  0
   67.5727   79.5090   88.7115 C   0  0  0  0  0  0  0  0  0  0  0  0
   67.5834   80.4145   89.9287 C   0  0  0  0  0  0  0  0  0  0  0  0
   66.8973   79.9910   91.0841 C   0  0  0  0  0  0  0  0  0  0  0  0
   66.8575   80.7895   92.2266 C   0  0  0  0  0  0  0  0  0  0  0  0
   67.4814   82.0338   92.2304 C   0  0  0  0  0  0  0  0  0  0  0  0
   68.1375   82.4903   91.0879 C   0  0  0  0  0  0  0  0  0  0  0  0
   68.1947   81.7007   89.9235 C   0  0  0  0  0  0  0  0  0  0  0  0
   68.8658   82.2858   88.6966 C   0  0  0  0  0  0  0  0  0  0  0  0
   70.2968   82.6679   88.9825 C   0  0  0  0  0  0  0  0  0  0  0  0
   70.8603   83.8065   88.3794 C   0  0  0  0  0  0  0  0  0  0  0  0
   72.1842   84.1660   88.6493 C   0  0  0  0  0  0  0  0  0  0  0  0
   72.9526   83.3999   89.5293 C   0  0  0  0  0  0  0  0  0  0  0  0
   72.3966   82.2757   90.1454 C   0  0  0  0  0  0  0  0  0  0  0  0
   71.0729   81.9125   89.8789 C   0  0  0  0  0  0  0  0  0  0  0  0
 11 12  2  0  0  0
 12 13  1  0  0  0
 12  3  1  0  0  0
  3  4  2  0  0  0
  4  5  1  0  0  0
  5  1  1  0  0  0
  1 15  1  0  0  0
 15 16  1  0  0  0
 16 17  2  0  0  0
 17 18  1  0  0  0
 18 19  2  0  0  0
 19 20  1  0  0  0
 20 21  2  0  0  0
 21 22  1  0  0  0
 22 23  1  0  0  0
 23 24  2  0  0  0
 24 25  1  0  0  0
 25 26  2  0  0  0
 26 27  1  0  0  0
 27 28  2  0  0  0
  5  6  2  0  0  0
  6  7  1  0  0  0
  7  8  2  0  0  0
  8  9  1  0  0  0
  8  3  1  0  0  0
 21 16  1  0  0  0
 28 23  1  0  0  0
 13 14  1  0  0  0
  1  2  1  0  0  0
  9 10  1  0  0  0
M  END
> <score>
0.00847

> <minimizedAffinity>
-7.55092

> <CNNscore>
0.7397844195

> <CNNaffinity>
5.8292627335

> <CNN_VS>
4.3123979568

$$$$
HIPS5024


 28 30  0  0  0  0  0  0  0  0999 V2000
   69.0058   79.9910   89.5399 N   0  0  0  0  0  0  0  0  0  0  0  0
   69.8135   80.3003   89.0695 H   0  0  0  0  0  0  0  0  0  0  0  0
   69.4927   76.5526   91.0301 C   0  0  0  0  0  0  0  0  0  0  0  0
   69.6352   77.9311   90.7904 C   0  0  0  0  0  0  0  0  0  0  0  0
   68.8766   78.5784   89.7974 C   0  0  0  0  0  0  0  0  0  0  0  0
   67.9755   77.8254   89.0349 C   0  0  0  0  0  0  0  0  0  0  0  0
   67.8121   76.4610   89.2731 C   0  0  0  0  0  0  0  0  0  0  0  0
   68.5424   75.8185   90.2777 C   0  0  0  0  0  0  0  0  0  0  0  0
   68.2701   74.4695   90.5163 O   0  0  0  0  0  0  0  0  0  0  0  0
   67.6336   74.0208   89.9953 H   0  0  0  0  0  0  0  0  0  0  0  0
   71.0747   76.6306   92.8128 O   0  0  0  0  0  0  0  0  0  0  0  0
   70.3696   75.9246   92.0434 C   0  0  0  0  0  0  0  0  0  0  0  0
   70.3723   74.5402   92.1940 O   0  0  0  0  0  0  0  0  0  0  0  0
   69.8514   74.0062   91.6269 H   0  0  0  0  0  0  0  0  0  0  0  0
   68.0151   80.9967   89.9316 C   0  0  0  0  0  0  0  0  0  0  0  0
   67.8330   82.0432   88.8483 C   0  0  0  0  0  0  0  0  0  0  0  0
   67.1842   81.6664   87.6558 C   0  0  0  0  0  0  0  0  0  0  0  0
   67.0046   82.5807   86.6184 C   0  0  0  0  0  0  0  0  0  0  0  0
   67.4883   83.8801   86.7418 C   0  0  0  0  0  0  0  0  0  0  0  0
   68.1643   84.2674   87.8982 C   0  0  0  0  0  0  0  0  0  0  0  0
   68.3546   83.3634   88.9610 C   0  0  0  0  0  0  0  0  0  0  0  0
   69.1562   83.8301   90.1601 C   0  0  0  0  0  0  0  0  0  0  0  0
   70.6263   83.5415   89.9846 C   0  0  0  0  0  0  0  0  0  0  0  0
   71.3894   84.2834   89.0654 C   0  0  0  0  0  0  0  0  0  0  0  0
   72.7537   84.0219   88.9072 C   0  0  0  0  0  0  0  0  0  0  0  0
   73.3693   83.0267   89.6704 C   0  0  0  0  0  0  0  0  0  0  0  0
   72.6228   82.2949   90.5974 C   0  0  0  0  0  0  0  0  0  0  0  0
   71.2582   82.5531   90.7595 C   0  0  0  0  0  0  0  0  0  0  0  0
 11 12  2  0  0  0
 12 13  1  0  0  0
 12  3  1  0  0  0
  3  4  2  0  0  0
  4  5  1  0  0  0
  5  1  1  0  0  0
  1 15  1  0  0  0
 15 16  1  0  0  0
 16 17  2  0  0  0
 17 18  1  0  0  0
 18 19  2  0  0  0
 19 20  1  0  0  0
 20 21  2  0  0  0
 21 22  1  0  0  0
 22 23  1  0  0  0
 23 24  2  0  0  0
 24 25  1  0  0  0
 25 26  2  0  0  0
 26 27  1  0  0  0
 27 28  2  0  0  0
  5  6  2  0  0  0
  6  7  1  0  0  0
  7  8  2  0  0  0
  8  9  1  0  0  0
  8  3  1  0  0  0
 21 16  1  0  0  0
 28 23  1  0  0  0
 13 14  1  0  0  0
  1  2  1  0  0  0
  9 10  1  0  0  0
M  END
> <score>
0.00847

> <minimizedAffinity>
-7.08555

> <CNNscore>
0.6841396689

> <CNNaffinity>
5.7381086349

> <CNN_VS>
3.9256677628

$$$$
HIPS5024


 28 30  0  0  0  0  0  0  0  0999 V2000
   66.2717   77.2319   93.1322 N   0  0  0  0  0  0  0  0  0  0  0  0
   65.3727   77.2290   92.7309 H   0  0  0  0  0  0  0  0  0  0  0  0
   68.2334   74.4224   94.7254 C   0  0  0  0  0  0  0  0  0  0  0  0
   67.8953   75.5019   93.8897 C   0  0  0  0  0  0  0  0  0  0  0  0
   66.6350   76.1219   93.9773 C   0  0  0  0  0  0  0  0  0  0  0  0
   65.7067   75.6410   94.9087 C   0  0  0  0  0  0  0  0  0  0  0  0
   66.0348   74.5821   95.7550 C   0  0  0  0  0  0  0  0  0  0  0  0
   67.2958   73.9811   95.6919 C   0  0  0  0  0  0  0  0  0  0  0  0
   67.5854   72.9810   96.6228 O   0  0  0  0  0  0  0  0  0  0  0  0
   66.9363   72.7183   97.2455 H   0  0  0  0  0  0  0  0  0  0  0  0
   70.0928   73.7406   93.3970 O   0  0  0  0  0  0  0  0  0  0  0  0
   69.5506   73.7754   94.5337 C   0  0  0  0  0  0  0  0  0  0  0  0
   70.2308   73.2521   95.6304 O   0  0  0  0  0  0  0  0  0  0  0  0
   69.8363   73.2731   96.4801 H   0  0  0  0  0  0  0  0  0  0  0  0
   67.1514   78.3640   92.8308 C   0  0  0  0  0  0  0  0  0  0  0  0
   66.7188   79.0771   91.5635 C   0  0  0  0  0  0  0  0  0  0  0  0
   65.9289   80.2374   91.6846 C   0  0  0  0  0  0  0  0  0  0  0  0
   65.4868   80.9240   90.5543 C   0  0  0  0  0  0  0  0  0  0  0  0
   65.8049   80.4540   89.2833 C   0  0  0  0  0  0  0  0  0  0  0  0
   66.5563   79.2887   89.1368 C   0  0  0  0  0  0  0  0  0  0  0  0
   67.0174   78.5799   90.2628 C   0  0  0  0  0  0  0  0  0  0  0  0
   67.7714   77.2853   90.0317 C   0  0  0  0  0  0  0  0  0  0  0  0
   69.2293   77.4264   90.3922 C   0  0  0  0  0  0  0  0  0  0  0  0
   69.8396   76.4968   91.2531 C   0  0  0  0  0  0  0  0  0  0  0  0
   71.1927   76.6221   91.5822 C   0  0  0  0  0  0  0  0  0  0  0  0
   71.9495   77.6681   91.0482 C   0  0  0  0  0  0  0  0  0  0  0  0
   71.3557   78.5876   90.1797 C   0  0  0  0  0  0  0  0  0  0  0  0
   70.0030   78.4660   89.8474 C   0  0  0  0  0  0  0  0  0  0  0  0
 11 12  2  0  0  0
 12 13  1  0  0  0
 12  3  1  0  0  0
  3  4  2  0  0  0
  4  5  1  0  0  0
  5  1  1  0  0  0
  1 15  1  0  0  0
 15 16  1  0  0  0
 16 17  2  0  0  0
 17 18  1  0  0  0
 18 19  2  0  0  0
 19 20  1  0  0  0
 20 21  2  0  0  0
 21 22  1  0  0  0
 22 23  1  0  0  0
 23 24  2  0  0  0
 24 25  1  0  0  0
 25 26  2  0  0  0
 26 27  1  0  0  0
 27 28  2  0  0  0
  5  6  2  0  0  0
  6  7  1  0  0  0
  7  8  2  0  0  0
  8  9  1  0  0  0
  8  3  1  0  0  0
 21 16  1  0  0  0
 28 23  1  0  0  0
 13 14  1  0  0  0
  1  2  1  0  0  0
  9 10  1  0  0  0
M  END
> <score>
0.00847

> <minimizedAffinity>
-7.64237

> <CNNscore>
0.5792707801

> <CNNaffinity>
5.7450294495

> <CNN_VS>
3.3279275894

$$$$
HIPS5025


 25 27  0  0  0  0  0  0  0  0999 V2000
   67.6512   78.9855   89.3647 N   0  0  0  0  0  0  0  0  0  0  0  0
   67.3131   79.1532   88.4554 H   0  0  0  0  0  0  0  0  0  0  0  0
   69.1857   75.9730   91.0535 C   0  0  0  0  0  0  0  0  0  0  0  0
   68.8866   77.3095   90.7320 C   0  0  0  0  0  0  0  0  0  0  0  0
   67.9522   77.6234   89.7279 C   0  0  0  0  0  0  0  0  0  0  0  0
   67.3013   76.5801   89.0580 C   0  0  0  0  0  0  0  0  0  0  0  0
   67.5697   75.2511   89.3841 C   0  0  0  0  0  0  0  0  0  0  0  0
   68.4900   74.9334   90.3876 C   0  0  0  0  0  0  0  0  0  0  0  0
   68.6550   73.5853   90.7135 O   0  0  0  0  0  0  0  0  0  0  0  0
   68.1753   72.9286   90.2480 H   0  0  0  0  0  0  0  0  0  0  0  0
   70.1969   74.6932   92.7932 O   0  0  0  0  0  0  0  0  0  0  0  0
   70.2440   75.7134   92.0552 C   0  0  0  0  0  0  0  0  0  0  0  0
   71.3392   76.5688   92.1438 O   0  0  0  0  0  0  0  0  0  0  0  0
   71.3842   77.3302   91.5996 H   0  0  0  0  0  0  0  0  0  0  0  0
   67.8133   80.1368   90.2546 C   0  0  0  0  0  0  0  0  0  0  0  0
   68.7552   81.1472   89.6524 C   0  0  0  0  0  0  0  0  0  0  0  0
   68.3350   81.9426   88.5746 C   0  0  0  0  0  0  0  0  0  0  0  0
   69.2005   82.8788   88.0034 C   0  0  0  0  0  0  0  0  0  0  0  0
   70.4993   83.0374   88.5066 C   0  0  0  0  0  0  0  0  0  0  0  0
   71.3786   83.9718   87.9376 C   0  0  0  0  0  0  0  0  0  0  0  0
   72.6710   84.1208   88.4491 C   0  0  0  0  0  0  0  0  0  0  0  0
   73.0943   83.3416   89.5290 C   0  0  0  0  0  0  0  0  0  0  0  0
   72.2282   82.4078   90.1052 C   0  0  0  0  0  0  0  0  0  0  0  0
   70.9280   82.2478   89.6010 C   0  0  0  0  0  0  0  0  0  0  0  0
   70.0504   81.3128   90.1701 C   0  0  0  0  0  0  0  0  0  0  0  0
 11 12  2  0  0  0
 12 13  1  0  0  0
 12  3  1  0  0  0
  3  4  2  0  0  0
  4  5  1  0  0  0
  5  1  1  0  0  0
  1 15  1  0  0  0
 15 16  1  0  0  0
 16 17  2  0  0  0
 17 18  1  0  0  0
 18 19  2  0  0  0
 19 20  1  0  0  0
 20 21  2  0  0  0
 21 22  1  0  0  0
 22 23  2  0  0  0
 23 24  1  0  0  0
 24 25  2  0  0  0
  5  6  2  0  0  0
  6  7  1  0  0  0
  7  8  2  0  0  0
  8  9  1  0  0  0
  8  3  1  0  0  0
 25 16  1  0  0  0
 24 19  1  0  0  0
 13 14  1  0  0  0
  1  2  1  0  0  0
  9 10  1  0  0  0
M  END
> <score>
0.564025

> <minimizedAffinity>
-8.00944

> <CNNscore>
0.6363267899

> <CNNaffinity>
5.1476421356

> <CNN_VS>
3.2755825520

$$$$
HIPS5025


 25 27  0  0  0  0  0  0  0  0999 V2000
   67.9097   79.1663   89.2506 N   0  0  0  0  0  0  0  0  0  0  0  0
   67.5996   78.9265   88.3475 H   0  0  0  0  0  0  0  0  0  0  0  0
   70.6347   77.2119   90.9932 C   0  0  0  0  0  0  0  0  0  0  0  0
   69.9786   78.2228   90.2674 C   0  0  0  0  0  0  0  0  0  0  0  0
   68.5961   78.1550   90.0147 C   0  0  0  0  0  0  0  0  0  0  0  0
   67.8683   77.0685   90.5156 C   0  0  0  0  0  0  0  0  0  0  0  0
   68.5014   76.0724   91.2582 C   0  0  0  0  0  0  0  0  0  0  0  0
   69.8730   76.1395   91.5206 C   0  0  0  0  0  0  0  0  0  0  0  0
   70.4276   75.1476   92.3328 O   0  0  0  0  0  0  0  0  0  0  0  0
   69.8883   74.4552   92.6611 H   0  0  0  0  0  0  0  0  0  0  0  0
   72.8486   77.4428   90.1378 O   0  0  0  0  0  0  0  0  0  0  0  0
   72.1044   77.2994   91.1444 C   0  0  0  0  0  0  0  0  0  0  0  0
   72.6723   77.2878   92.4157 O   0  0  0  0  0  0  0  0  0  0  0  0
   72.1280   77.1818   93.1710 H   0  0  0  0  0  0  0  0  0  0  0  0
   67.6416   80.5254   89.7246 C   0  0  0  0  0  0  0  0  0  0  0  0
   68.6486   81.4945   89.1611 C   0  0  0  0  0  0  0  0  0  0  0  0
   68.3349   82.2459   88.0174 C   0  0  0  0  0  0  0  0  0  0  0  0
   69.2619   83.1433   87.4815 C   0  0  0  0  0  0  0  0  0  0  0  0
   70.5159   83.3069   88.0862 C   0  0  0  0  0  0  0  0  0  0  0  0
   71.4564   84.2026   87.5536 C   0  0  0  0  0  0  0  0  0  0  0  0
   72.7032   84.3571   88.1665 C   0  0  0  0  0  0  0  0  0  0  0  0
   73.0200   83.6220   89.3119 C   0  0  0  0  0  0  0  0  0  0  0  0
   72.0921   82.7271   89.8526 C   0  0  0  0  0  0  0  0  0  0  0  0
   70.8366   82.5621   89.2469 C   0  0  0  0  0  0  0  0  0  0  0  0
   69.8979   81.6658   89.7796 C   0  0  0  0  0  0  0  0  0  0  0  0
 11 12  2  0  0  0
 12 13  1  0  0  0
 12  3  1  0  0  0
  3  4  2  0  0  0
  4  5  1  0  0  0
  5  1  1  0  0  0
  1 15  1  0  0  0
 15 16  1  0  0  0
 16 17  2  0  0  0
 17 18  1  0  0  0
 18 19  2  0  0  0
 19 20  1  0  0  0
 20 21  2  0  0  0
 21 22  1  0  0  0
 22 23  2  0  0  0
 23 24  1  0  0  0
 24 25  2  0  0  0
  5  6  2  0  0  0
  6  7  1  0  0  0
  7  8  2  0  0  0
  8  9  1  0  0  0
  8  3  1  0  0  0
 25 16  1  0  0  0
 24 19  1  0  0  0
 13 14  1  0  0  0
  1  2  1  0  0  0
  9 10  1  0  0  0
M  END
> <score>
0.564025

> <minimizedAffinity>
-7.94380

> <CNNscore>
0.5714017749

> <CNNaffinity>
5.1840715408

> <CNN_VS>
2.9621877670

$$$$
HIPS5025


 25 27  0  0  0  0  0  0  0  0999 V2000
   67.0699   77.0859   92.1746 N   0  0  0  0  0  0  0  0  0  0  0  0
   66.6119   77.9368   92.3628 H   0  0  0  0  0  0  0  0  0  0  0  0
   68.1953   74.3272   94.4995 C   0  0  0  0  0  0  0  0  0  0  0  0
   68.2193   75.3195   93.5025 C   0  0  0  0  0  0  0  0  0  0  0  0
   67.0742   76.0831   93.2101 C   0  0  0  0  0  0  0  0  0  0  0  0
   65.9030   75.8561   93.9433 C   0  0  0  0  0  0  0  0  0  0  0  0
   65.8726   74.8932   94.9515 C   0  0  0  0  0  0  0  0  0  0  0  0
   67.0101   74.1382   95.2530 C   0  0  0  0  0  0  0  0  0  0  0  0
   66.9307   73.2442   96.3233 O   0  0  0  0  0  0  0  0  0  0  0  0
   66.1271   73.1493   96.7957 H   0  0  0  0  0  0  0  0  0  0  0  0
   69.5712   72.8345   95.7508 O   0  0  0  0  0  0  0  0  0  0  0  0
   69.4069   73.4994   94.6931 C   0  0  0  0  0  0  0  0  0  0  0  0
   70.3488   73.3999   93.6724 O   0  0  0  0  0  0  0  0  0  0  0  0
   70.2363   73.8900   92.8817 H   0  0  0  0  0  0  0  0  0  0  0  0
   67.6995   76.9266   90.8624 C   0  0  0  0  0  0  0  0  0  0  0  0
   68.7230   78.0073   90.6277 C   0  0  0  0  0  0  0  0  0  0  0  0
   70.0918   77.6991   90.6752 C   0  0  0  0  0  0  0  0  0  0  0  0
   71.0509   78.6931   90.4654 C   0  0  0  0  0  0  0  0  0  0  0  0
   70.6541   80.0109   90.1987 C   0  0  0  0  0  0  0  0  0  0  0  0
   71.6092   81.0182   89.9906 C   0  0  0  0  0  0  0  0  0  0  0  0
   71.2005   82.3283   89.7248 C   0  0  0  0  0  0  0  0  0  0  0  0
   69.8401   82.6422   89.6643 C   0  0  0  0  0  0  0  0  0  0  0  0
   68.8788   81.6481   89.8691 C   0  0  0  0  0  0  0  0  0  0  0  0
   69.2756   80.3287   90.1372 C   0  0  0  0  0  0  0  0  0  0  0  0
   68.3200   79.3230   90.3459 C   0  0  0  0  0  0  0  0  0  0  0  0
 11 12  2  0  0  0
 12 13  1  0  0  0
 12  3  1  0  0  0
  3  4  2  0  0  0
  4  5  1  0  0  0
  5  1  1  0  0  0
  1 15  1  0  0  0
 15 16  1  0  0  0
 16 17  2  0  0  0
 17 18  1  0  0  0
 18 19  2  0  0  0
 19 20  1  0  0  0
 20 21  2  0  0  0
 21 22  1  0  0  0
 22 23  2  0  0  0
 23 24  1  0  0  0
 24 25  2  0  0  0
  5  6  2  0  0  0
  6  7  1  0  0  0
  7  8  2  0  0  0
  8  9  1  0  0  0
  8  3  1  0  0  0
 25 16  1  0  0  0
 24 19  1  0  0  0
 13 14  1  0  0  0
  1  2  1  0  0  0
  9 10  1  0  0  0
M  END
> <score>
0.564025

> <minimizedAffinity>
-7.82998

> <CNNscore>
0.5410950184

> <CNNaffinity>
4.9576911926

> <CNN_VS>
2.6825819016

$$$$
HIPS5026


 24 26  0  0  0  0  0  0  0  0999 V2000
   69.0487   76.8995   91.2428 C   0  0  0  0  0  0  0  0  0  0  0  0
   68.8465   78.1324   90.5974 C   0  0  0  0  0  0  0  0  0  0  0  0
   69.9254   78.9369   90.2168 C   0  0  0  0  0  0  0  0  0  0  0  0
   71.2333   78.4963   90.4761 C   0  0  0  0  0  0  0  0  0  0  0  0
   71.4490   77.2849   91.1334 C   0  0  0  0  0  0  0  0  0  0  0  0
   70.3723   76.4907   91.5418 C   0  0  0  0  0  0  0  0  0  0  0  0
   70.6583   75.3304   92.2646 O   0  0  0  0  0  0  0  0  0  0  0  0
   71.5481   75.0957   92.4409 H   0  0  0  0  0  0  0  0  0  0  0  0
   67.8648   76.0695   91.5547 C   0  0  0  0  0  0  0  0  0  0  0  0
   66.8433   76.5862   92.0846 O   0  0  0  0  0  0  0  0  0  0  0  0
   67.9932   74.1443   90.0034 C   0  0  0  0  0  0  0  0  0  0  0  0
   67.9084   74.6920   91.3135 O   0  0  0  0  0  0  0  0  0  0  0  0
   69.6486   80.1550   89.5761 O   0  0  0  0  0  0  0  0  0  0  0  0
   69.6212   81.4375   90.2048 C   0  0  0  0  0  0  0  0  0  0  0  0
   70.7231   82.3259   89.6674 C   0  0  0  0  0  0  0  0  0  0  0  0
   72.0075   82.2183   90.2294 C   0  0  0  0  0  0  0  0  0  0  0  0
   73.0510   83.0323   89.7915 C   0  0  0  0  0  0  0  0  0  0  0  0
   72.8380   83.9652   88.7797 C   0  0  0  0  0  0  0  0  0  0  0  0
   71.5751   84.0861   88.1850 C   0  0  0  0  0  0  0  0  0  0  0  0
   71.3721   85.0219   87.1583 C   0  0  0  0  0  0  0  0  0  0  0  0
   70.1211   85.1423   86.5530 C   0  0  0  0  0  0  0  0  0  0  0  0
   69.0646   84.3295   86.9619 C   0  0  0  0  0  0  0  0  0  0  0  0
   69.2484   83.3934   87.9824 C   0  0  0  0  0  0  0  0  0  0  0  0
   70.5023   83.2595   88.6180 C   0  0  0  0  0  0  0  0  0  0  0  0
 11 12  1  0  0  0
 12  9  1  0  0  0
  9 10  2  0  0  0
  9  1  1  0  0  0
  1  2  2  0  0  0
  2  3  1  0  0  0
  3 13  1  0  0  0
 13 14  1  0  0  0
 14 15  1  0  0  0
 15 16  2  0  0  0
 16 17  1  0  0  0
 17 18  2  0  0  0
 18 19  1  0  0  0
 19 20  2  0  0  0
 20 21  1  0  0  0
 21 22  2  0  0  0
 22 23  1  0  0  0
 23 24  2  0  0  0
  3  4  2  0  0  0
  4  5  1  0  0  0
  5  6  2  0  0  0
  6  7  1  0  0  0
  6  1  1  0  0  0
 24 15  1  0  0  0
 24 19  1  0  0  0
  7  8  1  0  0  0
M  END
> <score>
1.153769

> <minimizedAffinity>
-8.06281

> <CNNscore>
0.7760227323

> <CNNaffinity>
5.4742031097

> <CNN_VS>
4.2481060028

$$$$
HIPS5026


 24 26  0  0  0  0  0  0  0  0999 V2000
   68.9545   77.0790   91.4866 C   0  0  0  0  0  0  0  0  0  0  0  0
   68.7397   78.2876   90.8006 C   0  0  0  0  0  0  0  0  0  0  0  0
   69.8026   78.9977   90.2331 C   0  0  0  0  0  0  0  0  0  0  0  0
   71.1053   78.4852   90.3433 C   0  0  0  0  0  0  0  0  0  0  0  0
   71.3363   77.2977   91.0381 C   0  0  0  0  0  0  0  0  0  0  0  0
   70.2801   76.5991   91.6322 C   0  0  0  0  0  0  0  0  0  0  0  0
   70.5926   75.4613   92.3793 O   0  0  0  0  0  0  0  0  0  0  0  0
   71.4827   75.1774   92.4504 H   0  0  0  0  0  0  0  0  0  0  0  0
   67.7771   76.3468   92.0017 C   0  0  0  0  0  0  0  0  0  0  0  0
   67.6345   75.1165   91.7628 O   0  0  0  0  0  0  0  0  0  0  0  0
   65.9844   76.4313   93.7070 C   0  0  0  0  0  0  0  0  0  0  0  0
   66.7888   77.0431   92.7059 O   0  0  0  0  0  0  0  0  0  0  0  0
   69.5137   80.1968   89.5624 O   0  0  0  0  0  0  0  0  0  0  0  0
   69.4865   81.4957   90.1563 C   0  0  0  0  0  0  0  0  0  0  0  0
   70.6455   82.3378   89.6663 C   0  0  0  0  0  0  0  0  0  0  0  0
   71.9073   82.1546   90.2591 C   0  0  0  0  0  0  0  0  0  0  0  0
   73.0015   82.9233   89.8654 C   0  0  0  0  0  0  0  0  0  0  0  0
   72.8627   83.8854   88.8681 C   0  0  0  0  0  0  0  0  0  0  0  0
   71.6239   84.0814   88.2436 C   0  0  0  0  0  0  0  0  0  0  0  0
   71.4955   85.0462   87.2318 C   0  0  0  0  0  0  0  0  0  0  0  0
   70.2688   85.2414   86.5970 C   0  0  0  0  0  0  0  0  0  0  0  0
   69.1625   84.4751   86.9613 C   0  0  0  0  0  0  0  0  0  0  0  0
   69.2718   83.5111   87.9664 C   0  0  0  0  0  0  0  0  0  0  0  0
   70.4999   83.3017   88.6313 C   0  0  0  0  0  0  0  0  0  0  0  0
 11 12  1  0  0  0
 12  9  1  0  0  0
  9 10  2  0  0  0
  9  1  1  0  0  0
  1  2  2  0  0  0
  2  3  1  0  0  0
  3 13  1  0  0  0
 13 14  1  0  0  0
 14 15  1  0  0  0
 15 16  2  0  0  0
 16 17  1  0  0  0
 17 18  2  0  0  0
 18 19  1  0  0  0
 19 20  2  0  0  0
 20 21  1  0  0  0
 21 22  2  0  0  0
 22 23  1  0  0  0
 23 24  2  0  0  0
  3  4  2  0  0  0
  4  5  1  0  0  0
  5  6  2  0  0  0
  6  7  1  0  0  0
  6  1  1  0  0  0
 24 15  1  0  0  0
 24 19  1  0  0  0
  7  8  1  0  0  0
M  END
> <score>
1.153769

> <minimizedAffinity>
-7.97882

> <CNNscore>
0.7183862329

> <CNNaffinity>
5.3906707764

> <CNN_VS>
3.8725836277

$$$$
HIPS5026


 24 26  0  0  0  0  0  0  0  0999 V2000
   69.5376   76.1497   91.5473 C   0  0  0  0  0  0  0  0  0  0  0  0
   68.5310   76.3757   90.5917 C   0  0  0  0  0  0  0  0  0  0  0  0
   68.6514   77.3922   89.6386 C   0  0  0  0  0  0  0  0  0  0  0  0
   69.8054   78.1922   89.6324 C   0  0  0  0  0  0  0  0  0  0  0  0
   70.8034   77.9928   90.5867 C   0  0  0  0  0  0  0  0  0  0  0  0
   70.6741   76.9964   91.5599 C   0  0  0  0  0  0  0  0  0  0  0  0
   71.6726   76.9043   92.5320 O   0  0  0  0  0  0  0  0  0  0  0  0
   72.4084   77.4838   92.5042 H   0  0  0  0  0  0  0  0  0  0  0  0
   69.3753   75.0139   92.4808 C   0  0  0  0  0  0  0  0  0  0  0  0
   70.3620   74.2885   92.7829 O   0  0  0  0  0  0  0  0  0  0  0  0
   67.8693   73.6364   93.8821 C   0  0  0  0  0  0  0  0  0  0  0  0
   68.1039   74.7115   92.9806 O   0  0  0  0  0  0  0  0  0  0  0  0
   67.6074   77.5600   88.7150 O   0  0  0  0  0  0  0  0  0  0  0  0
   66.3556   78.1943   88.9818 C   0  0  0  0  0  0  0  0  0  0  0  0
   66.5596   79.5074   89.7075 C   0  0  0  0  0  0  0  0  0  0  0  0
   66.3359   79.5503   91.0950 C   0  0  0  0  0  0  0  0  0  0  0  0
   66.4814   80.7399   91.8071 C   0  0  0  0  0  0  0  0  0  0  0  0
   66.8598   81.9094   91.1526 C   0  0  0  0  0  0  0  0  0  0  0  0
   67.1085   81.8982   89.7738 C   0  0  0  0  0  0  0  0  0  0  0  0
   67.4998   83.0796   89.1240 C   0  0  0  0  0  0  0  0  0  0  0  0
   67.7597   83.0760   87.7535 C   0  0  0  0  0  0  0  0  0  0  0  0
   67.6364   81.8962   87.0208 C   0  0  0  0  0  0  0  0  0  0  0  0
   67.2475   80.7117   87.6508 C   0  0  0  0  0  0  0  0  0  0  0  0
   66.9686   80.6915   89.0350 C   0  0  0  0  0  0  0  0  0  0  0  0
 11 12  1  0  0  0
 12  9  1  0  0  0
  9 10  2  0  0  0
  9  1  1  0  0  0
  1  2  2  0  0  0
  2  3  1  0  0  0
  3 13  1  0  0  0
 13 14  1  0  0  0
 14 15  1  0  0  0
 15 16  2  0  0  0
 16 17  1  0  0  0
 17 18  2  0  0  0
 18 19  1  0  0  0
 19 20  2  0  0  0
 20 21  1  0  0  0
 21 22  2  0  0  0
 22 23  1  0  0  0
 23 24  2  0  0  0
  3  4  2  0  0  0
  4  5  1  0  0  0
  5  6  2  0  0  0
  6  7  1  0  0  0
  6  1  1  0  0  0
 24 15  1  0  0  0
 24 19  1  0  0  0
  7  8  1  0  0  0
M  END
> <score>
1.153769

> <minimizedAffinity>
-6.71277

> <CNNscore>
0.6917840838

> <CNNaffinity>
5.5521068573

> <CNN_VS>
3.8408591747

$$$$
HIPS5027


 23 25  0  0  0  0  0  0  0  0999 V2000
   68.4685   79.9469   88.9686 O   0  0  0  0  0  0  0  0  0  0  0  0
   69.2380   74.7709   91.3019 C   0  0  0  0  0  0  0  0  0  0  0  0
   69.1073   76.1416   90.6900 C   0  0  0  0  0  0  0  0  0  0  0  0
   67.9789   76.4138   89.8982 C   0  0  0  0  0  0  0  0  0  0  0  0
   67.7876   77.6754   89.3374 C   0  0  0  0  0  0  0  0  0  0  0  0
   68.7157   78.6941   89.5493 C   0  0  0  0  0  0  0  0  0  0  0  0
   69.8574   78.4330   90.3275 C   0  0  0  0  0  0  0  0  0  0  0  0
   70.0768   77.1609   90.8930 C   0  0  0  0  0  0  0  0  0  0  0  0
   71.3196   76.9426   91.6791 C   0  0  0  0  0  0  0  0  0  0  0  0
   71.2616   76.8435   92.9349 O   0  0  0  0  0  0  0  0  0  0  0  0
   72.5624   76.8801   91.0556 O   0  0  0  0  0  0  0  0  0  0  0  0
   72.6230   76.9521   90.1234 H   0  0  0  0  0  0  0  0  0  0  0  0
   68.4846   81.1849   89.6750 C   0  0  0  0  0  0  0  0  0  0  0  0
   69.1180   82.2464   88.8091 C   0  0  0  0  0  0  0  0  0  0  0  0
   68.3406   82.8454   87.8022 C   0  0  0  0  0  0  0  0  0  0  0  0
   68.8760   83.8360   86.9799 C   0  0  0  0  0  0  0  0  0  0  0  0
   70.1941   84.2538   87.1485 C   0  0  0  0  0  0  0  0  0  0  0  0
   70.9925   83.6857   88.1501 C   0  0  0  0  0  0  0  0  0  0  0  0
   72.3174   84.1186   88.3187 C   0  0  0  0  0  0  0  0  0  0  0  0
   73.1173   83.5635   89.3179 C   0  0  0  0  0  0  0  0  0  0  0  0
   72.6044   82.5751   90.1571 C   0  0  0  0  0  0  0  0  0  0  0  0
   71.2887   82.1312   90.0029 C   0  0  0  0  0  0  0  0  0  0  0  0
   70.4602   82.6750   88.9967 C   0  0  0  0  0  0  0  0  0  0  0  0
  2  3  1  0  0  0
  3  4  2  0  0  0
  4  5  1  0  0  0
  5  6  2  0  0  0
  6  1  1  0  0  0
  1 13  1  0  0  0
 13 14  1  0  0  0
 14 15  2  0  0  0
 15 16  1  0  0  0
 16 17  2  0  0  0
 17 18  1  0  0  0
 18 19  2  0  0  0
 19 20  1  0  0  0
 20 21  2  0  0  0
 21 22  1  0  0  0
 22 23  2  0  0  0
  6  7  1  0  0  0
  7  8  2  0  0  0
  8  9  1  0  0  0
  9 10  2  0  0  0
  9 11  1  0  0  0
  8  3  1  0  0  0
 23 14  1  0  0  0
 23 18  1  0  0  0
 11 12  1  0  0  0
M  END
> <score>
0.632401

> <minimizedAffinity>
-8.08884

> <CNNscore>
0.7697510123

> <CNNaffinity>
5.6574401855

> <CNN_VS>
4.3548202515

$$$$
HIPS5027


 23 25  0  0  0  0  0  0  0  0999 V2000
   66.6993   77.5486   92.1787 O   0  0  0  0  0  0  0  0  0  0  0  0
   66.7810   73.6353   96.3627 C   0  0  0  0  0  0  0  0  0  0  0  0
   66.7975   74.6187   95.2213 C   0  0  0  0  0  0  0  0  0  0  0  0
   65.7670   75.5708   95.1461 C   0  0  0  0  0  0  0  0  0  0  0  0
   65.7516   76.5280   94.1331 C   0  0  0  0  0  0  0  0  0  0  0  0
   66.7595   76.5581   93.1702 C   0  0  0  0  0  0  0  0  0  0  0  0
   67.7899   75.6028   93.2235 C   0  0  0  0  0  0  0  0  0  0  0  0
   67.8176   74.6184   94.2316 C   0  0  0  0  0  0  0  0  0  0  0  0
   68.9180   73.6189   94.2123 C   0  0  0  0  0  0  0  0  0  0  0  0
   68.7463   72.5034   93.6497 O   0  0  0  0  0  0  0  0  0  0  0  0
   70.1338   73.8767   94.8389 O   0  0  0  0  0  0  0  0  0  0  0  0
   70.2776   74.7005   95.2616 H   0  0  0  0  0  0  0  0  0  0  0  0
   67.8359   78.1734   91.5873 C   0  0  0  0  0  0  0  0  0  0  0  0
   67.4844   78.6343   90.1938 C   0  0  0  0  0  0  0  0  0  0  0  0
   67.3816   80.0147   89.9476 C   0  0  0  0  0  0  0  0  0  0  0  0
   67.0666   80.4927   88.6763 C   0  0  0  0  0  0  0  0  0  0  0  0
   66.8540   79.6053   87.6238 C   0  0  0  0  0  0  0  0  0  0  0  0
   66.9602   78.2237   87.8323 C   0  0  0  0  0  0  0  0  0  0  0  0
   66.7526   77.3366   86.7642 C   0  0  0  0  0  0  0  0  0  0  0  0
   66.8631   75.9599   86.9611 C   0  0  0  0  0  0  0  0  0  0  0  0
   67.1823   75.4562   88.2216 C   0  0  0  0  0  0  0  0  0  0  0  0
   67.3910   76.3242   89.2963 C   0  0  0  0  0  0  0  0  0  0  0  0
   67.2813   77.7216   89.1232 C   0  0  0  0  0  0  0  0  0  0  0  0
  2  3  1  0  0  0
  3  4  2  0  0  0
  4  5  1  0  0  0
  5  6  2  0  0  0
  6  1  1  0  0  0
  1 13  1  0  0  0
 13 14  1  0  0  0
 14 15  2  0  0  0
 15 16  1  0  0  0
 16 17  2  0  0  0
 17 18  1  0  0  0
 18 19  2  0  0  0
 19 20  1  0  0  0
 20 21  2  0  0  0
 21 22  1  0  0  0
 22 23  2  0  0  0
  6  7  1  0  0  0
  7  8  2  0  0  0
  8  9  1  0  0  0
  9 10  2  0  0  0
  9 11  1  0  0  0
  8  3  1  0  0  0
 23 14  1  0  0  0
 23 18  1  0  0  0
 11 12  1  0  0  0
M  END
> <score>
0.632401

> <minimizedAffinity>
-7.24668

> <CNNscore>
0.7097453475

> <CNNaffinity>
5.5578832626

> <CNN_VS>
3.9446818829

$$$$
HIPS5027


 23 25  0  0  0  0  0  0  0  0999 V2000
   67.4547   77.6408   92.1380 O   0  0  0  0  0  0  0  0  0  0  0  0
   66.6553   73.7161   96.2350 C   0  0  0  0  0  0  0  0  0  0  0  0
   66.9122   74.7030   95.1258 C   0  0  0  0  0  0  0  0  0  0  0  0
   65.9128   75.6438   94.8252 C   0  0  0  0  0  0  0  0  0  0  0  0
   66.1105   76.6038   93.8343 C   0  0  0  0  0  0  0  0  0  0  0  0
   67.3058   76.6480   93.1178 C   0  0  0  0  0  0  0  0  0  0  0  0
   68.3100   75.7041   93.3970 C   0  0  0  0  0  0  0  0  0  0  0  0
   68.1257   74.7171   94.3859 C   0  0  0  0  0  0  0  0  0  0  0  0
   69.2147   73.7300   94.6098 C   0  0  0  0  0  0  0  0  0  0  0  0
   70.2085   74.0390   95.3220 O   0  0  0  0  0  0  0  0  0  0  0  0
   69.1775   72.4722   94.0153 O   0  0  0  0  0  0  0  0  0  0  0  0
   68.4464   72.2269   93.4831 H   0  0  0  0  0  0  0  0  0  0  0  0
   68.5273   77.7002   91.2011 C   0  0  0  0  0  0  0  0  0  0  0  0
   67.9663   77.8467   89.8076 C   0  0  0  0  0  0  0  0  0  0  0  0
   67.5425   76.6911   89.1280 C   0  0  0  0  0  0  0  0  0  0  0  0
   67.0104   76.7728   87.8418 C   0  0  0  0  0  0  0  0  0  0  0  0
   66.8840   78.0077   87.2099 C   0  0  0  0  0  0  0  0  0  0  0  0
   67.2860   79.1801   87.8637 C   0  0  0  0  0  0  0  0  0  0  0  0
   67.1474   80.4216   87.2228 C   0  0  0  0  0  0  0  0  0  0  0  0
   67.5384   81.5946   87.8689 C   0  0  0  0  0  0  0  0  0  0  0  0
   68.0687   81.5409   89.1574 C   0  0  0  0  0  0  0  0  0  0  0  0
   68.2150   80.3143   89.8098 C   0  0  0  0  0  0  0  0  0  0  0  0
   67.8299   79.1126   89.1756 C   0  0  0  0  0  0  0  0  0  0  0  0
  2  3  1  0  0  0
  3  4  2  0  0  0
  4  5  1  0  0  0
  5  6  2  0  0  0
  6  1  1  0  0  0
  1 13  1  0  0  0
 13 14  1  0  0  0
 14 15  2  0  0  0
 15 16  1  0  0  0
 16 17  2  0  0  0
 17 18  1  0  0  0
 18 19  2  0  0  0
 19 20  1  0  0  0
 20 21  2  0  0  0
 21 22  1  0  0  0
 22 23  2  0  0  0
  6  7  1  0  0  0
  7  8  2  0  0  0
  8  9  1  0  0  0
  9 10  2  0  0  0
  9 11  1  0  0  0
  8  3  1  0  0  0
 23 14  1  0  0  0
 23 18  1  0  0  0
 11 12  1  0  0  0
M  END
> <score>
0.632401

> <minimizedAffinity>
-7.29547

> <CNNscore>
0.6988610625

> <CNNaffinity>
5.4918069839

> <CNN_VS>
3.8380100727

$$$$
HIPS5028


 25 27  0  0  0  0  0  0  0  0999 V2000
   70.8762   77.5681   90.7203 C   0  0  0  0  0  0  0  0  0  0  0  0
   70.3394   78.7122   90.1034 C   0  0  0  0  0  0  0  0  0  0  0  0
   68.9486   78.9324   90.0797 C   0  0  0  0  0  0  0  0  0  0  0  0
   68.1000   77.9963   90.6759 C   0  0  0  0  0  0  0  0  0  0  0  0
   68.6198   76.8494   91.2770 C   0  0  0  0  0  0  0  0  0  0  0  0
   70.0022   76.6210   91.2941 C   0  0  0  0  0  0  0  0  0  0  0  0
   70.4986   75.4439   91.8539 O   0  0  0  0  0  0  0  0  0  0  0  0
   69.9103   74.8208   92.2327 H   0  0  0  0  0  0  0  0  0  0  0  0
   73.1198   77.5356   89.5370 N   0  0  0  0  0  0  0  0  0  0  0  0
   72.3447   77.3734   90.7268 C   0  0  0  0  0  0  0  0  0  0  0  0
   72.9220   77.0258   91.7920 O   0  0  0  0  0  0  0  0  0  0  0  0
   74.0948   77.4016   89.5627 H   0  0  0  0  0  0  0  0  0  0  0  0
   72.6788   77.7813   88.6918 H   0  0  0  0  0  0  0  0  0  0  0  0
   68.3703   80.0603   89.4726 O   0  0  0  0  0  0  0  0  0  0  0  0
   68.4713   81.4002   89.9609 C   0  0  0  0  0  0  0  0  0  0  0  0
   69.1000   82.3420   88.9461 C   0  0  0  0  0  0  0  0  0  0  0  0
   68.3062   82.8604   87.9033 C   0  0  0  0  0  0  0  0  0  0  0  0
   68.8509   83.7024   86.9359 C   0  0  0  0  0  0  0  0  0  0  0  0
   70.1921   84.0677   86.9967 C   0  0  0  0  0  0  0  0  0  0  0  0
   70.9998   83.6147   88.0471 C   0  0  0  0  0  0  0  0  0  0  0  0
   72.3431   84.0174   88.1159 C   0  0  0  0  0  0  0  0  0  0  0  0
   73.1501   83.5987   89.1731 C   0  0  0  0  0  0  0  0  0  0  0  0
   72.6242   82.7840   90.1740 C   0  0  0  0  0  0  0  0  0  0  0  0
   71.2910   82.3700   90.1200 C   0  0  0  0  0  0  0  0  0  0  0  0
   70.4571   82.7611   89.0479 C   0  0  0  0  0  0  0  0  0  0  0  0
  9 10  1  0  0  0
 10 11  2  0  0  0
 10  1  1  0  0  0
  1  2  2  0  0  0
  2  3  1  0  0  0
  3 14  1  0  0  0
 14 15  1  0  0  0
 15 16  1  0  0  0
 16 17  2  0  0  0
 17 18  1  0  0  0
 18 19  2  0  0  0
 19 20  1  0  0  0
 20 21  2  0  0  0
 21 22  1  0  0  0
 22 23  2  0  0  0
 23 24  1  0  0  0
 24 25  2  0  0  0
  3  4  2  0  0  0
  4  5  1  0  0  0
  5  6  2  0  0  0
  6  7  1  0  0  0
  6  1  1  0  0  0
 25 16  1  0  0  0
 25 20  1  0  0  0
  9 12  1  0  0  0
  9 13  1  0  0  0
  7  8  1  0  0  0
M  END
> <score>
1.153769

> <minimizedAffinity>
-7.65462

> <CNNscore>
0.7960247397

> <CNNaffinity>
5.6636791229

> <CNN_VS>
4.5084285736

$$$$
HIPS5028


 25 27  0  0  0  0  0  0  0  0999 V2000
   70.0347   76.8062   91.9243 C   0  0  0  0  0  0  0  0  0  0  0  0
   68.9748   77.1320   91.0594 C   0  0  0  0  0  0  0  0  0  0  0  0
   69.2045   77.8794   89.8880 C   0  0  0  0  0  0  0  0  0  0  0  0
   70.5032   78.3004   89.5918 C   0  0  0  0  0  0  0  0  0  0  0  0
   71.5603   77.9970   90.4504 C   0  0  0  0  0  0  0  0  0  0  0  0
   71.3350   77.2623   91.6221 C   0  0  0  0  0  0  0  0  0  0  0  0
   72.3953   77.0136   92.4935 O   0  0  0  0  0  0  0  0  0  0  0  0
   73.2555   77.3205   92.2843 H   0  0  0  0  0  0  0  0  0  0  0  0
   68.9658   76.5523   94.2108 N   0  0  0  0  0  0  0  0  0  0  0  0
   69.7531   76.0161   93.1453 C   0  0  0  0  0  0  0  0  0  0  0  0
   70.2425   74.8607   93.2660 O   0  0  0  0  0  0  0  0  0  0  0  0
   68.7902   76.0106   95.0139 H   0  0  0  0  0  0  0  0  0  0  0  0
   68.5990   77.4633   94.1417 H   0  0  0  0  0  0  0  0  0  0  0  0
   68.1744   78.2284   88.9978 O   0  0  0  0  0  0  0  0  0  0  0  0
   67.7303   79.5618   88.7357 C   0  0  0  0  0  0  0  0  0  0  0  0
   67.5919   80.3877   90.0049 C   0  0  0  0  0  0  0  0  0  0  0  0
   66.5615   80.0821   90.9167 C   0  0  0  0  0  0  0  0  0  0  0  0
   66.3820   80.8332   92.0764 C   0  0  0  0  0  0  0  0  0  0  0  0
   67.2377   81.8907   92.3684 C   0  0  0  0  0  0  0  0  0  0  0  0
   68.3047   82.1918   91.5129 C   0  0  0  0  0  0  0  0  0  0  0  0
   69.1813   83.2401   91.8356 C   0  0  0  0  0  0  0  0  0  0  0  0
   70.2656   83.5306   91.0086 C   0  0  0  0  0  0  0  0  0  0  0  0
   70.4908   82.7747   89.8596 C   0  0  0  0  0  0  0  0  0  0  0  0
   69.6268   81.7306   89.5204 C   0  0  0  0  0  0  0  0  0  0  0  0
   68.5072   81.4293   90.3288 C   0  0  0  0  0  0  0  0  0  0  0  0
  9 10  1  0  0  0
 10 11  2  0  0  0
 10  1  1  0  0  0
  1  2  2  0  0  0
  2  3  1  0  0  0
  3 14  1  0  0  0
 14 15  1  0  0  0
 15 16  1  0  0  0
 16 17  2  0  0  0
 17 18  1  0  0  0
 18 19  2  0  0  0
 19 20  1  0  0  0
 20 21  2  0  0  0
 21 22  1  0  0  0
 22 23  2  0  0  0
 23 24  1  0  0  0
 24 25  2  0  0  0
  3  4  2  0  0  0
  4  5  1  0  0  0
  5  6  2  0  0  0
  6  7  1  0  0  0
  6  1  1  0  0  0
 25 16  1  0  0  0
 25 20  1  0  0  0
  9 12  1  0  0  0
  9 13  1  0  0  0
  7  8  1  0  0  0
M  END
> <score>
1.153769

> <minimizedAffinity>
-6.54792

> <CNNscore>
0.7144269347

> <CNNaffinity>
5.5274543762

> <CNN_VS>
3.9489622116

$$$$
HIPS5028


 25 27  0  0  0  0  0  0  0  0999 V2000
   69.8083   76.8617   91.9840 C   0  0  0  0  0  0  0  0  0  0  0  0
   68.5890   77.3531   91.4844 C   0  0  0  0  0  0  0  0  0  0  0  0
   68.5605   78.2030   90.3618 C   0  0  0  0  0  0  0  0  0  0  0  0
   69.7629   78.5593   89.7459 C   0  0  0  0  0  0  0  0  0  0  0  0
   70.9799   78.0910   90.2421 C   0  0  0  0  0  0  0  0  0  0  0  0
   71.0139   77.2533   91.3649 C   0  0  0  0  0  0  0  0  0  0  0  0
   72.2430   76.8377   91.8769 O   0  0  0  0  0  0  0  0  0  0  0  0
   73.0385   77.1029   91.4589 H   0  0  0  0  0  0  0  0  0  0  0  0
   69.3418   76.4282   94.4395 N   0  0  0  0  0  0  0  0  0  0  0  0
   69.7965   75.9679   93.1652 C   0  0  0  0  0  0  0  0  0  0  0  0
   70.2258   74.7876   93.0572 O   0  0  0  0  0  0  0  0  0  0  0  0
   69.3420   75.8180   95.2121 H   0  0  0  0  0  0  0  0  0  0  0  0
   69.0283   77.3555   94.5448 H   0  0  0  0  0  0  0  0  0  0  0  0
   67.3652   78.7180   89.8315 O   0  0  0  0  0  0  0  0  0  0  0  0
   67.2788   79.7707   88.8680 C   0  0  0  0  0  0  0  0  0  0  0  0
   67.1927   81.1441   89.5150 C   0  0  0  0  0  0  0  0  0  0  0  0
   66.9458   81.2392   90.8993 C   0  0  0  0  0  0  0  0  0  0  0  0
   66.8298   82.4787   91.5251 C   0  0  0  0  0  0  0  0  0  0  0  0
   66.9805   83.6524   90.7932 C   0  0  0  0  0  0  0  0  0  0  0  0
   67.2782   83.5981   89.4260 C   0  0  0  0  0  0  0  0  0  0  0  0
   67.4609   84.7892   88.7054 C   0  0  0  0  0  0  0  0  0  0  0  0
   67.7881   84.7490   87.3506 C   0  0  0  0  0  0  0  0  0  0  0  0
   67.9445   83.5238   86.7052 C   0  0  0  0  0  0  0  0  0  0  0  0
   67.7624   82.3284   87.4050 C   0  0  0  0  0  0  0  0  0  0  0  0
   67.4083   82.3404   88.7733 C   0  0  0  0  0  0  0  0  0  0  0  0
  9 10  1  0  0  0
 10 11  2  0  0  0
 10  1  1  0  0  0
  1  2  2  0  0  0
  2  3  1  0  0  0
  3 14  1  0  0  0
 14 15  1  0  0  0
 15 16  1  0  0  0
 16 17  2  0  0  0
 17 18  1  0  0  0
 18 19  2  0  0  0
 19 20  1  0  0  0
 20 21  2  0  0  0
 21 22  1  0  0  0
 22 23  2  0  0  0
 23 24  1  0  0  0
 24 25  2  0  0  0
  3  4  2  0  0  0
  4  5  1  0  0  0
  5  6  2  0  0  0
  6  7  1  0  0  0
  6  1  1  0  0  0
 25 16  1  0  0  0
 25 20  1  0  0  0
  9 12  1  0  0  0
  9 13  1  0  0  0
  7  8  1  0  0  0
M  END
> <score>
1.153769

> <minimizedAffinity>
-6.83780

> <CNNscore>
0.7027425766

> <CNNaffinity>
5.3662700653

> <CNN_VS>
3.7711064816

$$$$
HIPS5029


 31 33  0  0  0  0  0  0  0  0999 V2000
   69.6640   77.0732   90.8907 C   0  0  0  0  0  0  0  0  0  0  0  0
   68.3653   77.5999   90.7971 C   0  0  0  0  0  0  0  0  0  0  0  0
   68.1612   78.9393   90.4677 C   0  0  0  0  0  0  0  0  0  0  0  0
   69.2453   79.7862   90.2381 C   0  0  0  0  0  0  0  0  0  0  0  0
   70.5508   79.2719   90.3375 C   0  0  0  0  0  0  0  0  0  0  0  0
   70.7751   77.9175   90.6492 C   0  0  0  0  0  0  0  0  0  0  0  0
   69.9596   75.3573   92.7228 C   0  0  0  0  0  0  0  0  0  0  0  0
   69.7333   76.2102   93.6234 O   0  0  0  0  0  0  0  0  0  0  0  0
   69.8453   75.7198   91.3409 N   0  0  0  0  0  0  0  0  0  0  0  0
   69.8935   75.0054   90.6652 H   0  0  0  0  0  0  0  0  0  0  0  0
   70.3122   74.0391   93.0478 O   0  0  0  0  0  0  0  0  0  0  0  0
   69.6659   73.2172   95.1986 C   0  0  0  0  0  0  0  0  0  0  0  0
   69.4702   73.0656   93.6826 C   0  0  0  0  0  0  0  0  0  0  0  0
   69.8786   71.6393   93.2678 C   0  0  0  0  0  0  0  0  0  0  0  0
   67.9901   73.3256   93.3431 C   0  0  0  0  0  0  0  0  0  0  0  0
   72.1698   77.4088   90.6744 C   0  0  0  0  0  0  0  0  0  0  0  0
   72.6401   76.9003   91.7288 O   0  0  0  0  0  0  0  0  0  0  0  0
   72.9883   77.5204   89.5543 O   0  0  0  0  0  0  0  0  0  0  0  0
   72.6526   77.8960   88.7643 H   0  0  0  0  0  0  0  0  0  0  0  0
   68.9827   81.1273   89.9142 O   0  0  0  0  0  0  0  0  0  0  0  0
   69.4578   82.2585   90.6461 C   0  0  0  0  0  0  0  0  0  0  0  0
   70.5462   82.9804   89.8705 C   0  0  0  0  0  0  0  0  0  0  0  0
   71.8768   82.6554   90.1911 C   0  0  0  0  0  0  0  0  0  0  0  0
   72.9451   83.2959   89.5696 C   0  0  0  0  0  0  0  0  0  0  0  0
   72.7136   84.2708   88.6055 C   0  0  0  0  0  0  0  0  0  0  0  0
   71.4036   84.5989   88.2329 C   0  0  0  0  0  0  0  0  0  0  0  0
   71.1891   85.5732   87.2446 C   0  0  0  0  0  0  0  0  0  0  0  0
   69.8953   85.9013   86.8473 C   0  0  0  0  0  0  0  0  0  0  0  0
   68.8045   85.2548   87.4222 C   0  0  0  0  0  0  0  0  0  0  0  0
   68.9957   84.2820   88.4065 C   0  0  0  0  0  0  0  0  0  0  0  0
   70.2973   83.9439   88.8471 C   0  0  0  0  0  0  0  0  0  0  0  0
 12 13  1  0  0  0
 13 14  1  0  0  0
 13 15  1  0  0  0
 13 11  1  0  0  0
 11  7  1  0  0  0
  7  8  2  0  0  0
  7  9  1  0  0  0
  9  1  1  0  0  0
  1  2  2  0  0  0
  2  3  1  0  0  0
  3  4  2  0  0  0
  4 20  1  0  0  0
 20 21  1  0  0  0
 21 22  1  0  0  0
 22 23  2  0  0  0
 23 24  1  0  0  0
 24 25  2  0  0  0
 25 26  1  0  0  0
 26 27  2  0  0  0
 27 28  1  0  0  0
 28 29  2  0  0  0
 29 30  1  0  0  0
 30 31  2  0  0  0
  4  5  1  0  0  0
  5  6  2  0  0  0
  6 16  1  0  0  0
 16 17  2  0  0  0
 16 18  1  0  0  0
  6  1  1  0  0  0
 31 22  1  0  0  0
 31 26  1  0  0  0
  9 10  1  0  0  0
 18 19  1  0  0  0
M  END
> <score>
1.153769

> <minimizedAffinity>
-8.76087

> <CNNscore>
0.5584303737

> <CNNaffinity>
5.9472036362

> <CNN_VS>
3.3210990429

$$$$
HIPS5029


 31 33  0  0  0  0  0  0  0  0999 V2000
   68.6408   77.3738   91.1151 C   0  0  0  0  0  0  0  0  0  0  0  0
   69.3491   77.6088   89.9252 C   0  0  0  0  0  0  0  0  0  0  0  0
   69.1375   78.7730   89.1876 C   0  0  0  0  0  0  0  0  0  0  0  0
   68.2068   79.7215   89.6112 C   0  0  0  0  0  0  0  0  0  0  0  0
   67.4853   79.4929   90.7968 C   0  0  0  0  0  0  0  0  0  0  0  0
   67.7005   78.3327   91.5647 C   0  0  0  0  0  0  0  0  0  0  0  0
   69.9192   75.8067   92.6310 C   0  0  0  0  0  0  0  0  0  0  0  0
   70.7437   76.7073   92.9455 O   0  0  0  0  0  0  0  0  0  0  0  0
   68.7984   76.1156   91.7929 N   0  0  0  0  0  0  0  0  0  0  0  0
   68.1006   75.4312   91.6753 H   0  0  0  0  0  0  0  0  0  0  0  0
   70.0687   74.4937   93.1011 O   0  0  0  0  0  0  0  0  0  0  0  0
   70.0711   72.7970   94.7865 C   0  0  0  0  0  0  0  0  0  0  0  0
   69.2092   73.8210   94.0329 C   0  0  0  0  0  0  0  0  0  0  0  0
   68.0820   73.0755   93.2935 C   0  0  0  0  0  0  0  0  0  0  0  0
   68.6224   74.8208   95.0478 C   0  0  0  0  0  0  0  0  0  0  0  0
   66.9630   78.1720   92.8433 C   0  0  0  0  0  0  0  0  0  0  0  0
   66.8670   79.1405   93.6458 O   0  0  0  0  0  0  0  0  0  0  0  0
   66.4035   76.9465   93.1928 O   0  0  0  0  0  0  0  0  0  0  0  0
   66.4672   76.2182   92.6067 H   0  0  0  0  0  0  0  0  0  0  0  0
   68.0303   80.8737   88.8278 O   0  0  0  0  0  0  0  0  0  0  0  0
   67.9918   82.2110   89.3287 C   0  0  0  0  0  0  0  0  0  0  0  0
   68.9486   83.1013   88.5548 C   0  0  0  0  0  0  0  0  0  0  0  0
   68.4025   83.8555   87.5002 C   0  0  0  0  0  0  0  0  0  0  0  0
   69.2054   84.6654   86.7020 C   0  0  0  0  0  0  0  0  0  0  0  0
   70.5724   84.7510   86.9409 C   0  0  0  0  0  0  0  0  0  0  0  0
   71.1498   84.0428   88.0028 C   0  0  0  0  0  0  0  0  0  0  0  0
   72.5293   84.1554   88.2402 C   0  0  0  0  0  0  0  0  0  0  0  0
   73.1198   83.4735   89.3012 C   0  0  0  0  0  0  0  0  0  0  0  0
   72.3409   82.6829   90.1416 C   0  0  0  0  0  0  0  0  0  0  0  0
   70.9666   82.5578   89.9237 C   0  0  0  0  0  0  0  0  0  0  0  0
   70.3423   83.2201   88.8400 C   0  0  0  0  0  0  0  0  0  0  0  0
 12 13  1  0  0  0
 13 14  1  0  0  0
 13 15  1  0  0  0
 13 11  1  0  0  0
 11  7  1  0  0  0
  7  8  2  0  0  0
  7  9  1  0  0  0
  9  1  1  0  0  0
  1  2  2  0  0  0
  2  3  1  0  0  0
  3  4  2  0  0  0
  4 20  1  0  0  0
 20 21  1  0  0  0
 21 22  1  0  0  0
 22 23  2  0  0  0
 23 24  1  0  0  0
 24 25  2  0  0  0
 25 26  1  0  0  0
 26 27  2  0  0  0
 27 28  1  0  0  0
 28 29  2  0  0  0
 29 30  1  0  0  0
 30 31  2  0  0  0
  4  5  1  0  0  0
  5  6  2  0  0  0
  6 16  1  0  0  0
 16 17  2  0  0  0
 16 18  1  0  0  0
  6  1  1  0  0  0
 31 22  1  0  0  0
 31 26  1  0  0  0
  9 10  1  0  0  0
 18 19  1  0  0  0
M  END
> <score>
1.153769

> <minimizedAffinity>
-8.21708

> <CNNscore>
0.4867980182

> <CNNaffinity>
5.9170570374

> <CNN_VS>
2.8804116249

$$$$
HIPS5029


 31 33  0  0  0  0  0  0  0  0999 V2000
   69.4369   76.7403   90.7130 C   0  0  0  0  0  0  0  0  0  0  0  0
   68.1005   76.9692   90.3466 C   0  0  0  0  0  0  0  0  0  0  0  0
   67.7130   78.1861   89.7869 C   0  0  0  0  0  0  0  0  0  0  0  0
   68.6445   79.2058   89.5926 C   0  0  0  0  0  0  0  0  0  0  0  0
   69.9843   78.9911   89.9638 C   0  0  0  0  0  0  0  0  0  0  0  0
   70.3971   77.7617   90.5115 C   0  0  0  0  0  0  0  0  0  0  0  0
   69.7198   75.3619   92.8126 C   0  0  0  0  0  0  0  0  0  0  0  0
   69.1862   76.2535   93.5268 O   0  0  0  0  0  0  0  0  0  0  0  0
   69.7836   75.5199   91.3895 N   0  0  0  0  0  0  0  0  0  0  0  0
   70.0800   74.7535   90.8474 H   0  0  0  0  0  0  0  0  0  0  0  0
   70.2475   74.1959   93.3864 O   0  0  0  0  0  0  0  0  0  0  0  0
   70.4242   71.8948   94.0134 C   0  0  0  0  0  0  0  0  0  0  0  0
   69.4969   73.1184   93.9656 C   0  0  0  0  0  0  0  0  0  0  0  0
   68.2705   72.7805   93.0968 C   0  0  0  0  0  0  0  0  0  0  0  0
   69.0631   73.4708   95.4014 C   0  0  0  0  0  0  0  0  0  0  0  0
   71.8351   77.5620   90.8226 C   0  0  0  0  0  0  0  0  0  0  0  0
   72.6993   77.6464   89.9075 O   0  0  0  0  0  0  0  0  0  0  0  0
   72.2461   77.2413   92.1130 O   0  0  0  0  0  0  0  0  0  0  0  0
   71.6154   77.1751   92.8028 H   0  0  0  0  0  0  0  0  0  0  0  0
   68.1992   80.4128   89.0293 O   0  0  0  0  0  0  0  0  0  0  0  0
   68.3020   81.6965   89.6477 C   0  0  0  0  0  0  0  0  0  0  0  0
   69.0676   82.6606   88.7580 C   0  0  0  0  0  0  0  0  0  0  0  0
   68.3470   83.2724   87.7161 C   0  0  0  0  0  0  0  0  0  0  0  0
   68.9699   84.1349   86.8185 C   0  0  0  0  0  0  0  0  0  0  0  0
   70.3258   84.4166   86.9424 C   0  0  0  0  0  0  0  0  0  0  0  0
   71.0715   83.8549   87.9869 C   0  0  0  0  0  0  0  0  0  0  0  0
   72.4359   84.1647   88.1071 C   0  0  0  0  0  0  0  0  0  0  0  0
   73.1908   83.6308   89.1484 C   0  0  0  0  0  0  0  0  0  0  0  0
   72.5920   82.7930   90.0853 C   0  0  0  0  0  0  0  0  0  0  0  0
   71.2359   82.4725   89.9846 C   0  0  0  0  0  0  0  0  0  0  0  0
   70.4486   82.9813   88.9244 C   0  0  0  0  0  0  0  0  0  0  0  0
 12 13  1  0  0  0
 13 14  1  0  0  0
 13 15  1  0  0  0
 13 11  1  0  0  0
 11  7  1  0  0  0
  7  8  2  0  0  0
  7  9  1  0  0  0
  9  1  1  0  0  0
  1  2  2  0  0  0
  2  3  1  0  0  0
  3  4  2  0  0  0
  4 20  1  0  0  0
 20 21  1  0  0  0
 21 22  1  0  0  0
 22 23  2  0  0  0
 23 24  1  0  0  0
 24 25  2  0  0  0
 25 26  1  0  0  0
 26 27  2  0  0  0
 27 28  1  0  0  0
 28 29  2  0  0  0
 29 30  1  0  0  0
 30 31  2  0  0  0
  4  5  1  0  0  0
  5  6  2  0  0  0
  6 16  1  0  0  0
 16 17  2  0  0  0
 16 18  1  0  0  0
  6  1  1  0  0  0
 31 22  1  0  0  0
 31 26  1  0  0  0
  9 10  1  0  0  0
 18 19  1  0  0  0
M  END
> <score>
1.153769

> <minimizedAffinity>
-8.76759

> <CNNscore>
0.4380901158

> <CNNaffinity>
5.8591241837

> <CNN_VS>
2.5668244362

$$$$
HIPS5030


 24 26  0  0  0  0  0  0  0  0999 V2000
   68.5491   75.5531   90.9144 C   0  0  0  0  0  0  0  0  0  0  0  0
   67.6321   75.8072   89.8756 C   0  0  0  0  0  0  0  0  0  0  0  0
   67.6055   77.0469   89.2365 C   0  0  0  0  0  0  0  0  0  0  0  0
   68.4888   78.0581   89.6130 C   0  0  0  0  0  0  0  0  0  0  0  0
   69.3974   77.8210   90.6590 C   0  0  0  0  0  0  0  0  0  0  0  0
   69.4423   76.5765   91.3155 C   0  0  0  0  0  0  0  0  0  0  0  0
   70.4250   76.3792   92.4145 C   0  0  0  0  0  0  0  0  0  0  0  0
   71.5882   76.8602   92.3413 O   0  0  0  0  0  0  0  0  0  0  0  0
   70.0670   75.6532   93.5480 O   0  0  0  0  0  0  0  0  0  0  0  0
   69.2067   75.2888   93.6186 H   0  0  0  0  0  0  0  0  0  0  0  0
   68.8385   73.0626   90.8950 C   0  0  0  0  0  0  0  0  0  0  0  0
   68.5957   74.3025   91.5534 O   0  0  0  0  0  0  0  0  0  0  0  0
   68.4297   79.2814   88.9253 O   0  0  0  0  0  0  0  0  0  0  0  0
   68.1074   80.5410   89.5180 C   0  0  0  0  0  0  0  0  0  0  0  0
   69.2155   81.5479   89.2631 C   0  0  0  0  0  0  0  0  0  0  0  0
   70.4248   81.3454   89.9533 C   0  0  0  0  0  0  0  0  0  0  0  0
   71.4920   82.2286   89.8125 C   0  0  0  0  0  0  0  0  0  0  0  0
   71.3869   83.3274   88.9664 C   0  0  0  0  0  0  0  0  0  0  0  0
   70.2104   83.5480   88.2383 C   0  0  0  0  0  0  0  0  0  0  0  0
   70.1293   84.6540   87.3778 C   0  0  0  0  0  0  0  0  0  0  0  0
   68.9710   84.8886   86.6409 C   0  0  0  0  0  0  0  0  0  0  0  0
   67.8871   84.0201   86.7475 C   0  0  0  0  0  0  0  0  0  0  0  0
   67.9497   82.9112   87.5949 C   0  0  0  0  0  0  0  0  0  0  0  0
   69.1071   82.6547   88.3678 C   0  0  0  0  0  0  0  0  0  0  0  0
 11 12  1  0  0  0
 12  1  1  0  0  0
  1  2  2  0  0  0
  2  3  1  0  0  0
  3  4  2  0  0  0
  4 13  1  0  0  0
 13 14  1  0  0  0
 14 15  1  0  0  0
 15 16  2  0  0  0
 16 17  1  0  0  0
 17 18  2  0  0  0
 18 19  1  0  0  0
 19 20  2  0  0  0
 20 21  1  0  0  0
 21 22  2  0  0  0
 22 23  1  0  0  0
 23 24  2  0  0  0
  4  5  1  0  0  0
  5  6  2  0  0  0
  6  7  1  0  0  0
  7  8  2  0  0  0
  7  9  1  0  0  0
  6  1  1  0  0  0
 24 15  1  0  0  0
 24 19  1  0  0  0
  9 10  1  0  0  0
M  END
> <score>
1.153769

> <minimizedAffinity>
-7.20887

> <CNNscore>
0.8212897778

> <CNNaffinity>
5.6640777588

> <CNN_VS>
4.6518492699

$$$$
HIPS5030


 24 26  0  0  0  0  0  0  0  0999 V2000
   67.0344   74.8498   94.4569 C   0  0  0  0  0  0  0  0  0  0  0  0
   65.8392   75.5891   94.3593 C   0  0  0  0  0  0  0  0  0  0  0  0
   65.8036   76.7963   93.6610 C   0  0  0  0  0  0  0  0  0  0  0  0
   66.9512   77.2928   93.0439 C   0  0  0  0  0  0  0  0  0  0  0  0
   68.1531   76.5714   93.1482 C   0  0  0  0  0  0  0  0  0  0  0  0
   68.2102   75.3502   93.8462 C   0  0  0  0  0  0  0  0  0  0  0  0
   69.5078   74.6271   93.9236 C   0  0  0  0  0  0  0  0  0  0  0  0
   70.1855   74.3939   92.8862 O   0  0  0  0  0  0  0  0  0  0  0  0
   69.9931   74.1955   95.1557 O   0  0  0  0  0  0  0  0  0  0  0  0
   69.5021   74.3605   95.9365 H   0  0  0  0  0  0  0  0  0  0  0  0
   66.9271   73.4774   96.5526 C   0  0  0  0  0  0  0  0  0  0  0  0
   67.0774   73.6245   95.1435 O   0  0  0  0  0  0  0  0  0  0  0  0
   66.8552   78.5048   92.3404 O   0  0  0  0  0  0  0  0  0  0  0  0
   67.9003   79.0833   91.5564 C   0  0  0  0  0  0  0  0  0  0  0  0
   67.4391   79.2893   90.1241 C   0  0  0  0  0  0  0  0  0  0  0  0
   67.1811   80.6144   89.7274 C   0  0  0  0  0  0  0  0  0  0  0  0
   66.7249   80.9072   88.4448 C   0  0  0  0  0  0  0  0  0  0  0  0
   66.5307   79.8876   87.5190 C   0  0  0  0  0  0  0  0  0  0  0  0
   66.8046   78.5579   87.8651 C   0  0  0  0  0  0  0  0  0  0  0  0
   66.6170   77.5447   86.9120 C   0  0  0  0  0  0  0  0  0  0  0  0
   66.8885   76.2172   87.2337 C   0  0  0  0  0  0  0  0  0  0  0  0
   67.3569   75.8876   88.5034 C   0  0  0  0  0  0  0  0  0  0  0  0
   67.5546   76.8819   89.4647 C   0  0  0  0  0  0  0  0  0  0  0  0
   67.2733   78.2378   89.1727 C   0  0  0  0  0  0  0  0  0  0  0  0
 11 12  1  0  0  0
 12  1  1  0  0  0
  1  2  2  0  0  0
  2  3  1  0  0  0
  3  4  2  0  0  0
  4 13  1  0  0  0
 13 14  1  0  0  0
 14 15  1  0  0  0
 15 16  2  0  0  0
 16 17  1  0  0  0
 17 18  2  0  0  0
 18 19  1  0  0  0
 19 20  2  0  0  0
 20 21  1  0  0  0
 21 22  2  0  0  0
 22 23  1  0  0  0
 23 24  2  0  0  0
  4  5  1  0  0  0
  5  6  2  0  0  0
  6  7  1  0  0  0
  7  8  2  0  0  0
  7  9  1  0  0  0
  6  1  1  0  0  0
 24 15  1  0  0  0
 24 19  1  0  0  0
  9 10  1  0  0  0
M  END
> <score>
1.153769

> <minimizedAffinity>
-6.72703

> <CNNscore>
0.7675588131

> <CNNaffinity>
5.7207975388

> <CNN_VS>
4.3910484314

$$$$
HIPS5030


 24 26  0  0  0  0  0  0  0  0999 V2000
   68.5014   76.1503   90.3035 C   0  0  0  0  0  0  0  0  0  0  0  0
   68.1414   77.1269   89.3541 C   0  0  0  0  0  0  0  0  0  0  0  0
   68.8442   78.3287   89.2672 C   0  0  0  0  0  0  0  0  0  0  0  0
   69.9190   78.5850   90.1178 C   0  0  0  0  0  0  0  0  0  0  0  0
   70.2770   77.6244   91.0795 C   0  0  0  0  0  0  0  0  0  0  0  0
   69.5825   76.4043   91.1825 C   0  0  0  0  0  0  0  0  0  0  0  0
   70.0048   75.4224   92.2170 C   0  0  0  0  0  0  0  0  0  0  0  0
   70.1031   75.7560   93.4290 O   0  0  0  0  0  0  0  0  0  0  0  0
   70.2994   74.1104   91.8541 O   0  0  0  0  0  0  0  0  0  0  0  0
   70.2316   73.8457   90.9578 H   0  0  0  0  0  0  0  0  0  0  0  0
   67.4176   74.1393   89.2699 C   0  0  0  0  0  0  0  0  0  0  0  0
   67.8109   74.9294   90.3884 O   0  0  0  0  0  0  0  0  0  0  0  0
   70.6017   79.8044   89.9763 O   0  0  0  0  0  0  0  0  0  0  0  0
   70.0189   81.0966   90.1560 C   0  0  0  0  0  0  0  0  0  0  0  0
   70.9186   82.1718   89.5722 C   0  0  0  0  0  0  0  0  0  0  0  0
   72.2290   82.2441   90.0798 C   0  0  0  0  0  0  0  0  0  0  0  0
   73.1230   83.2135   89.6329 C   0  0  0  0  0  0  0  0  0  0  0  0
   72.7388   84.1254   88.6555 C   0  0  0  0  0  0  0  0  0  0  0  0
   71.4527   84.0683   88.1029 C   0  0  0  0  0  0  0  0  0  0  0  0
   71.0889   84.9876   87.1065 C   0  0  0  0  0  0  0  0  0  0  0  0
   69.8174   84.9448   86.5401 C   0  0  0  0  0  0  0  0  0  0  0  0
   68.9000   83.9818   86.9541 C   0  0  0  0  0  0  0  0  0  0  0  0
   69.2442   83.0550   87.9411 C   0  0  0  0  0  0  0  0  0  0  0  0
   70.5233   83.0826   88.5462 C   0  0  0  0  0  0  0  0  0  0  0  0
 11 12  1  0  0  0
 12  1  1  0  0  0
  1  2  2  0  0  0
  2  3  1  0  0  0
  3  4  2  0  0  0
  4 13  1  0  0  0
 13 14  1  0  0  0
 14 15  1  0  0  0
 15 16  2  0  0  0
 16 17  1  0  0  0
 17 18  2  0  0  0
 18 19  1  0  0  0
 19 20  2  0  0  0
 20 21  1  0  0  0
 21 22  2  0  0  0
 22 23  1  0  0  0
 23 24  2  0  0  0
  4  5  1  0  0  0
  5  6  2  0  0  0
  6  7  1  0  0  0
  7  8  2  0  0  0
  7  9  1  0  0  0
  6  1  1  0  0  0
 24 15  1  0  0  0
 24 19  1  0  0  0
  9 10  1  0  0  0
M  END
> <score>
1.153769

> <minimizedAffinity>
-8.05469

> <CNNscore>
0.7289738655

> <CNNaffinity>
5.4879140854

> <CNN_VS>
4.0005459785

$$$$
HIPS5031


 25 27  0  0  0  0  0  0  0  0999 V2000
   68.0690   79.0963   89.2919 O   0  0  0  0  0  0  0  0  0  0  0  0
   69.3179   76.0661   91.0231 C   0  0  0  0  0  0  0  0  0  0  0  0
   69.1520   77.3985   90.6059 C   0  0  0  0  0  0  0  0  0  0  0  0
   68.1981   77.7424   89.6406 C   0  0  0  0  0  0  0  0  0  0  0  0
   67.4119   76.7291   89.0632 C   0  0  0  0  0  0  0  0  0  0  0  0
   67.5805   75.4010   89.4550 C   0  0  0  0  0  0  0  0  0  0  0  0
   68.5372   75.0530   90.4151 C   0  0  0  0  0  0  0  0  0  0  0  0
   68.6997   73.6975   90.7148 O   0  0  0  0  0  0  0  0  0  0  0  0
   68.1635   73.0564   90.2911 H   0  0  0  0  0  0  0  0  0  0  0  0
   71.1953   76.5787   92.3864 O   0  0  0  0  0  0  0  0  0  0  0  0
   70.2584   75.7800   92.1291 C   0  0  0  0  0  0  0  0  0  0  0  0
   70.1568   74.6027   92.8661 O   0  0  0  0  0  0  0  0  0  0  0  0
   69.4650   73.9965   92.6876 H   0  0  0  0  0  0  0  0  0  0  0  0
   68.4640   80.2011   90.1058 C   0  0  0  0  0  0  0  0  0  0  0  0
   68.8576   81.3860   89.2482 C   0  0  0  0  0  0  0  0  0  0  0  0
   67.9263   81.8791   88.3233 C   0  0  0  0  0  0  0  0  0  0  0  0
   68.2178   82.9912   87.5396 C   0  0  0  0  0  0  0  0  0  0  0  0
   69.4453   83.6417   87.6523 C   0  0  0  0  0  0  0  0  0  0  0  0
   69.7348   85.1675   86.5201 Br  0  0  0  0  0  0  0  0  0  0  0  0
   70.4127   83.1662   88.5643 C   0  0  0  0  0  0  0  0  0  0  0  0
   71.6607   83.8062   88.7000 C   0  0  0  0  0  0  0  0  0  0  0  0
   72.6117   83.3252   89.5987 C   0  0  0  0  0  0  0  0  0  0  0  0
   72.3417   82.1982   90.3676 C   0  0  0  0  0  0  0  0  0  0  0  0
   71.1147   81.5459   90.2529 C   0  0  0  0  0  0  0  0  0  0  0  0
   70.1248   82.0204   89.3635 C   0  0  0  0  0  0  0  0  0  0  0  0
 10 11  2  0  0  0
 11 12  1  0  0  0
 11  2  1  0  0  0
  2  3  2  0  0  0
  3  4  1  0  0  0
  4  1  1  0  0  0
  1 14  1  0  0  0
 14 15  1  0  0  0
 15 16  2  0  0  0
 16 17  1  0  0  0
 17 18  2  0  0  0
 18 19  1  0  0  0
 18 20  1  0  0  0
 20 21  2  0  0  0
 21 22  1  0  0  0
 22 23  2  0  0  0
 23 24  1  0  0  0
 24 25  2  0  0  0
  4  5  2  0  0  0
  5  6  1  0  0  0
  6  7  2  0  0  0
  7  8  1  0  0  0
  7  2  1  0  0  0
 25 15  1  0  0  0
 25 20  1  0  0  0
 12 13  1  0  0  0
  8  9  1  0  0  0
M  END
> <score>
-0.584178

> <minimizedAffinity>
-7.97594

> <CNNscore>
0.8186848164

> <CNNaffinity>
5.7401723862

> <CNN_VS>
4.6993918419

$$$$
HIPS5031


 25 27  0  0  0  0  0  0  0  0999 V2000
   68.0855   79.0547   88.9622 O   0  0  0  0  0  0  0  0  0  0  0  0
   69.3940   76.2159   90.9540 C   0  0  0  0  0  0  0  0  0  0  0  0
   69.2099   77.4997   90.4113 C   0  0  0  0  0  0  0  0  0  0  0  0
   68.2314   77.7425   89.4398 C   0  0  0  0  0  0  0  0  0  0  0  0
   67.4386   76.6739   88.9842 C   0  0  0  0  0  0  0  0  0  0  0  0
   67.6248   75.3918   89.5012 C   0  0  0  0  0  0  0  0  0  0  0  0
   68.6059   75.1443   90.4678 C   0  0  0  0  0  0  0  0  0  0  0  0
   68.7841   73.8258   90.8961 O   0  0  0  0  0  0  0  0  0  0  0  0
   68.2423   73.1438   90.5507 H   0  0  0  0  0  0  0  0  0  0  0  0
   71.4453   76.6832   92.0584 O   0  0  0  0  0  0  0  0  0  0  0  0
   70.3619   76.0444   92.0602 C   0  0  0  0  0  0  0  0  0  0  0  0
   70.1169   75.1385   93.0892 O   0  0  0  0  0  0  0  0  0  0  0  0
   69.3149   74.6543   93.1060 H   0  0  0  0  0  0  0  0  0  0  0  0
   67.9253   80.2177   89.7752 C   0  0  0  0  0  0  0  0  0  0  0  0
   69.0171   81.2277   89.4886 C   0  0  0  0  0  0  0  0  0  0  0  0
   70.2524   81.0764   90.1343 C   0  0  0  0  0  0  0  0  0  0  0  0
   71.3048   81.9494   89.8767 C   0  0  0  0  0  0  0  0  0  0  0  0
   71.1563   82.9989   88.9717 C   0  0  0  0  0  0  0  0  0  0  0  0
   72.6788   84.1388   88.6953 Br  0  0  0  0  0  0  0  0  0  0  0  0
   69.9227   83.1898   88.3117 C   0  0  0  0  0  0  0  0  0  0  0  0
   69.7460   84.2413   87.3905 C   0  0  0  0  0  0  0  0  0  0  0  0
   68.5223   84.4253   86.7486 C   0  0  0  0  0  0  0  0  0  0  0  0
   67.4550   83.5753   87.0187 C   0  0  0  0  0  0  0  0  0  0  0  0
   67.6030   82.5270   87.9260 C   0  0  0  0  0  0  0  0  0  0  0  0
   68.8362   82.3051   88.5785 C   0  0  0  0  0  0  0  0  0  0  0  0
 10 11  2  0  0  0
 11 12  1  0  0  0
 11  2  1  0  0  0
  2  3  2  0  0  0
  3  4  1  0  0  0
  4  1  1  0  0  0
  1 14  1  0  0  0
 14 15  1  0  0  0
 15 16  2  0  0  0
 16 17  1  0  0  0
 17 18  2  0  0  0
 18 19  1  0  0  0
 18 20  1  0  0  0
 20 21  2  0  0  0
 21 22  1  0  0  0
 22 23  2  0  0  0
 23 24  1  0  0  0
 24 25  2  0  0  0
  4  5  2  0  0  0
  5  6  1  0  0  0
  6  7  2  0  0  0
  7  8  1  0  0  0
  7  2  1  0  0  0
 25 15  1  0  0  0
 25 20  1  0  0  0
 12 13  1  0  0  0
  8  9  1  0  0  0
M  END
> <score>
-0.584178

> <minimizedAffinity>
-7.90008

> <CNNscore>
0.7966986895

> <CNNaffinity>
5.7284889221

> <CNN_VS>
4.5638794899

$$$$
HIPS5031


 25 27  0  0  0  0  0  0  0  0999 V2000
   66.9657   76.0140   91.8360 O   0  0  0  0  0  0  0  0  0  0  0  0
   68.2219   73.8908   94.6023 C   0  0  0  0  0  0  0  0  0  0  0  0
   68.1267   74.5872   93.3846 C   0  0  0  0  0  0  0  0  0  0  0  0
   66.9804   75.3212   93.0570 C   0  0  0  0  0  0  0  0  0  0  0  0
   65.8980   75.3378   93.9550 C   0  0  0  0  0  0  0  0  0  0  0  0
   65.9731   74.6352   95.1577 C   0  0  0  0  0  0  0  0  0  0  0  0
   67.1148   73.8956   95.4855 C   0  0  0  0  0  0  0  0  0  0  0  0
   67.0996   73.1622   96.6752 O   0  0  0  0  0  0  0  0  0  0  0  0
   66.3478   73.1911   97.2338 H   0  0  0  0  0  0  0  0  0  0  0  0
   70.4644   73.2580   94.1365 O   0  0  0  0  0  0  0  0  0  0  0  0
   69.5012   73.2306   94.9448 C   0  0  0  0  0  0  0  0  0  0  0  0
   69.6437   72.5253   96.1371 O   0  0  0  0  0  0  0  0  0  0  0  0
   68.9362   72.4944   96.7506 H   0  0  0  0  0  0  0  0  0  0  0  0
   68.1186   76.3618   91.0685 C   0  0  0  0  0  0  0  0  0  0  0  0
   67.8617   77.6095   90.2491 C   0  0  0  0  0  0  0  0  0  0  0  0
   68.0699   77.5527   88.8637 C   0  0  0  0  0  0  0  0  0  0  0  0
   67.8092   78.6554   88.0563 C   0  0  0  0  0  0  0  0  0  0  0  0
   67.3370   79.8463   88.6053 C   0  0  0  0  0  0  0  0  0  0  0  0
   67.0111   81.3010   87.3923 Br  0  0  0  0  0  0  0  0  0  0  0  0
   67.1272   79.9446   89.9982 C   0  0  0  0  0  0  0  0  0  0  0  0
   66.6485   81.1358   90.5791 C   0  0  0  0  0  0  0  0  0  0  0  0
   66.4505   81.2249   91.9561 C   0  0  0  0  0  0  0  0  0  0  0  0
   66.7335   80.1379   92.7763 C   0  0  0  0  0  0  0  0  0  0  0  0
   67.2083   78.9474   92.2272 C   0  0  0  0  0  0  0  0  0  0  0  0
   67.4021   78.8215   90.8334 C   0  0  0  0  0  0  0  0  0  0  0  0
 10 11  2  0  0  0
 11 12  1  0  0  0
 11  2  1  0  0  0
  2  3  2  0  0  0
  3  4  1  0  0  0
  4  1  1  0  0  0
  1 14  1  0  0  0
 14 15  1  0  0  0
 15 16  2  0  0  0
 16 17  1  0  0  0
 17 18  2  0  0  0
 18 19  1  0  0  0
 18 20  1  0  0  0
 20 21  2  0  0  0
 21 22  1  0  0  0
 22 23  2  0  0  0
 23 24  1  0  0  0
 24 25  2  0  0  0
  4  5  2  0  0  0
  5  6  1  0  0  0
  6  7  2  0  0  0
  7  8  1  0  0  0
  7  2  1  0  0  0
 25 15  1  0  0  0
 25 20  1  0  0  0
 12 13  1  0  0  0
  8  9  1  0  0  0
M  END
> <score>
-0.584178

> <minimizedAffinity>
-7.17734

> <CNNscore>
0.7430314422

> <CNNaffinity>
5.6478204727

> <CNN_VS>
4.1965084076

$$$$
HIPS5038


 25 27  0  0  0  0  0  0  0  0999 V2000
   69.1293   80.8753   89.4963 N   0  0  0  0  0  0  0  0  0  0  0  0
   68.7887   81.1923   88.6286 H   0  0  0  0  0  0  0  0  0  0  0  0
   70.0543   77.5205   90.7984 C   0  0  0  0  0  0  0  0  0  0  0  0
   70.0894   78.8670   90.5068 C   0  0  0  0  0  0  0  0  0  0  0  0
   69.0794   79.4867   89.7886 C   0  0  0  0  0  0  0  0  0  0  0  0
   67.9920   78.7718   89.3353 C   0  0  0  0  0  0  0  0  0  0  0  0
   67.9479   77.4259   89.6217 C   0  0  0  0  0  0  0  0  0  0  0  0
   68.9604   76.8108   90.3399 C   0  0  0  0  0  0  0  0  0  0  0  0
   68.9300   75.4439   90.6388 O   0  0  0  0  0  0  0  0  0  0  0  0
   68.2104   74.9173   90.3510 H   0  0  0  0  0  0  0  0  0  0  0  0
   70.8628   76.2172   92.6105 O   0  0  0  0  0  0  0  0  0  0  0  0
   71.1174   76.8567   91.5547 C   0  0  0  0  0  0  0  0  0  0  0  0
   72.4342   76.9093   91.1362 O   0  0  0  0  0  0  0  0  0  0  0  0
   72.6594   77.3760   90.3555 H   0  0  0  0  0  0  0  0  0  0  0  0
   69.6722   81.8526   90.4463 C   0  0  0  0  0  0  0  0  0  0  0  0
   70.7819   82.6079   89.8387 C   0  0  0  0  0  0  0  0  0  0  0  0
   72.0801   82.4330   90.2726 C   0  0  0  0  0  0  0  0  0  0  0  0
   73.1007   83.1297   89.6993 C   0  0  0  0  0  0  0  0  0  0  0  0
   72.8965   84.0310   88.6728 C   0  0  0  0  0  0  0  0  0  0  0  0
   71.5848   84.1956   88.2480 C   0  0  0  0  0  0  0  0  0  0  0  0
   70.5419   83.4956   88.8211 C   0  0  0  0  0  0  0  0  0  0  0  0
   69.2759   83.7340   88.3251 O   0  0  0  0  0  0  0  0  0  0  0  0
   69.0230   84.9526   87.6209 C   0  0  0  0  0  0  0  0  0  0  0  0
   70.0957   85.1597   86.5971 C   0  0  0  0  0  0  0  0  0  0  0  0
   71.3551   85.0900   87.2253 O   0  0  0  0  0  0  0  0  0  0  0  0
 11 12  2  0  0  0
 12 13  1  0  0  0
 12  3  1  0  0  0
  3  4  2  0  0  0
  4  5  1  0  0  0
  5  1  1  0  0  0
  1 15  1  0  0  0
 15 16  1  0  0  0
 16 17  2  0  0  0
 17 18  1  0  0  0
 18 19  2  0  0  0
 19 20  1  0  0  0
 20 21  2  0  0  0
 21 22  1  0  0  0
 22 23  1  0  0  0
 23 24  1  0  0  0
 24 25  1  0  0  0
  5  6  2  0  0  0
  6  7  1  0  0  0
  7  8  2  0  0  0
  8  9  1  0  0  0
  8  3  1  0  0  0
 21 16  1  0  0  0
 25 20  1  0  0  0
 13 14  1  0  0  0
  1  2  1  0  0  0
  9 10  1  0  0  0
M  END
> <score>
1.153769

> <minimizedAffinity>
-7.17889

> <CNNscore>
0.8131481409

> <CNNaffinity>
5.2452192307

> <CNN_VS>
4.2651400566

$$$$
HIPS5038


 25 27  0  0  0  0  0  0  0  0999 V2000
   69.6188   80.3112   89.5608 N   0  0  0  0  0  0  0  0  0  0  0  0
   69.3942   80.3012   88.6023 H   0  0  0  0  0  0  0  0  0  0  0  0
   69.1213   77.0816   91.3294 C   0  0  0  0  0  0  0  0  0  0  0  0
   68.8703   78.2778   90.6925 C   0  0  0  0  0  0  0  0  0  0  0  0
   69.8932   79.0815   90.2155 C   0  0  0  0  0  0  0  0  0  0  0  0
   71.2121   78.7101   90.3621 C   0  0  0  0  0  0  0  0  0  0  0  0
   71.4731   77.5168   90.9970 C   0  0  0  0  0  0  0  0  0  0  0  0
   70.4469   76.7167   91.4725 C   0  0  0  0  0  0  0  0  0  0  0  0
   70.6959   75.5013   92.1201 O   0  0  0  0  0  0  0  0  0  0  0  0
   71.5773   75.2078   92.2427 H   0  0  0  0  0  0  0  0  0  0  0  0
   67.2556   76.6377   92.7287 O   0  0  0  0  0  0  0  0  0  0  0  0
   68.0475   76.2268   91.8385 C   0  0  0  0  0  0  0  0  0  0  0  0
   67.8671   74.9421   91.3601 O   0  0  0  0  0  0  0  0  0  0  0  0
   68.4377   74.6042   90.6981 H   0  0  0  0  0  0  0  0  0  0  0  0
   69.6596   81.5963   90.2675 C   0  0  0  0  0  0  0  0  0  0  0  0
   70.7491   82.4414   89.7480 C   0  0  0  0  0  0  0  0  0  0  0  0
   72.0246   82.3526   90.2672 C   0  0  0  0  0  0  0  0  0  0  0  0
   73.0274   83.1321   89.7751 C   0  0  0  0  0  0  0  0  0  0  0  0
   72.8270   84.0359   88.7500 C   0  0  0  0  0  0  0  0  0  0  0  0
   71.5383   84.1134   88.2389 C   0  0  0  0  0  0  0  0  0  0  0  0
   70.5135   83.3288   88.7292 C   0  0  0  0  0  0  0  0  0  0  0  0
   69.2695   83.4846   88.1512 O   0  0  0  0  0  0  0  0  0  0  0  0
   68.9757   84.6950   87.4489 C   0  0  0  0  0  0  0  0  0  0  0  0
   70.0967   84.9989   86.5039 C   0  0  0  0  0  0  0  0  0  0  0  0
   71.3127   85.0083   87.2158 O   0  0  0  0  0  0  0  0  0  0  0  0
 11 12  2  0  0  0
 12 13  1  0  0  0
 12  3  1  0  0  0
  3  4  2  0  0  0
  4  5  1  0  0  0
  5  1  1  0  0  0
  1 15  1  0  0  0
 15 16  1  0  0  0
 16 17  2  0  0  0
 17 18  1  0  0  0
 18 19  2  0  0  0
 19 20  1  0  0  0
 20 21  2  0  0  0
 21 22  1  0  0  0
 22 23  1  0  0  0
 23 24  1  0  0  0
 24 25  1  0  0  0
  5  6  2  0  0  0
  6  7  1  0  0  0
  7  8  2  0  0  0
  8  9  1  0  0  0
  8  3  1  0  0  0
 21 16  1  0  0  0
 25 20  1  0  0  0
 13 14  1  0  0  0
  1  2  1  0  0  0
  9 10  1  0  0  0
M  END
> <score>
1.153769

> <minimizedAffinity>
-7.23168

> <CNNscore>
0.7214648724

> <CNNaffinity>
5.0483255386

> <CNN_VS>
3.6421895027

$$$$
HIPS5038


 25 27  0  0  0  0  0  0  0  0999 V2000
   66.8703   77.6471   92.3743 N   0  0  0  0  0  0  0  0  0  0  0  0
   66.0413   78.1748   92.3154 H   0  0  0  0  0  0  0  0  0  0  0  0
   68.1231   74.6879   94.2397 C   0  0  0  0  0  0  0  0  0  0  0  0
   68.0602   75.7632   93.3799 C   0  0  0  0  0  0  0  0  0  0  0  0
   66.9200   76.5418   93.2644 C   0  0  0  0  0  0  0  0  0  0  0  0
   65.7960   76.2666   94.0127 C   0  0  0  0  0  0  0  0  0  0  0  0
   65.8491   75.1944   94.8745 C   0  0  0  0  0  0  0  0  0  0  0  0
   66.9915   74.4186   94.9864 C   0  0  0  0  0  0  0  0  0  0  0  0
   67.0610   73.3256   95.8577 O   0  0  0  0  0  0  0  0  0  0  0  0
   66.3210   73.1003   96.3866 H   0  0  0  0  0  0  0  0  0  0  0  0
   70.1819   73.8115   93.4466 O   0  0  0  0  0  0  0  0  0  0  0  0
   69.3224   73.8583   94.3672 C   0  0  0  0  0  0  0  0  0  0  0  0
   69.5514   73.0998   95.5004 O   0  0  0  0  0  0  0  0  0  0  0  0
   68.9332   73.1108   96.2044 H   0  0  0  0  0  0  0  0  0  0  0  0
   68.0155   78.0276   91.5397 C   0  0  0  0  0  0  0  0  0  0  0  0
   67.5598   78.6285   90.2739 C   0  0  0  0  0  0  0  0  0  0  0  0
   67.3576   79.9894   90.1673 C   0  0  0  0  0  0  0  0  0  0  0  0
   66.9440   80.5371   88.9907 C   0  0  0  0  0  0  0  0  0  0  0  0
   66.7094   79.7760   87.8622 C   0  0  0  0  0  0  0  0  0  0  0  0
   66.9172   78.4086   87.9860 C   0  0  0  0  0  0  0  0  0  0  0  0
   67.3360   77.8416   89.1731 C   0  0  0  0  0  0  0  0  0  0  0  0
   67.5118   76.4725   89.1894 O   0  0  0  0  0  0  0  0  0  0  0  0
   66.8476   75.6744   88.2061 C   0  0  0  0  0  0  0  0  0  0  0  0
   67.0756   76.2726   86.8525 C   0  0  0  0  0  0  0  0  0  0  0  0
   66.6892   77.6276   86.8741 O   0  0  0  0  0  0  0  0  0  0  0  0
 11 12  2  0  0  0
 12 13  1  0  0  0
 12  3  1  0  0  0
  3  4  2  0  0  0
  4  5  1  0  0  0
  5  1  1  0  0  0
  1 15  1  0  0  0
 15 16  1  0  0  0
 16 17  2  0  0  0
 17 18  1  0  0  0
 18 19  2  0  0  0
 19 20  1  0  0  0
 20 21  2  0  0  0
 21 22  1  0  0  0
 22 23  1  0  0  0
 23 24  1  0  0  0
 24 25  1  0  0  0
  5  6  2  0  0  0
  6  7  1  0  0  0
  7  8  2  0  0  0
  8  9  1  0  0  0
  8  3  1  0  0  0
 21 16  1  0  0  0
 25 20  1  0  0  0
 13 14  1  0  0  0
  1  2  1  0  0  0
  9 10  1  0  0  0
M  END
> <score>
1.153769

> <minimizedAffinity>
-6.60279

> <CNNscore>
0.5588626862

> <CNNaffinity>
5.0500059128

> <CNN_VS>
2.8222599030

$$$$
HIPS5039


 25 27  0  0  0  0  0  0  0  0999 V2000
   68.9225   80.4605   89.5362 N   0  0  0  0  0  0  0  0  0  0  0  0
   68.5463   80.3757   88.6304 H   0  0  0  0  0  0  0  0  0  0  0  0
   71.1240   77.6812   90.7760 C   0  0  0  0  0  0  0  0  0  0  0  0
   70.6765   78.8550   90.1405 C   0  0  0  0  0  0  0  0  0  0  0  0
   69.3327   79.2536   90.2093 C   0  0  0  0  0  0  0  0  0  0  0  0
   68.4252   78.4660   90.9369 C   0  0  0  0  0  0  0  0  0  0  0  0
   68.8537   77.3005   91.5713 C   0  0  0  0  0  0  0  0  0  0  0  0
   70.1937   76.8991   91.4976 C   0  0  0  0  0  0  0  0  0  0  0  0
   70.5925   75.7277   92.1419 O   0  0  0  0  0  0  0  0  0  0  0  0
   69.9662   75.2179   92.6171 H   0  0  0  0  0  0  0  0  0  0  0  0
   73.1851   76.8591   91.6691 O   0  0  0  0  0  0  0  0  0  0  0  0
   72.5559   77.2993   90.6696 C   0  0  0  0  0  0  0  0  0  0  0  0
   73.2240   77.4247   89.4539 O   0  0  0  0  0  0  0  0  0  0  0  0
   72.7704   77.7503   88.7014 H   0  0  0  0  0  0  0  0  0  0  0  0
   69.0274   81.8039   90.1086 C   0  0  0  0  0  0  0  0  0  0  0  0
   70.2650   82.5039   89.6050 C   0  0  0  0  0  0  0  0  0  0  0  0
   71.4973   82.3468   90.2794 C   0  0  0  0  0  0  0  0  0  0  0  0
   72.6596   83.0038   89.8234 C   0  0  0  0  0  0  0  0  0  0  0  0
   72.6104   83.8375   88.6944 C   0  0  0  0  0  0  0  0  0  0  0  0
   71.3847   83.9931   88.0516 C   0  0  0  0  0  0  0  0  0  0  0  0
   71.1286   84.7495   86.9721 N   0  0  0  0  0  0  0  0  0  0  0  0
   69.8110   84.5964   86.7162 C   0  0  0  0  0  0  0  0  0  0  0  0
   69.2266   83.7375   87.6392 C   0  0  0  0  0  0  0  0  0  0  0  0
   70.2494   83.3565   88.4890 C   0  0  0  0  0  0  0  0  0  0  0  0
   71.7699   85.3026   86.4698 H   0  0  0  0  0  0  0  0  0  0  0  0
 11 12  2  0  0  0
 12 13  1  0  0  0
 12  3  1  0  0  0
  3  4  2  0  0  0
  4  5  1  0  0  0
  5  1  1  0  0  0
  1 15  1  0  0  0
 15 16  1  0  0  0
 16 17  2  0  0  0
 17 18  1  0  0  0
 18 19  2  0  0  0
 19 20  1  0  0  0
 20 21  1  0  0  0
 21 22  1  0  0  0
 22 23  2  0  0  0
 23 24  1  0  0  0
  5  6  2  0  0  0
  6  7  1  0  0  0
  7  8  2  0  0  0
  8  9  1  0  0  0
  8  3  1  0  0  0
 24 16  1  0  0  0
 24 20  2  0  0  0
 13 14  1  0  0  0
  1  2  1  0  0  0
 21 25  1  0  0  0
  9 10  1  0  0  0
M  END
> <score>
1.153769

> <minimizedAffinity>
-7.01633

> <CNNscore>
0.7033389211

> <CNNaffinity>
5.2029323578

> <CNN_VS>
3.6594247818

$$$$
HIPS5039


 25 27  0  0  0  0  0  0  0  0999 V2000
   69.5460   80.2731   89.6342 N   0  0  0  0  0  0  0  0  0  0  0  0
   69.2388   80.2632   88.6988 H   0  0  0  0  0  0  0  0  0  0  0  0
   69.0774   76.9259   91.2730 C   0  0  0  0  0  0  0  0  0  0  0  0
   68.8181   78.1670   90.6607 C   0  0  0  0  0  0  0  0  0  0  0  0
   69.8630   79.0093   90.2508 C   0  0  0  0  0  0  0  0  0  0  0  0
   71.1901   78.5941   90.4495 C   0  0  0  0  0  0  0  0  0  0  0  0
   71.4624   77.3678   91.0549 C   0  0  0  0  0  0  0  0  0  0  0  0
   70.4196   76.5296   91.4699 C   0  0  0  0  0  0  0  0  0  0  0  0
   70.7232   75.3090   92.0734 O   0  0  0  0  0  0  0  0  0  0  0  0
   71.6172   75.0576   92.1983 H   0  0  0  0  0  0  0  0  0  0  0  0
   67.9533   74.8268   91.5003 O   0  0  0  0  0  0  0  0  0  0  0  0
   67.9364   76.0722   91.6937 C   0  0  0  0  0  0  0  0  0  0  0  0
   66.8266   76.6437   92.3116 O   0  0  0  0  0  0  0  0  0  0  0  0
   66.7987   77.5680   92.4626 H   0  0  0  0  0  0  0  0  0  0  0  0
   69.6497   81.5703   90.3047 C   0  0  0  0  0  0  0  0  0  0  0  0
   70.7570   82.3971   89.7000 C   0  0  0  0  0  0  0  0  0  0  0  0
   72.0523   82.3767   90.2654 C   0  0  0  0  0  0  0  0  0  0  0  0
   73.0937   83.1529   89.7143 C   0  0  0  0  0  0  0  0  0  0  0  0
   72.8583   83.9711   88.5976 C   0  0  0  0  0  0  0  0  0  0  0  0
   71.5723   83.9910   88.0631 C   0  0  0  0  0  0  0  0  0  0  0  0
   71.1446   84.7104   87.0131 N   0  0  0  0  0  0  0  0  0  0  0  0
   69.8341   84.4152   86.8705 C   0  0  0  0  0  0  0  0  0  0  0  0
   69.4269   83.5026   87.8363 C   0  0  0  0  0  0  0  0  0  0  0  0
   70.5539   83.2378   88.5935 C   0  0  0  0  0  0  0  0  0  0  0  0
   71.6772   85.3269   86.4602 H   0  0  0  0  0  0  0  0  0  0  0  0
 11 12  2  0  0  0
 12 13  1  0  0  0
 12  3  1  0  0  0
  3  4  2  0  0  0
  4  5  1  0  0  0
  5  1  1  0  0  0
  1 15  1  0  0  0
 15 16  1  0  0  0
 16 17  2  0  0  0
 17 18  1  0  0  0
 18 19  2  0  0  0
 19 20  1  0  0  0
 20 21  1  0  0  0
 21 22  1  0  0  0
 22 23  2  0  0  0
 23 24  1  0  0  0
  5  6  2  0  0  0
  6  7  1  0  0  0
  7  8  2  0  0  0
  8  9  1  0  0  0
  8  3  1  0  0  0
 24 16  1  0  0  0
 24 20  2  0  0  0
 13 14  1  0  0  0
  1  2  1  0  0  0
 21 25  1  0  0  0
  9 10  1  0  0  0
M  END
> <score>
1.153769

> <minimizedAffinity>
-7.19068

> <CNNscore>
0.6034712791

> <CNNaffinity>
4.9680414200

> <CNN_VS>
2.9980702400

$$$$
HIPS5039


 25 27  0  0  0  0  0  0  0  0999 V2000
   67.0287   79.0786   92.7053 N   0  0  0  0  0  0  0  0  0  0  0  0
   67.8226   79.6341   92.8794 H   0  0  0  0  0  0  0  0  0  0  0  0
   68.2774   75.6466   93.5833 C   0  0  0  0  0  0  0  0  0  0  0  0
   68.2219   76.9760   93.1230 C   0  0  0  0  0  0  0  0  0  0  0  0
   67.0362   77.7231   93.1957 C   0  0  0  0  0  0  0  0  0  0  0  0
   65.8899   77.1290   93.7490 C   0  0  0  0  0  0  0  0  0  0  0  0
   65.9295   75.8130   94.2086 C   0  0  0  0  0  0  0  0  0  0  0  0
   67.1113   75.0650   94.1305 C   0  0  0  0  0  0  0  0  0  0  0  0
   67.1199   73.7505   94.5977 O   0  0  0  0  0  0  0  0  0  0  0  0
   66.3403   73.3763   94.9584 H   0  0  0  0  0  0  0  0  0  0  0  0
   70.3402   75.0827   92.5115 O   0  0  0  0  0  0  0  0  0  0  0  0
   69.5554   74.8958   93.4799 C   0  0  0  0  0  0  0  0  0  0  0  0
   69.9029   73.9695   94.4604 O   0  0  0  0  0  0  0  0  0  0  0  0
   69.3303   73.8191   95.1867 H   0  0  0  0  0  0  0  0  0  0  0  0
   65.9202   79.6851   91.9660 C   0  0  0  0  0  0  0  0  0  0  0  0
   66.3329   80.0025   90.5502 C   0  0  0  0  0  0  0  0  0  0  0  0
   66.3218   78.9928   89.5610 C   0  0  0  0  0  0  0  0  0  0  0  0
   66.7146   79.2753   88.2357 C   0  0  0  0  0  0  0  0  0  0  0  0
   67.1359   80.5660   87.8770 C   0  0  0  0  0  0  0  0  0  0  0  0
   67.1555   81.5445   88.8679 C   0  0  0  0  0  0  0  0  0  0  0  0
   67.5340   82.8256   88.7312 N   0  0  0  0  0  0  0  0  0  0  0  0
   67.3947   83.3856   89.9527 C   0  0  0  0  0  0  0  0  0  0  0  0
   66.9250   82.4542   90.8709 C   0  0  0  0  0  0  0  0  0  0  0  0
   66.7741   81.2774   90.1597 C   0  0  0  0  0  0  0  0  0  0  0  0
   67.8486   83.2665   87.9091 H   0  0  0  0  0  0  0  0  0  0  0  0
 11 12  2  0  0  0
 12 13  1  0  0  0
 12  3  1  0  0  0
  3  4  2  0  0  0
  4  5  1  0  0  0
  5  1  1  0  0  0
  1 15  1  0  0  0
 15 16  1  0  0  0
 16 17  2  0  0  0
 17 18  1  0  0  0
 18 19  2  0  0  0
 19 20  1  0  0  0
 20 21  1  0  0  0
 21 22  1  0  0  0
 22 23  2  0  0  0
 23 24  1  0  0  0
  5  6  2  0  0  0
  6  7  1  0  0  0
  7  8  2  0  0  0
  8  9  1  0  0  0
  8  3  1  0  0  0
 24 16  1  0  0  0
 24 20  2  0  0  0
 13 14  1  0  0  0
  1  2  1  0  0  0
 21 25  1  0  0  0
  9 10  1  0  0  0
M  END
> <score>
1.153769

> <minimizedAffinity>
-6.03840

> <CNNscore>
0.5676711798

> <CNNaffinity>
4.9723186493

> <CNN_VS>
2.8226420879

$$$$
HIPS505


 32 34  0  0  0  0  0  0  0  0999 V2000
   67.9764   73.6898   92.7168 C   0  0  0  0  0  0  0  0  0  0  0  0
   68.1389   74.4440   91.5454 C   0  0  0  0  0  0  0  0  0  0  0  0
   67.4703   75.6693   91.5699 C   0  0  0  0  0  0  0  0  0  0  0  0
   66.7065   75.8049   93.0684 S   0  0  0  0  0  0  0  0  0  0  0  0
   67.2028   74.3248   93.6933 C   0  0  0  0  0  0  0  0  0  0  0  0
   67.4336   76.6858   90.4862 C   0  0  0  0  0  0  0  0  0  0  0  0
   67.5517   78.0551   90.7776 C   0  0  0  0  0  0  0  0  0  0  0  0
   67.5180   79.0029   89.7552 C   0  0  0  0  0  0  0  0  0  0  0  0
   67.3681   78.6077   88.4236 C   0  0  0  0  0  0  0  0  0  0  0  0
   67.3340   79.8627   87.1876 Cl  0  0  0  0  0  0  0  0  0  0  0  0
   67.2512   77.2377   88.1018 C   0  0  0  0  0  0  0  0  0  0  0  0
   67.2868   76.2889   89.1438 C   0  0  0  0  0  0  0  0  0  0  0  0
   67.0887   76.7950   86.6627 C   0  0  0  0  0  0  0  0  0  0  0  0
   65.9122   77.3098   86.1488 F   0  0  0  0  0  0  0  0  0  0  0  0
   67.0445   75.4138   86.6044 F   0  0  0  0  0  0  0  0  0  0  0  0
   68.1350   77.2289   85.8668 F   0  0  0  0  0  0  0  0  0  0  0  0
   70.4761   73.1694   93.9592 O   0  0  0  0  0  0  0  0  0  0  0  0
   69.8350   72.1877   93.4927 C   0  0  0  0  0  0  0  0  0  0  0  0
   70.3684   70.8617   93.6057 N   0  0  0  0  0  0  0  0  0  0  0  0
   68.5632   72.3905   92.8621 N   0  0  0  0  0  0  0  0  0  0  0  0
   69.8544   70.1107   93.2303 H   0  0  0  0  0  0  0  0  0  0  0  0
   68.0753   71.6085   92.5162 H   0  0  0  0  0  0  0  0  0  0  0  0
   71.6457   70.5835   94.2567 C   0  0  0  0  0  0  0  0  0  0  0  0
   72.6579   70.1501   93.2446 C   0  0  0  0  0  0  0  0  0  0  0  0
   72.4920   69.1385   92.3206 C   0  0  0  0  0  0  0  0  0  0  0  0
   73.6788   69.0782   91.6225 C   0  0  0  0  0  0  0  0  0  0  0  0
   74.4928   70.0527   92.1648 C   0  0  0  0  0  0  0  0  0  0  0  0
   73.8564   70.6737   93.1312 O   0  0  0  0  0  0  0  0  0  0  0  0
   66.9395   73.8788   95.0714 C   0  0  0  0  0  0  0  0  0  0  0  0
   65.7772   73.9745   95.5484 O   0  0  0  0  0  0  0  0  0  0  0  0
   67.9683   73.3835   95.8661 O   0  0  0  0  0  0  0  0  0  0  0  0
   68.8351   73.3096   95.5180 H   0  0  0  0  0  0  0  0  0  0  0  0
 17 18  2  0  0  0
 18 19  1  0  0  0
 19 23  1  0  0  0
 23 24  1  0  0  0
 24 25  2  0  0  0
 25 26  1  0  0  0
 26 27  2  0  0  0
 27 28  1  0  0  0
 18 20  1  0  0  0
 20  1  1  0  0  0
  1  2  1  0  0  0
  2  3  2  0  0  0
  3  6  1  0  0  0
  6  7  2  0  0  0
  7  8  1  0  0  0
  8  9  2  0  0  0
  9 10  1  0  0  0
  9 11  1  0  0  0
 11 13  1  0  0  0
 13 14  1  0  0  0
 13 15  1  0  0  0
 13 16  1  0  0  0
 11 12  2  0  0  0
  3  4  1  0  0  0
  4  5  1  0  0  0
  5 29  1  0  0  0
 29 30  2  0  0  0
 29 31  1  0  0  0
 28 24  1  0  0  0
  5  1  2  0  0  0
 12  6  1  0  0  0
 19 21  1  0  0  0
 20 22  1  0  0  0
 31 32  1  0  0  0
M  END
> <score>
-0.479346

> <minimizedAffinity>
-8.00356

> <CNNscore>
0.3518820107

> <CNNaffinity>
5.8741111755

> <CNN_VS>
2.0669939518

$$$$
HIPS505


 32 34  0  0  0  0  0  0  0  0999 V2000
   68.6351   80.7585   89.7212 C   0  0  0  0  0  0  0  0  0  0  0  0
   69.6033   81.7694   89.8090 C   0  0  0  0  0  0  0  0  0  0  0  0
   69.4942   82.7390   88.8106 C   0  0  0  0  0  0  0  0  0  0  0  0
   68.1701   82.3330   87.8465 S   0  0  0  0  0  0  0  0  0  0  0  0
   67.7298   80.9347   88.6701 C   0  0  0  0  0  0  0  0  0  0  0  0
   70.3702   83.9245   88.6206 C   0  0  0  0  0  0  0  0  0  0  0  0
   71.6828   83.7817   88.1406 C   0  0  0  0  0  0  0  0  0  0  0  0
   72.4982   84.8991   87.9635 C   0  0  0  0  0  0  0  0  0  0  0  0
   72.0241   86.1797   88.2583 C   0  0  0  0  0  0  0  0  0  0  0  0
   73.1129   87.5421   88.0093 Cl  0  0  0  0  0  0  0  0  0  0  0  0
   70.7074   86.3526   88.7384 C   0  0  0  0  0  0  0  0  0  0  0  0
   69.8924   85.2157   88.9133 C   0  0  0  0  0  0  0  0  0  0  0  0
   70.1800   87.7350   89.0616 C   0  0  0  0  0  0  0  0  0  0  0  0
   69.0925   87.6303   89.9097 F   0  0  0  0  0  0  0  0  0  0  0  0
   69.7880   88.3663   87.8950 F   0  0  0  0  0  0  0  0  0  0  0  0
   71.1367   88.5221   89.6796 F   0  0  0  0  0  0  0  0  0  0  0  0
   70.5124   78.6285   89.7570 O   0  0  0  0  0  0  0  0  0  0  0  0
   69.5807   78.6061   90.6077 C   0  0  0  0  0  0  0  0  0  0  0  0
   69.4986   77.5339   91.5560 N   0  0  0  0  0  0  0  0  0  0  0  0
   68.6090   79.6602   90.6413 N   0  0  0  0  0  0  0  0  0  0  0  0
   68.7606   77.5332   92.2077 H   0  0  0  0  0  0  0  0  0  0  0  0
   67.8980   79.6282   91.3215 H   0  0  0  0  0  0  0  0  0  0  0  0
   70.4686   76.4428   91.5914 C   0  0  0  0  0  0  0  0  0  0  0  0
   69.7799   75.1321   91.3806 C   0  0  0  0  0  0  0  0  0  0  0  0
   68.6222   74.9373   90.6551 C   0  0  0  0  0  0  0  0  0  0  0  0
   68.3475   73.5903   90.7532 C   0  0  0  0  0  0  0  0  0  0  0  0
   69.3511   73.0499   91.5324 C   0  0  0  0  0  0  0  0  0  0  0  0
   70.1892   73.9947   91.8926 O   0  0  0  0  0  0  0  0  0  0  0  0
   66.5275   80.1408   88.3678 C   0  0  0  0  0  0  0  0  0  0  0  0
   65.7217   80.5377   87.4842 O   0  0  0  0  0  0  0  0  0  0  0  0
   66.2526   78.9726   89.0716 O   0  0  0  0  0  0  0  0  0  0  0  0
   66.8473   78.6715   89.7301 H   0  0  0  0  0  0  0  0  0  0  0  0
 17 18  2  0  0  0
 18 19  1  0  0  0
 19 23  1  0  0  0
 23 24  1  0  0  0
 24 25  2  0  0  0
 25 26  1  0  0  0
 26 27  2  0  0  0
 27 28  1  0  0  0
 18 20  1  0  0  0
 20  1  1  0  0  0
  1  2  1  0  0  0
  2  3  2  0  0  0
  3  6  1  0  0  0
  6  7  2  0  0  0
  7  8  1  0  0  0
  8  9  2  0  0  0
  9 10  1  0  0  0
  9 11  1  0  0  0
 11 13  1  0  0  0
 13 14  1  0  0  0
 13 15  1  0  0  0
 13 16  1  0  0  0
 11 12  2  0  0  0
  3  4  1  0  0  0
  4  5  1  0  0  0
  5 29  1  0  0  0
 29 30  2  0  0  0
 29 31  1  0  0  0
 28 24  1  0  0  0
  5  1  2  0  0  0
 12  6  1  0  0  0
 19 21  1  0  0  0
 20 22  1  0  0  0
 31 32  1  0  0  0
M  END
> <score>
-0.479346

> <minimizedAffinity>
-7.61697

> <CNNscore>
0.3511394858

> <CNNaffinity>
5.8074340820

> <CNN_VS>
2.0392193794

$$$$
HIPS505


 32 34  0  0  0  0  0  0  0  0999 V2000
   67.8336   78.7696   90.6749 C   0  0  0  0  0  0  0  0  0  0  0  0
   68.4327   79.5201   89.6526 C   0  0  0  0  0  0  0  0  0  0  0  0
   68.3426   80.9001   89.8433 C   0  0  0  0  0  0  0  0  0  0  0  0
   67.5377   81.1629   91.3030 S   0  0  0  0  0  0  0  0  0  0  0  0
   67.2903   79.5481   91.7015 C   0  0  0  0  0  0  0  0  0  0  0  0
   68.8624   81.9600   88.9402 C   0  0  0  0  0  0  0  0  0  0  0  0
   68.0807   82.4529   87.8820 C   0  0  0  0  0  0  0  0  0  0  0  0
   68.5748   83.4486   87.0398 C   0  0  0  0  0  0  0  0  0  0  0  0
   69.8543   83.9746   87.2344 C   0  0  0  0  0  0  0  0  0  0  0  0
   70.4091   85.2296   86.1295 Cl  0  0  0  0  0  0  0  0  0  0  0  0
   70.6599   83.5003   88.2928 C   0  0  0  0  0  0  0  0  0  0  0  0
   70.1497   82.4937   89.1376 C   0  0  0  0  0  0  0  0  0  0  0  0
   72.0487   84.0618   88.5158 C   0  0  0  0  0  0  0  0  0  0  0  0
   71.9632   85.4131   88.7978 F   0  0  0  0  0  0  0  0  0  0  0  0
   72.8102   83.8824   87.3752 F   0  0  0  0  0  0  0  0  0  0  0  0
   72.6949   83.4396   89.5703 F   0  0  0  0  0  0  0  0  0  0  0  0
   69.8302   77.0692   91.7635 O   0  0  0  0  0  0  0  0  0  0  0  0
   68.8419   76.5279   91.1955 C   0  0  0  0  0  0  0  0  0  0  0  0
   68.7489   75.0991   91.1219 N   0  0  0  0  0  0  0  0  0  0  0  0
   67.7994   77.3375   90.6351 N   0  0  0  0  0  0  0  0  0  0  0  0
   67.9720   74.6975   90.6697 H   0  0  0  0  0  0  0  0  0  0  0  0
   67.0320   76.8932   90.2074 H   0  0  0  0  0  0  0  0  0  0  0  0
   69.7634   74.2171   91.6927 C   0  0  0  0  0  0  0  0  0  0  0  0
   69.4474   73.9251   93.1250 C   0  0  0  0  0  0  0  0  0  0  0  0
   68.2121   74.0681   93.7233 C   0  0  0  0  0  0  0  0  0  0  0  0
   68.3971   73.7111   95.0416 C   0  0  0  0  0  0  0  0  0  0  0  0
   69.7308   73.3760   95.1648 C   0  0  0  0  0  0  0  0  0  0  0  0
   70.3312   73.5153   94.0051 O   0  0  0  0  0  0  0  0  0  0  0  0
   66.7058   79.0902   92.9728 C   0  0  0  0  0  0  0  0  0  0  0  0
   66.6309   79.8840   93.9484 O   0  0  0  0  0  0  0  0  0  0  0  0
   66.2655   77.7789   93.1202 O   0  0  0  0  0  0  0  0  0  0  0  0
   66.3182   77.1831   92.3989 H   0  0  0  0  0  0  0  0  0  0  0  0
 17 18  2  0  0  0
 18 19  1  0  0  0
 19 23  1  0  0  0
 23 24  1  0  0  0
 24 25  2  0  0  0
 25 26  1  0  0  0
 26 27  2  0  0  0
 27 28  1  0  0  0
 18 20  1  0  0  0
 20  1  1  0  0  0
  1  2  1  0  0  0
  2  3  2  0  0  0
  3  6  1  0  0  0
  6  7  2  0  0  0
  7  8  1  0  0  0
  8  9  2  0  0  0
  9 10  1  0  0  0
  9 11  1  0  0  0
 11 13  1  0  0  0
 13 14  1  0  0  0
 13 15  1  0  0  0
 13 16  1  0  0  0
 11 12  2  0  0  0
  3  4  1  0  0  0
  4  5  1  0  0  0
  5 29  1  0  0  0
 29 30  2  0  0  0
 29 31  1  0  0  0
 28 24  1  0  0  0
  5  1  2  0  0  0
 12  6  1  0  0  0
 19 21  1  0  0  0
 20 22  1  0  0  0
 31 32  1  0  0  0
M  END
> <score>
-0.479346

> <minimizedAffinity>
-7.49227

> <CNNscore>
0.3027453423

> <CNNaffinity>
5.8730745316

> <CNN_VS>
1.7780460119

$$$$
HIPS5076


 20 22  0  0  0  0  0  0  0  0999 V2000
   69.7416   81.4748   90.2934 C   0  0  0  0  0  0  0  0  0  0  0  0
   70.7879   82.3899   89.7054 C   0  0  0  0  0  0  0  0  0  0  0  0
   72.1053   82.3040   90.1889 C   0  0  0  0  0  0  0  0  0  0  0  0
   73.1106   83.1217   89.6743 C   0  0  0  0  0  0  0  0  0  0  0  0
   72.8246   84.0366   88.6637 C   0  0  0  0  0  0  0  0  0  0  0  0
   71.5245   84.1395   88.1510 C   0  0  0  0  0  0  0  0  0  0  0  0
   71.2467   85.0584   87.1266 C   0  0  0  0  0  0  0  0  0  0  0  0
   69.9567   85.1626   86.6056 C   0  0  0  0  0  0  0  0  0  0  0  0
   68.9345   84.3527   87.0991 C   0  0  0  0  0  0  0  0  0  0  0  0
   69.1926   83.4338   88.1192 C   0  0  0  0  0  0  0  0  0  0  0  0
   70.4892   83.3118   88.6655 C   0  0  0  0  0  0  0  0  0  0  0  0
   69.7795   80.2193   89.6198 O   0  0  0  0  0  0  0  0  0  0  0  0
   70.6946   75.2892   92.1274 O   0  0  0  0  0  0  0  0  0  0  0  0
   70.4912   76.5170   91.5014 C   0  0  0  0  0  0  0  0  0  0  0  0
   71.5786   77.2906   91.0743 C   0  0  0  0  0  0  0  0  0  0  0  0
   71.3627   78.5218   90.4472 C   0  0  0  0  0  0  0  0  0  0  0  0
   70.0507   78.9920   90.2415 C   0  0  0  0  0  0  0  0  0  0  0  0
   68.9703   78.2118   90.6713 C   0  0  0  0  0  0  0  0  0  0  0  0
   69.1882   76.9810   91.2978 C   0  0  0  0  0  0  0  0  0  0  0  0
   71.5656   74.9729   92.2667 H   0  0  0  0  0  0  0  0  0  0  0  0
 13 14  1  0  0  0
 14 15  2  0  0  0
 15 16  1  0  0  0
 16 17  2  0  0  0
 17 12  1  0  0  0
 12  1  1  0  0  0
  1  2  1  0  0  0
  2  3  2  0  0  0
  3  4  1  0  0  0
  4  5  2  0  0  0
  5  6  1  0  0  0
  6  7  2  0  0  0
  7  8  1  0  0  0
  8  9  2  0  0  0
  9 10  1  0  0  0
 10 11  2  0  0  0
 17 18  1  0  0  0
 18 19  2  0  0  0
 19 14  1  0  0  0
 11  2  1  0  0  0
 11  6  1  0  0  0
 13 20  1  0  0  0
M  END
> <score>
-0.008624

> <minimizedAffinity>
-7.76791

> <CNNscore>
0.8374422789

> <CNNaffinity>
5.3295011520

> <CNN_VS>
4.4631495476

$$$$
HIPS5076


 20 22  0  0  0  0  0  0  0  0999 V2000
   68.5808   81.2895   89.8398 C   0  0  0  0  0  0  0  0  0  0  0  0
   69.1700   82.2860   88.8713 C   0  0  0  0  0  0  0  0  0  0  0  0
   68.3535   82.7885   87.8430 C   0  0  0  0  0  0  0  0  0  0  0  0
   68.8472   83.7163   86.9268 C   0  0  0  0  0  0  0  0  0  0  0  0
   70.1620   84.1665   87.0207 C   0  0  0  0  0  0  0  0  0  0  0  0
   70.9990   83.6949   88.0408 C   0  0  0  0  0  0  0  0  0  0  0  0
   72.3204   84.1602   88.1333 C   0  0  0  0  0  0  0  0  0  0  0  0
   73.1584   83.7012   89.1498 C   0  0  0  0  0  0  0  0  0  0  0  0
   72.6877   82.7771   90.0819 C   0  0  0  0  0  0  0  0  0  0  0  0
   71.3761   82.3022   90.0043 C   0  0  0  0  0  0  0  0  0  0  0  0
   70.5094   82.7490   88.9827 C   0  0  0  0  0  0  0  0  0  0  0  0
   68.7706   79.9705   89.3343 O   0  0  0  0  0  0  0  0  0  0  0  0
   70.7695   75.6816   92.3413 O   0  0  0  0  0  0  0  0  0  0  0  0
   70.2953   76.7520   91.5863 C   0  0  0  0  0  0  0  0  0  0  0  0
   71.1768   77.5504   90.8455 C   0  0  0  0  0  0  0  0  0  0  0  0
   70.6898   78.6227   90.0913 C   0  0  0  0  0  0  0  0  0  0  0  0
   69.3101   78.9070   90.0721 C   0  0  0  0  0  0  0  0  0  0  0  0
   68.4368   78.1033   90.8151 C   0  0  0  0  0  0  0  0  0  0  0  0
   68.9256   77.0316   91.5683 C   0  0  0  0  0  0  0  0  0  0  0  0
   71.6864   75.4893   92.3572 H   0  0  0  0  0  0  0  0  0  0  0  0
 13 14  1  0  0  0
 14 15  2  0  0  0
 15 16  1  0  0  0
 16 17  2  0  0  0
 17 12  1  0  0  0
 12  1  1  0  0  0
  1  2  1  0  0  0
  2  3  2  0  0  0
  3  4  1  0  0  0
  4  5  2  0  0  0
  5  6  1  0  0  0
  6  7  2  0  0  0
  7  8  1  0  0  0
  8  9  2  0  0  0
  9 10  1  0  0  0
 10 11  2  0  0  0
 17 18  1  0  0  0
 18 19  2  0  0  0
 19 14  1  0  0  0
 11  2  1  0  0  0
 11  6  1  0  0  0
 13 20  1  0  0  0
M  END
> <score>
-0.008624

> <minimizedAffinity>
-7.41845

> <CNNscore>
0.7663125396

> <CNNaffinity>
5.2932062149

> <CNN_VS>
4.0562500954

$$$$
HIPS5076


 20 22  0  0  0  0  0  0  0  0999 V2000
   70.2379   81.0302   90.0139 C   0  0  0  0  0  0  0  0  0  0  0  0
   71.0517   82.2028   89.5233 C   0  0  0  0  0  0  0  0  0  0  0  0
   72.3438   82.3903   90.0449 C   0  0  0  0  0  0  0  0  0  0  0  0
   73.1392   83.4536   89.6196 C   0  0  0  0  0  0  0  0  0  0  0  0
   72.6655   84.3473   88.6620 C   0  0  0  0  0  0  0  0  0  0  0  0
   71.3868   84.1824   88.1131 C   0  0  0  0  0  0  0  0  0  0  0  0
   70.9203   85.0829   87.1421 C   0  0  0  0  0  0  0  0  0  0  0  0
   69.6513   84.9222   86.5853 C   0  0  0  0  0  0  0  0  0  0  0  0
   68.8380   83.8641   86.9895 C   0  0  0  0  0  0  0  0  0  0  0  0
   69.2853   82.9593   87.9554 C   0  0  0  0  0  0  0  0  0  0  0  0
   70.5645   83.1025   88.5365 C   0  0  0  0  0  0  0  0  0  0  0  0
   71.0358   79.8501   89.9704 O   0  0  0  0  0  0  0  0  0  0  0  0
   69.4482   74.7581   91.6978 O   0  0  0  0  0  0  0  0  0  0  0  0
   69.8214   76.0259   91.2571 C   0  0  0  0  0  0  0  0  0  0  0  0
   68.9708   76.7758   90.4342 C   0  0  0  0  0  0  0  0  0  0  0  0
   69.3558   78.0473   89.9974 C   0  0  0  0  0  0  0  0  0  0  0  0
   70.6013   78.5818   90.3817 C   0  0  0  0  0  0  0  0  0  0  0  0
   71.4446   77.8252   91.2046 C   0  0  0  0  0  0  0  0  0  0  0  0
   71.0578   76.5542   91.6404 C   0  0  0  0  0  0  0  0  0  0  0  0
   68.6209   74.3987   91.4443 H   0  0  0  0  0  0  0  0  0  0  0  0
 13 14  1  0  0  0
 14 15  2  0  0  0
 15 16  1  0  0  0
 16 17  2  0  0  0
 17 12  1  0  0  0
 12  1  1  0  0  0
  1  2  1  0  0  0
  2  3  2  0  0  0
  3  4  1  0  0  0
  4  5  2  0  0  0
  5  6  1  0  0  0
  6  7  2  0  0  0
  7  8  1  0  0  0
  8  9  2  0  0  0
  9 10  1  0  0  0
 10 11  2  0  0  0
 17 18  1  0  0  0
 18 19  2  0  0  0
 19 14  1  0  0  0
 11  2  1  0  0  0
 11  6  1  0  0  0
 13 20  1  0  0  0
M  END
> <score>
-0.008624

> <minimizedAffinity>
-7.49634

> <CNNscore>
0.7274500728

> <CNNaffinity>
5.1230278015

> <CNN_VS>
3.7267470360

$$$$
HIPS5160


 28 30  0  0  0  0  0  0  0  0999 V2000
   67.9403   79.9495   90.2004 N   0  0  0  0  0  0  0  0  0  0  0  0
   67.0872   79.5227   89.9569 H   0  0  0  0  0  0  0  0  0  0  0  0
   70.0486   76.9515   91.1226 C   0  0  0  0  0  0  0  0  0  0  0  0
   68.9277   77.7794   90.9123 C   0  0  0  0  0  0  0  0  0  0  0  0
   69.0754   79.0943   90.4352 C   0  0  0  0  0  0  0  0  0  0  0  0
   70.3623   79.5885   90.1917 C   0  0  0  0  0  0  0  0  0  0  0  0
   71.4813   78.7832   90.3982 C   0  0  0  0  0  0  0  0  0  0  0  0
   71.3372   77.4675   90.8579 C   0  0  0  0  0  0  0  0  0  0  0  0
   72.4747   76.6832   91.0485 O   0  0  0  0  0  0  0  0  0  0  0  0
   73.3234   77.0374   90.8692 H   0  0  0  0  0  0  0  0  0  0  0  0
   70.4330   75.1738   92.6654 O   0  0  0  0  0  0  0  0  0  0  0  0
   69.8509   75.5632   91.6166 C   0  0  0  0  0  0  0  0  0  0  0  0
   69.0252   74.6724   90.9363 O   0  0  0  0  0  0  0  0  0  0  0  0
   68.5848   74.9447   90.1553 H   0  0  0  0  0  0  0  0  0  0  0  0
   67.9686   81.4104   90.2991 C   0  0  0  0  0  0  0  0  0  0  0  0
   67.8136   82.0509   88.9380 C   0  0  0  0  0  0  0  0  0  0  0  0
   67.3833   81.2608   87.8560 C   0  0  0  0  0  0  0  0  0  0  0  0
   67.2828   81.8037   86.5738 C   0  0  0  0  0  0  0  0  0  0  0  0
   67.6103   83.1407   86.3531 C   0  0  0  0  0  0  0  0  0  0  0  0
   68.0242   83.9431   87.4170 C   0  0  0  0  0  0  0  0  0  0  0  0
   68.1082   83.4186   88.7149 C   0  0  0  0  0  0  0  0  0  0  0  0
   68.6247   84.5207   90.0447 S   0  0  0  0  0  0  0  0  0  0  0  0
   70.2218   84.8739   89.3034 C   0  0  0  0  0  0  0  0  0  0  0  0
   70.4626   86.1262   88.7216 C   0  0  0  0  0  0  0  0  0  0  0  0
   71.7042   86.4034   88.1410 C   0  0  0  0  0  0  0  0  0  0  0  0
   72.7045   85.4267   88.1286 C   0  0  0  0  0  0  0  0  0  0  0  0
   72.4610   84.1698   88.6903 C   0  0  0  0  0  0  0  0  0  0  0  0
   71.2201   83.8912   89.2722 C   0  0  0  0  0  0  0  0  0  0  0  0
 11 12  2  0  0  0
 12 13  1  0  0  0
 12  3  1  0  0  0
  3  4  2  0  0  0
  4  5  1  0  0  0
  5  1  1  0  0  0
  1 15  1  0  0  0
 15 16  1  0  0  0
 16 17  2  0  0  0
 17 18  1  0  0  0
 18 19  2  0  0  0
 19 20  1  0  0  0
 20 21  2  0  0  0
 21 22  1  0  0  0
 22 23  1  0  0  0
 23 24  2  0  0  0
 24 25  1  0  0  0
 25 26  2  0  0  0
 26 27  1  0  0  0
 27 28  2  0  0  0
  5  6  2  0  0  0
  6  7  1  0  0  0
  7  8  2  0  0  0
  8  9  1  0  0  0
  8  3  1  0  0  0
 21 16  1  0  0  0
 28 23  1  0  0  0
 13 14  1  0  0  0
  1  2  1  0  0  0
  9 10  1  0  0  0
M  END
> <score>
-0.102641

> <minimizedAffinity>
-6.91053

> <CNNscore>
0.7422217727

> <CNNaffinity>
5.8722867966

> <CNN_VS>
4.3585391045

$$$$
HIPS5160


 28 30  0  0  0  0  0  0  0  0999 V2000
   67.6530   79.5352   89.8561 N   0  0  0  0  0  0  0  0  0  0  0  0
   66.8082   79.3293   90.3178 H   0  0  0  0  0  0  0  0  0  0  0  0
   69.8973   76.7665   91.1135 C   0  0  0  0  0  0  0  0  0  0  0  0
   68.7389   77.4864   90.7585 C   0  0  0  0  0  0  0  0  0  0  0  0
   68.8253   78.7903   90.2381 C   0  0  0  0  0  0  0  0  0  0  0  0
   70.0852   79.3839   90.0971 C   0  0  0  0  0  0  0  0  0  0  0  0
   71.2402   78.6861   90.4470 C   0  0  0  0  0  0  0  0  0  0  0  0
   71.1592   77.3812   90.9506 C   0  0  0  0  0  0  0  0  0  0  0  0
   72.3324   76.7053   91.2855 O   0  0  0  0  0  0  0  0  0  0  0  0
   73.1629   77.1243   91.1727 H   0  0  0  0  0  0  0  0  0  0  0  0
   69.1148   74.5160   91.0091 O   0  0  0  0  0  0  0  0  0  0  0  0
   69.7657   75.3859   91.6494 C   0  0  0  0  0  0  0  0  0  0  0  0
   70.3542   75.0290   92.8595 O   0  0  0  0  0  0  0  0  0  0  0  0
   70.8414   75.6626   93.3484 H   0  0  0  0  0  0  0  0  0  0  0  0
   67.6320   80.5780   88.8280 C   0  0  0  0  0  0  0  0  0  0  0  0
   67.4578   81.9474   89.4453 C   0  0  0  0  0  0  0  0  0  0  0  0
   66.8029   82.0595   90.6857 C   0  0  0  0  0  0  0  0  0  0  0  0
   66.5738   83.3116   91.2592 C   0  0  0  0  0  0  0  0  0  0  0  0
   66.9939   84.4681   90.6037 C   0  0  0  0  0  0  0  0  0  0  0  0
   67.6584   84.3751   89.3802 C   0  0  0  0  0  0  0  0  0  0  0  0
   67.9163   83.1237   88.8024 C   0  0  0  0  0  0  0  0  0  0  0  0
   68.8029   83.0790   87.2333 S   0  0  0  0  0  0  0  0  0  0  0  0
   70.4068   83.3730   87.9858 C   0  0  0  0  0  0  0  0  0  0  0  0
   71.2816   84.3141   87.4256 C   0  0  0  0  0  0  0  0  0  0  0  0
   72.5324   84.5432   88.0074 C   0  0  0  0  0  0  0  0  0  0  0  0
   72.9182   83.8245   89.1429 C   0  0  0  0  0  0  0  0  0  0  0  0
   72.0561   82.8709   89.6926 C   0  0  0  0  0  0  0  0  0  0  0  0
   70.8045   82.6410   89.1125 C   0  0  0  0  0  0  0  0  0  0  0  0
 11 12  2  0  0  0
 12 13  1  0  0  0
 12  3  1  0  0  0
  3  4  2  0  0  0
  4  5  1  0  0  0
  5  1  1  0  0  0
  1 15  1  0  0  0
 15 16  1  0  0  0
 16 17  2  0  0  0
 17 18  1  0  0  0
 18 19  2  0  0  0
 19 20  1  0  0  0
 20 21  2  0  0  0
 21 22  1  0  0  0
 22 23  1  0  0  0
 23 24  2  0  0  0
 24 25  1  0  0  0
 25 26  2  0  0  0
 26 27  1  0  0  0
 27 28  2  0  0  0
  5  6  2  0  0  0
  6  7  1  0  0  0
  7  8  2  0  0  0
  8  9  1  0  0  0
  8  3  1  0  0  0
 21 16  1  0  0  0
 28 23  1  0  0  0
 13 14  1  0  0  0
  1  2  1  0  0  0
  9 10  1  0  0  0
M  END
> <score>
-0.102641

> <minimizedAffinity>
-7.59907

> <CNNscore>
0.7328370214

> <CNNaffinity>
5.9018583298

> <CNN_VS>
4.3251004219

$$$$
HIPS5160


 28 30  0  0  0  0  0  0  0  0999 V2000
   67.3925   79.5699   90.2475 N   0  0  0  0  0  0  0  0  0  0  0  0
   66.5030   79.8173   90.5892 H   0  0  0  0  0  0  0  0  0  0  0  0
   69.1785   76.3786   91.2014 C   0  0  0  0  0  0  0  0  0  0  0  0
   68.8271   77.7419   91.1373 C   0  0  0  0  0  0  0  0  0  0  0  0
   67.7750   78.1827   90.3143 C   0  0  0  0  0  0  0  0  0  0  0  0
   67.0876   77.2483   89.5308 C   0  0  0  0  0  0  0  0  0  0  0  0
   67.4255   75.8967   89.5805 C   0  0  0  0  0  0  0  0  0  0  0  0
   68.4623   75.4516   90.4112 C   0  0  0  0  0  0  0  0  0  0  0  0
   68.7731   74.0923   90.4453 O   0  0  0  0  0  0  0  0  0  0  0  0
   68.2904   73.4880   89.9164 H   0  0  0  0  0  0  0  0  0  0  0  0
   70.1930   74.8829   92.7576 O   0  0  0  0  0  0  0  0  0  0  0  0
   70.2889   75.9500   92.0923 C   0  0  0  0  0  0  0  0  0  0  0  0
   71.4479   76.7124   92.2087 O   0  0  0  0  0  0  0  0  0  0  0  0
   71.5362   77.5081   91.7217 H   0  0  0  0  0  0  0  0  0  0  0  0
   68.2364   80.6373   89.7060 C   0  0  0  0  0  0  0  0  0  0  0  0
   68.5506   81.6720   90.7632 C   0  0  0  0  0  0  0  0  0  0  0  0
   67.5112   82.1476   91.5839 C   0  0  0  0  0  0  0  0  0  0  0  0
   67.7521   83.1433   92.5323 C   0  0  0  0  0  0  0  0  0  0  0  0
   69.0315   83.6783   92.6747 C   0  0  0  0  0  0  0  0  0  0  0  0
   70.0776   83.2079   91.8800 C   0  0  0  0  0  0  0  0  0  0  0  0
   69.8566   82.1921   90.9388 C   0  0  0  0  0  0  0  0  0  0  0  0
   71.2604   81.6156   89.9658 S   0  0  0  0  0  0  0  0  0  0  0  0
   71.3520   83.1118   88.9768 C   0  0  0  0  0  0  0  0  0  0  0  0
   70.2976   83.4490   88.1170 C   0  0  0  0  0  0  0  0  0  0  0  0
   70.3672   84.6119   87.3435 C   0  0  0  0  0  0  0  0  0  0  0  0
   71.4951   85.4348   87.4170 C   0  0  0  0  0  0  0  0  0  0  0  0
   72.5571   85.0912   88.2588 C   0  0  0  0  0  0  0  0  0  0  0  0
   72.4889   83.9289   89.0337 C   0  0  0  0  0  0  0  0  0  0  0  0
 11 12  2  0  0  0
 12 13  1  0  0  0
 12  3  1  0  0  0
  3  4  2  0  0  0
  4  5  1  0  0  0
  5  1  1  0  0  0
  1 15  1  0  0  0
 15 16  1  0  0  0
 16 17  2  0  0  0
 17 18  1  0  0  0
 18 19  2  0  0  0
 19 20  1  0  0  0
 20 21  2  0  0  0
 21 22  1  0  0  0
 22 23  1  0  0  0
 23 24  2  0  0  0
 24 25  1  0  0  0
 25 26  2  0  0  0
 26 27  1  0  0  0
 27 28  2  0  0  0
  5  6  2  0  0  0
  6  7  1  0  0  0
  7  8  2  0  0  0
  8  9  1  0  0  0
  8  3  1  0  0  0
 21 16  1  0  0  0
 28 23  1  0  0  0
 13 14  1  0  0  0
  1  2  1  0  0  0
  9 10  1  0  0  0
M  END
> <score>
-0.102641

> <minimizedAffinity>
-7.29349

> <CNNscore>
0.6788250208

> <CNNaffinity>
5.7310428619

> <CNN_VS>
3.8903753757

$$$$
HIPS5163


 21 22  0  0  0  0  0  0  0  0999 V2000
   69.7971   77.0803   90.9379 C   0  0  0  0  0  0  0  0  0  0  0  0
   69.9330   78.4608   90.7032 C   0  0  0  0  0  0  0  0  0  0  0  0
   69.1255   79.1196   89.7575 C   0  0  0  0  0  0  0  0  0  0  0  0
   68.1643   78.3816   89.0559 C   0  0  0  0  0  0  0  0  0  0  0  0
   68.0031   77.0173   89.2957 C   0  0  0  0  0  0  0  0  0  0  0  0
   68.7940   76.3601   90.2428 C   0  0  0  0  0  0  0  0  0  0  0  0
   68.5282   75.0107   90.4861 O   0  0  0  0  0  0  0  0  0  0  0  0
   67.8555   74.5714   90.0039 H   0  0  0  0  0  0  0  0  0  0  0  0
   71.8472   76.9642   92.1502 O   0  0  0  0  0  0  0  0  0  0  0  0
   70.7358   76.4345   91.8824 C   0  0  0  0  0  0  0  0  0  0  0  0
   70.3656   75.2606   92.5335 O   0  0  0  0  0  0  0  0  0  0  0  0
   69.5413   74.8585   92.3417 H   0  0  0  0  0  0  0  0  0  0  0  0
   69.2626   80.5287   89.4863 N   0  0  0  0  0  0  0  0  0  0  0  0
   68.9471   80.8601   88.6145 H   0  0  0  0  0  0  0  0  0  0  0  0
   69.8384   81.5016   90.4166 C   0  0  0  0  0  0  0  0  0  0  0  0
   70.8203   82.3996   89.7100 C   0  0  0  0  0  0  0  0  0  0  0  0
   72.1301   82.5368   90.2006 C   0  0  0  0  0  0  0  0  0  0  0  0
   73.0453   83.3657   89.5444 C   0  0  0  0  0  0  0  0  0  0  0  0
   72.6633   84.0563   88.3913 C   0  0  0  0  0  0  0  0  0  0  0  0
   71.3665   83.9159   87.8899 C   0  0  0  0  0  0  0  0  0  0  0  0
   70.4481   83.0876   88.5424 C   0  0  0  0  0  0  0  0  0  0  0  0
  9 10  2  0  0  0
 10 11  1  0  0  0
 10  1  1  0  0  0
  1  2  2  0  0  0
  2  3  1  0  0  0
  3 13  1  0  0  0
 13 15  1  0  0  0
 15 16  1  0  0  0
 16 17  2  0  0  0
 17 18  1  0  0  0
 18 19  2  0  0  0
 19 20  1  0  0  0
 20 21  2  0  0  0
  3  4  2  0  0  0
  4  5  1  0  0  0
  5  6  2  0  0  0
  6  7  1  0  0  0
  6  1  1  0  0  0
 21 16  1  0  0  0
 11 12  1  0  0  0
 13 14  1  0  0  0
  7  8  1  0  0  0
M  END
> <score>
0.931547

> <minimizedAffinity>
-6.46068

> <CNNscore>
0.7690372467

> <CNNaffinity>
4.6607542038

> <CNN_VS>
3.5842936039

$$$$
HIPS5163


 21 22  0  0  0  0  0  0  0  0999 V2000
   70.0780   76.8997   91.7059 C   0  0  0  0  0  0  0  0  0  0  0  0
   68.8398   77.5208   91.4598 C   0  0  0  0  0  0  0  0  0  0  0  0
   68.7505   78.6648   90.6453 C   0  0  0  0  0  0  0  0  0  0  0  0
   69.9173   79.1750   90.0632 C   0  0  0  0  0  0  0  0  0  0  0  0
   71.1477   78.5553   90.2797 C   0  0  0  0  0  0  0  0  0  0  0  0
   71.2408   77.4114   91.0781 C   0  0  0  0  0  0  0  0  0  0  0  0
   72.4910   76.7990   91.1911 O   0  0  0  0  0  0  0  0  0  0  0  0
   73.2352   77.1703   90.7596 H   0  0  0  0  0  0  0  0  0  0  0  0
   69.7442   75.8856   93.8381 O   0  0  0  0  0  0  0  0  0  0  0  0
   70.1130   75.7528   92.6406 C   0  0  0  0  0  0  0  0  0  0  0  0
   70.4972   74.4958   92.1810 O   0  0  0  0  0  0  0  0  0  0  0  0
   70.7731   74.3860   91.2923 H   0  0  0  0  0  0  0  0  0  0  0  0
   67.4953   79.3291   90.3974 N   0  0  0  0  0  0  0  0  0  0  0  0
   66.9846   79.6484   91.1761 H   0  0  0  0  0  0  0  0  0  0  0  0
   66.9271   79.5622   89.0684 C   0  0  0  0  0  0  0  0  0  0  0  0
   67.0168   78.3179   88.2237 C   0  0  0  0  0  0  0  0  0  0  0  0
   66.5244   77.0961   88.7134 C   0  0  0  0  0  0  0  0  0  0  0  0
   66.6017   75.9403   87.9303 C   0  0  0  0  0  0  0  0  0  0  0  0
   67.1627   75.9967   86.6517 C   0  0  0  0  0  0  0  0  0  0  0  0
   67.6436   77.2101   86.1524 C   0  0  0  0  0  0  0  0  0  0  0  0
   67.5678   78.3686   86.9318 C   0  0  0  0  0  0  0  0  0  0  0  0
  9 10  2  0  0  0
 10 11  1  0  0  0
 10  1  1  0  0  0
  1  2  2  0  0  0
  2  3  1  0  0  0
  3 13  1  0  0  0
 13 15  1  0  0  0
 15 16  1  0  0  0
 16 17  2  0  0  0
 17 18  1  0  0  0
 18 19  2  0  0  0
 19 20  1  0  0  0
 20 21  2  0  0  0
  3  4  2  0  0  0
  4  5  1  0  0  0
  5  6  2  0  0  0
  6  7  1  0  0  0
  6  1  1  0  0  0
 21 16  1  0  0  0
 11 12  1  0  0  0
 13 14  1  0  0  0
  7  8  1  0  0  0
M  END
> <score>
0.931547

> <minimizedAffinity>
-5.90413

> <CNNscore>
0.7575251460

> <CNNaffinity>
4.7337045670

> <CNN_VS>
3.5859003067

$$$$
HIPS5163


 21 22  0  0  0  0  0  0  0  0999 V2000
   70.0282   76.5767   91.8092 C   0  0  0  0  0  0  0  0  0  0  0  0
   68.9306   76.7513   90.9465 C   0  0  0  0  0  0  0  0  0  0  0  0
   68.9854   77.6647   89.8775 C   0  0  0  0  0  0  0  0  0  0  0  0
   70.1622   78.3947   89.6695 C   0  0  0  0  0  0  0  0  0  0  0  0
   71.2657   78.2141   90.5028 C   0  0  0  0  0  0  0  0  0  0  0  0
   71.2213   77.2992   91.5590 C   0  0  0  0  0  0  0  0  0  0  0  0
   72.3865   77.1142   92.3066 O   0  0  0  0  0  0  0  0  0  0  0  0
   73.1545   77.6129   92.1082 H   0  0  0  0  0  0  0  0  0  0  0  0
   69.5717   74.4530   92.7929 O   0  0  0  0  0  0  0  0  0  0  0  0
   69.8733   75.6643   92.9642 C   0  0  0  0  0  0  0  0  0  0  0  0
   70.1241   76.1288   94.2527 O   0  0  0  0  0  0  0  0  0  0  0  0
   70.3492   77.0278   94.3911 H   0  0  0  0  0  0  0  0  0  0  0  0
   67.8653   77.8746   88.9947 N   0  0  0  0  0  0  0  0  0  0  0  0
   67.9718   77.6169   88.0505 H   0  0  0  0  0  0  0  0  0  0  0  0
   66.5803   78.4444   89.4042 C   0  0  0  0  0  0  0  0  0  0  0  0
   66.7841   79.5766   90.3769 C   0  0  0  0  0  0  0  0  0  0  0  0
   66.4878   79.3983   91.7391 C   0  0  0  0  0  0  0  0  0  0  0  0
   66.6803   80.4455   92.6454 C   0  0  0  0  0  0  0  0  0  0  0  0
   67.1768   81.6738   92.2012 C   0  0  0  0  0  0  0  0  0  0  0  0
   67.4856   81.8557   90.8505 C   0  0  0  0  0  0  0  0  0  0  0  0
   67.2952   80.8110   89.9407 C   0  0  0  0  0  0  0  0  0  0  0  0
  9 10  2  0  0  0
 10 11  1  0  0  0
 10  1  1  0  0  0
  1  2  2  0  0  0
  2  3  1  0  0  0
  3 13  1  0  0  0
 13 15  1  0  0  0
 15 16  1  0  0  0
 16 17  2  0  0  0
 17 18  1  0  0  0
 18 19  2  0  0  0
 19 20  1  0  0  0
 20 21  2  0  0  0
  3  4  2  0  0  0
  4  5  1  0  0  0
  5  6  2  0  0  0
  6  7  1  0  0  0
  6  1  1  0  0  0
 21 16  1  0  0  0
 11 12  1  0  0  0
 13 14  1  0  0  0
  7  8  1  0  0  0
M  END
> <score>
0.931547

> <minimizedAffinity>
-5.44942

> <CNNscore>
0.6724798083

> <CNNaffinity>
4.6139936447

> <CNN_VS>
3.1028175354

$$$$
HIPS5164


 23 24  0  0  0  0  0  0  0  0999 V2000
   68.4882   78.7784   89.5930 C   0  0  0  0  0  0  0  0  0  0  0  0
   67.4768   77.8463   89.3298 C   0  0  0  0  0  0  0  0  0  0  0  0
   67.5896   76.5310   89.7798 C   0  0  0  0  0  0  0  0  0  0  0  0
   68.7141   76.1167   90.5001 C   0  0  0  0  0  0  0  0  0  0  0  0
   68.8002   74.7685   90.8536 O   0  0  0  0  0  0  0  0  0  0  0  0
   69.7296   77.0526   90.8112 C   0  0  0  0  0  0  0  0  0  0  0  0
   69.6147   78.3705   90.3318 C   0  0  0  0  0  0  0  0  0  0  0  0
   68.1063   74.1801   90.6293 H   0  0  0  0  0  0  0  0  0  0  0  0
   70.8923   76.7060   91.6581 C   0  0  0  0  0  0  0  0  0  0  0  0
   70.7164   76.1265   92.7640 O   0  0  0  0  0  0  0  0  0  0  0  0
   72.1888   76.9574   91.2187 O   0  0  0  0  0  0  0  0  0  0  0  0
   72.3303   77.3875   90.3983 H   0  0  0  0  0  0  0  0  0  0  0  0
   68.3398   80.1297   89.1126 N   0  0  0  0  0  0  0  0  0  0  0  0
   67.9999   80.2574   88.1975 H   0  0  0  0  0  0  0  0  0  0  0  0
   68.6612   81.3254   89.8958 C   0  0  0  0  0  0  0  0  0  0  0  0
   73.1458   83.7531   89.2542 C   0  0  0  0  0  0  0  0  0  0  0  0
   71.7406   83.4085   88.8302 C   0  0  0  0  0  0  0  0  0  0  0  0
   71.2205   84.0271   87.6829 C   0  0  0  0  0  0  0  0  0  0  0  0
   69.9295   83.7471   87.2490 C   0  0  0  0  0  0  0  0  0  0  0  0
   69.1259   82.8672   87.9661 C   0  0  0  0  0  0  0  0  0  0  0  0
   69.5992   82.2490   89.1371 C   0  0  0  0  0  0  0  0  0  0  0  0
   70.9480   82.4645   89.5409 C   0  0  0  0  0  0  0  0  0  0  0  0
   71.5143   81.7230   90.7339 C   0  0  0  0  0  0  0  0  0  0  0  0
 16 17  1  0  0  0
 17 18  2  0  0  0
 18 19  1  0  0  0
 19 20  2  0  0  0
 20 21  1  0  0  0
 21 15  1  0  0  0
 15 13  1  0  0  0
 13  1  1  0  0  0
  1  2  2  0  0  0
  2  3  1  0  0  0
  3  4  2  0  0  0
  4  5  1  0  0  0
  4  6  1  0  0  0
  6  9  1  0  0  0
  9 10  2  0  0  0
  9 11  1  0  0  0
  6  7  2  0  0  0
 21 22  2  0  0  0
 22 23  1  0  0  0
 22 17  1  0  0  0
  7  1  1  0  0  0
 13 14  1  0  0  0
  5  8  1  0  0  0
 11 12  1  0  0  0
M  END
> <score>
0.247786

> <minimizedAffinity>
-6.90519

> <CNNscore>
0.7733536363

> <CNNaffinity>
5.1543836594

> <CNN_VS>
3.9861612320

$$$$
HIPS5164


 23 24  0  0  0  0  0  0  0  0999 V2000
   70.1642   80.2280   89.9890 C   0  0  0  0  0  0  0  0  0  0  0  0
   68.8094   79.9487   89.7704 C   0  0  0  0  0  0  0  0  0  0  0  0
   68.2959   78.6786   90.0315 C   0  0  0  0  0  0  0  0  0  0  0  0
   69.1225   77.6595   90.5143 C   0  0  0  0  0  0  0  0  0  0  0  0
   68.5625   76.3912   90.6808 O   0  0  0  0  0  0  0  0  0  0  0  0
   70.4862   77.9314   90.7797 C   0  0  0  0  0  0  0  0  0  0  0  0
   70.9971   79.2102   90.4903 C   0  0  0  0  0  0  0  0  0  0  0  0
   67.6549   76.2516   90.4943 H   0  0  0  0  0  0  0  0  0  0  0  0
   71.3885   76.9297   91.3892 C   0  0  0  0  0  0  0  0  0  0  0  0
   70.9206   76.0396   92.1499 O   0  0  0  0  0  0  0  0  0  0  0  0
   72.7462   76.9197   91.0826 O   0  0  0  0  0  0  0  0  0  0  0  0
   73.1039   77.5767   90.5183 H   0  0  0  0  0  0  0  0  0  0  0  0
   70.6622   81.5516   89.7079 N   0  0  0  0  0  0  0  0  0  0  0  0
   71.5409   81.6288   89.2707 H   0  0  0  0  0  0  0  0  0  0  0  0
   69.9473   82.7893   90.0295 C   0  0  0  0  0  0  0  0  0  0  0  0
   69.8948   87.6672   88.4106 C   0  0  0  0  0  0  0  0  0  0  0  0
   70.5467   86.3159   88.5593 C   0  0  0  0  0  0  0  0  0  0  0  0
   71.7993   86.1113   87.9606 C   0  0  0  0  0  0  0  0  0  0  0  0
   72.4438   84.8836   88.0647 C   0  0  0  0  0  0  0  0  0  0  0  0
   71.8388   83.8314   88.7436 C   0  0  0  0  0  0  0  0  0  0  0  0
   70.5713   83.9866   89.3325 C   0  0  0  0  0  0  0  0  0  0  0  0
   69.9426   85.2643   89.3034 C   0  0  0  0  0  0  0  0  0  0  0  0
   68.6303   85.4850   90.0268 C   0  0  0  0  0  0  0  0  0  0  0  0
 16 17  1  0  0  0
 17 18  2  0  0  0
 18 19  1  0  0  0
 19 20  2  0  0  0
 20 21  1  0  0  0
 21 15  1  0  0  0
 15 13  1  0  0  0
 13  1  1  0  0  0
  1  2  2  0  0  0
  2  3  1  0  0  0
  3  4  2  0  0  0
  4  5  1  0  0  0
  4  6  1  0  0  0
  6  9  1  0  0  0
  9 10  2  0  0  0
  9 11  1  0  0  0
  6  7  2  0  0  0
 21 22  2  0  0  0
 22 23  1  0  0  0
 22 17  1  0  0  0
  7  1  1  0  0  0
 13 14  1  0  0  0
  5  8  1  0  0  0
 11 12  1  0  0  0
M  END
> <score>
0.247786

> <minimizedAffinity>
-6.59430

> <CNNscore>
0.7409142852

> <CNNaffinity>
4.9820852280

> <CNN_VS>
3.6912980080

$$$$
HIPS5164


 23 24  0  0  0  0  0  0  0  0999 V2000
   70.0908   78.6878   90.3613 C   0  0  0  0  0  0  0  0  0  0  0  0
   71.3515   78.1730   90.6879 C   0  0  0  0  0  0  0  0  0  0  0  0
   71.4687   76.9550   91.3573 C   0  0  0  0  0  0  0  0  0  0  0  0
   70.3315   76.2255   91.7169 C   0  0  0  0  0  0  0  0  0  0  0  0
   70.5161   75.0534   92.4532 O   0  0  0  0  0  0  0  0  0  0  0  0
   69.0491   76.7083   91.3613 C   0  0  0  0  0  0  0  0  0  0  0  0
   68.9433   77.9493   90.7066 C   0  0  0  0  0  0  0  0  0  0  0  0
   71.3818   74.7669   92.6687 H   0  0  0  0  0  0  0  0  0  0  0  0
   67.8138   75.9355   91.6179 C   0  0  0  0  0  0  0  0  0  0  0  0
   66.7866   76.5174   92.0609 O   0  0  0  0  0  0  0  0  0  0  0  0
   67.7518   74.5781   91.3164 O   0  0  0  0  0  0  0  0  0  0  0  0
   68.5095   74.1364   90.9867 H   0  0  0  0  0  0  0  0  0  0  0  0
   70.0057   79.9500   89.6697 N   0  0  0  0  0  0  0  0  0  0  0  0
   70.0092   79.9359   88.6853 H   0  0  0  0  0  0  0  0  0  0  0  0
   69.9144   81.2523   90.3347 C   0  0  0  0  0  0  0  0  0  0  0  0
   70.9805   84.9393   86.9159 C   0  0  0  0  0  0  0  0  0  0  0  0
   71.3523   84.0296   88.0594 C   0  0  0  0  0  0  0  0  0  0  0  0
   72.6708   84.0670   88.5384 C   0  0  0  0  0  0  0  0  0  0  0  0
   73.0676   83.2475   89.5894 C   0  0  0  0  0  0  0  0  0  0  0  0
   72.1650   82.3579   90.1620 C   0  0  0  0  0  0  0  0  0  0  0  0
   70.8427   82.2689   89.6917 C   0  0  0  0  0  0  0  0  0  0  0  0
   70.4050   83.1636   88.6735 C   0  0  0  0  0  0  0  0  0  0  0  0
   68.9571   83.1633   88.2293 C   0  0  0  0  0  0  0  0  0  0  0  0
 16 17  1  0  0  0
 17 18  2  0  0  0
 18 19  1  0  0  0
 19 20  2  0  0  0
 20 21  1  0  0  0
 21 15  1  0  0  0
 15 13  1  0  0  0
 13  1  1  0  0  0
  1  2  2  0  0  0
  2  3  1  0  0  0
  3  4  2  0  0  0
  4  5  1  0  0  0
  4  6  1  0  0  0
  6  9  1  0  0  0
  9 10  2  0  0  0
  9 11  1  0  0  0
  6  7  2  0  0  0
 21 22  2  0  0  0
 22 23  1  0  0  0
 22 17  1  0  0  0
  7  1  1  0  0  0
 13 14  1  0  0  0
  5  8  1  0  0  0
 11 12  1  0  0  0
M  END
> <score>
0.247786

> <minimizedAffinity>
-7.14208

> <CNNscore>
0.5968058705

> <CNNaffinity>
4.8326644897

> <CNN_VS>
2.8841624260

$$$$
HIPS5165


 28 30  0  0  0  0  0  0  0  0999 V2000
   68.0147   78.6788   89.1762 N   0  0  0  0  0  0  0  0  0  0  0  0
   67.7681   78.1423   88.3884 H   0  0  0  0  0  0  0  0  0  0  0  0
   69.9541   76.9474   91.9189 C   0  0  0  0  0  0  0  0  0  0  0  0
   68.8800   77.4145   91.1402 C   0  0  0  0  0  0  0  0  0  0  0  0
   69.1007   78.2068   89.9983 C   0  0  0  0  0  0  0  0  0  0  0  0
   70.4149   78.5397   89.6484 C   0  0  0  0  0  0  0  0  0  0  0  0
   71.4880   78.1025   90.4246 C   0  0  0  0  0  0  0  0  0  0  0  0
   71.2736   77.3270   91.5681 C   0  0  0  0  0  0  0  0  0  0  0  0
   72.3871   76.9882   92.3403 O   0  0  0  0  0  0  0  0  0  0  0  0
   73.2431   77.2593   92.0724 H   0  0  0  0  0  0  0  0  0  0  0  0
   70.1274   76.2798   94.2018 O   0  0  0  0  0  0  0  0  0  0  0  0
   69.6551   76.0491   93.0568 C   0  0  0  0  0  0  0  0  0  0  0  0
   68.8961   74.8998   92.8511 O   0  0  0  0  0  0  0  0  0  0  0  0
   68.5403   74.7188   92.0035 H   0  0  0  0  0  0  0  0  0  0  0  0
   67.2538   79.9028   89.4345 C   0  0  0  0  0  0  0  0  0  0  0  0
   67.8179   81.0612   88.6433 C   0  0  0  0  0  0  0  0  0  0  0  0
   67.3437   81.2901   87.3390 C   0  0  0  0  0  0  0  0  0  0  0  0
   67.8029   82.3807   86.5970 C   0  0  0  0  0  0  0  0  0  0  0  0
   68.7424   83.2539   87.1455 C   0  0  0  0  0  0  0  0  0  0  0  0
   69.2393   83.0283   88.4303 C   0  0  0  0  0  0  0  0  0  0  0  0
   68.8058   81.9255   89.1762 C   0  0  0  0  0  0  0  0  0  0  0  0
   69.3565   81.7272   90.4480 O   0  0  0  0  0  0  0  0  0  0  0  0
   69.0399   82.4971   91.5775 C   0  0  0  0  0  0  0  0  0  0  0  0
   67.7752   82.4398   92.1958 C   0  0  0  0  0  0  0  0  0  0  0  0
   67.5055   83.2280   93.3188 C   0  0  0  0  0  0  0  0  0  0  0  0
   68.4920   84.0719   93.8360 C   0  0  0  0  0  0  0  0  0  0  0  0
   69.7512   84.1266   93.2323 C   0  0  0  0  0  0  0  0  0  0  0  0
   70.0242   83.3400   92.1089 C   0  0  0  0  0  0  0  0  0  0  0  0
 11 12  2  0  0  0
 12 13  1  0  0  0
 12  3  1  0  0  0
  3  4  2  0  0  0
  4  5  1  0  0  0
  5  1  1  0  0  0
  1 15  1  0  0  0
 15 16  1  0  0  0
 16 17  2  0  0  0
 17 18  1  0  0  0
 18 19  2  0  0  0
 19 20  1  0  0  0
 20 21  2  0  0  0
 21 22  1  0  0  0
 22 23  1  0  0  0
 23 24  2  0  0  0
 24 25  1  0  0  0
 25 26  2  0  0  0
 26 27  1  0  0  0
 27 28  2  0  0  0
  5  6  2  0  0  0
  6  7  1  0  0  0
  7  8  2  0  0  0
  8  9  1  0  0  0
  8  3  1  0  0  0
 21 16  1  0  0  0
 28 23  1  0  0  0
 13 14  1  0  0  0
  1  2  1  0  0  0
  9 10  1  0  0  0
M  END
> <score>
0.444367

> <minimizedAffinity>
-6.89039

> <CNNscore>
0.6082284451

> <CNNaffinity>
5.6233596802

> <CNN_VS>
3.4202873707

$$$$
HIPS5165


 28 30  0  0  0  0  0  0  0  0999 V2000
   67.4816   78.3677   89.1583 N   0  0  0  0  0  0  0  0  0  0  0  0
   66.6033   78.0339   88.8644 H   0  0  0  0  0  0  0  0  0  0  0  0
   70.3985   76.9017   91.0620 C   0  0  0  0  0  0  0  0  0  0  0  0
   69.6494   77.7282   90.2052 C   0  0  0  0  0  0  0  0  0  0  0  0
   68.2705   77.5198   90.0166 C   0  0  0  0  0  0  0  0  0  0  0  0
   67.6472   76.4613   90.6886 C   0  0  0  0  0  0  0  0  0  0  0  0
   68.3824   75.6200   91.5232 C   0  0  0  0  0  0  0  0  0  0  0  0
   69.7554   75.8138   91.7032 C   0  0  0  0  0  0  0  0  0  0  0  0
   70.4433   74.8888   92.4920 O   0  0  0  0  0  0  0  0  0  0  0  0
   69.9796   74.1833   92.8986 H   0  0  0  0  0  0  0  0  0  0  0  0
   72.3058   77.2779   92.4434 O   0  0  0  0  0  0  0  0  0  0  0  0
   71.8255   77.2294   91.2796 C   0  0  0  0  0  0  0  0  0  0  0  0
   72.6357   77.5510   90.1937 O   0  0  0  0  0  0  0  0  0  0  0  0
   72.2884   77.5181   89.3240 H   0  0  0  0  0  0  0  0  0  0  0  0
   67.8992   79.6921   88.6943 C   0  0  0  0  0  0  0  0  0  0  0  0
   67.6421   80.7373   89.7563 C   0  0  0  0  0  0  0  0  0  0  0  0
   66.3142   81.0308   90.1156 C   0  0  0  0  0  0  0  0  0  0  0  0
   66.0391   81.9521   91.1285 C   0  0  0  0  0  0  0  0  0  0  0  0
   67.0844   82.5939   91.7930 C   0  0  0  0  0  0  0  0  0  0  0  0
   68.4072   82.3301   91.4334 C   0  0  0  0  0  0  0  0  0  0  0  0
   68.6968   81.4269   90.4036 C   0  0  0  0  0  0  0  0  0  0  0  0
   70.0384   81.2192   90.0614 O   0  0  0  0  0  0  0  0  0  0  0  0
   70.8812   82.2044   89.5250 C   0  0  0  0  0  0  0  0  0  0  0  0
   70.4816   83.0376   88.4614 C   0  0  0  0  0  0  0  0  0  0  0  0
   71.3577   84.0044   87.9585 C   0  0  0  0  0  0  0  0  0  0  0  0
   72.6318   84.1519   88.5132 C   0  0  0  0  0  0  0  0  0  0  0  0
   73.0307   83.3343   89.5741 C   0  0  0  0  0  0  0  0  0  0  0  0
   72.1572   82.3662   90.0792 C   0  0  0  0  0  0  0  0  0  0  0  0
 11 12  2  0  0  0
 12 13  1  0  0  0
 12  3  1  0  0  0
  3  4  2  0  0  0
  4  5  1  0  0  0
  5  1  1  0  0  0
  1 15  1  0  0  0
 15 16  1  0  0  0
 16 17  2  0  0  0
 17 18  1  0  0  0
 18 19  2  0  0  0
 19 20  1  0  0  0
 20 21  2  0  0  0
 21 22  1  0  0  0
 22 23  1  0  0  0
 23 24  2  0  0  0
 24 25  1  0  0  0
 25 26  2  0  0  0
 26 27  1  0  0  0
 27 28  2  0  0  0
  5  6  2  0  0  0
  6  7  1  0  0  0
  7  8  2  0  0  0
  8  9  1  0  0  0
  8  3  1  0  0  0
 21 16  1  0  0  0
 28 23  1  0  0  0
 13 14  1  0  0  0
  1  2  1  0  0  0
  9 10  1  0  0  0
M  END
> <score>
0.444367

> <minimizedAffinity>
-7.43687

> <CNNscore>
0.5997663736

> <CNNaffinity>
5.7105112076

> <CNN_VS>
3.4249725342

$$$$
HIPS5165


 28 30  0  0  0  0  0  0  0  0999 V2000
   67.9556   77.9733   88.6319 N   0  0  0  0  0  0  0  0  0  0  0  0
   67.5883   77.2229   88.1110 H   0  0  0  0  0  0  0  0  0  0  0  0
   69.6398   76.4747   91.6649 C   0  0  0  0  0  0  0  0  0  0  0  0
   68.6659   76.7702   90.6940 C   0  0  0  0  0  0  0  0  0  0  0  0
   68.9333   77.6722   89.6475 C   0  0  0  0  0  0  0  0  0  0  0  0
   70.1888   78.2893   89.5891 C   0  0  0  0  0  0  0  0  0  0  0  0
   71.1557   78.0230   90.5582 C   0  0  0  0  0  0  0  0  0  0  0  0
   70.8906   77.1385   91.6082 C   0  0  0  0  0  0  0  0  0  0  0  0
   71.8760   76.9768   92.5848 O   0  0  0  0  0  0  0  0  0  0  0  0
   72.6900   77.4347   92.5092 H   0  0  0  0  0  0  0  0  0  0  0  0
   68.2201   75.4763   93.3004 O   0  0  0  0  0  0  0  0  0  0  0  0
   69.3210   75.4536   92.6880 C   0  0  0  0  0  0  0  0  0  0  0  0
   70.2700   74.4926   93.0269 O   0  0  0  0  0  0  0  0  0  0  0  0
   71.0919   74.4670   92.5777 H   0  0  0  0  0  0  0  0  0  0  0  0
   67.4722   79.3204   88.3231 C   0  0  0  0  0  0  0  0  0  0  0  0
   67.2190   80.1025   89.5921 C   0  0  0  0  0  0  0  0  0  0  0  0
   66.1296   79.7444   90.4068 C   0  0  0  0  0  0  0  0  0  0  0  0
   65.8948   80.4096   91.6122 C   0  0  0  0  0  0  0  0  0  0  0  0
   66.7414   81.4415   92.0181 C   0  0  0  0  0  0  0  0  0  0  0  0
   67.8140   81.8235   91.2105 C   0  0  0  0  0  0  0  0  0  0  0  0
   68.0470   81.1816   89.9882 C   0  0  0  0  0  0  0  0  0  0  0  0
   69.1182   81.6217   89.2017 O   0  0  0  0  0  0  0  0  0  0  0  0
   69.0605   82.7149   88.3240 C   0  0  0  0  0  0  0  0  0  0  0  0
   67.8390   83.2525   87.8725 C   0  0  0  0  0  0  0  0  0  0  0  0
   67.8318   84.3419   86.9959 C   0  0  0  0  0  0  0  0  0  0  0  0
   69.0370   84.9056   86.5687 C   0  0  0  0  0  0  0  0  0  0  0  0
   70.2517   84.3823   87.0201 C   0  0  0  0  0  0  0  0  0  0  0  0
   70.2625   83.2927   87.8964 C   0  0  0  0  0  0  0  0  0  0  0  0
 11 12  2  0  0  0
 12 13  1  0  0  0
 12  3  1  0  0  0
  3  4  2  0  0  0
  4  5  1  0  0  0
  5  1  1  0  0  0
  1 15  1  0  0  0
 15 16  1  0  0  0
 16 17  2  0  0  0
 17 18  1  0  0  0
 18 19  2  0  0  0
 19 20  1  0  0  0
 20 21  2  0  0  0
 21 22  1  0  0  0
 22 23  1  0  0  0
 23 24  2  0  0  0
 24 25  1  0  0  0
 25 26  2  0  0  0
 26 27  1  0  0  0
 27 28  2  0  0  0
  5  6  2  0  0  0
  6  7  1  0  0  0
  7  8  2  0  0  0
  8  9  1  0  0  0
  8  3  1  0  0  0
 21 16  1  0  0  0
 28 23  1  0  0  0
 13 14  1  0  0  0
  1  2  1  0  0  0
  9 10  1  0  0  0
M  END
> <score>
0.444367

> <minimizedAffinity>
-7.15181

> <CNNscore>
0.5222963095

> <CNNaffinity>
5.7085485458

> <CNN_VS>
2.9815537930

$$$$
HIPS5238


 31 33  0  0  0  0  0  0  0  0999 V2000
   68.4709   77.4474   91.0572 C   0  0  0  0  0  0  0  0  0  0  0  0
   67.7631   78.4244   90.3460 C   0  0  0  0  0  0  0  0  0  0  0  0
   68.4192   79.5339   89.8133 C   0  0  0  0  0  0  0  0  0  0  0  0
   69.8050   79.6841   89.9815 C   0  0  0  0  0  0  0  0  0  0  0  0
   70.5223   78.6923   90.6581 C   0  0  0  0  0  0  0  0  0  0  0  0
   69.8781   77.5585   91.1876 C   0  0  0  0  0  0  0  0  0  0  0  0
   67.0592   76.4972   92.9068 C   0  0  0  0  0  0  0  0  0  0  0  0
   67.0862   77.5939   93.5290 O   0  0  0  0  0  0  0  0  0  0  0  0
   67.7343   76.3680   91.6500 N   0  0  0  0  0  0  0  0  0  0  0  0
   67.6913   75.5066   91.1752 H   0  0  0  0  0  0  0  0  0  0  0  0
   66.3689   75.3903   93.4220 O   0  0  0  0  0  0  0  0  0  0  0  0
   65.9930   73.8305   95.1969 C   0  0  0  0  0  0  0  0  0  0  0  0
   66.9542   74.2544   94.0759 C   0  0  0  0  0  0  0  0  0  0  0  0
   68.3126   74.6270   94.7001 C   0  0  0  0  0  0  0  0  0  0  0  0
   67.1130   73.0831   93.0873 C   0  0  0  0  0  0  0  0  0  0  0  0
   70.6991   76.4944   91.8152 C   0  0  0  0  0  0  0  0  0  0  0  0
   71.8021   76.7810   92.3547 O   0  0  0  0  0  0  0  0  0  0  0  0
   70.2828   75.1662   91.7863 O   0  0  0  0  0  0  0  0  0  0  0  0
   69.4652   74.9401   91.3883 H   0  0  0  0  0  0  0  0  0  0  0  0
   70.5130   80.7902   89.4852 O   0  0  0  0  0  0  0  0  0  0  0  0
   70.9321   81.9204   90.2516 C   0  0  0  0  0  0  0  0  0  0  0  0
   71.3130   83.0743   89.3482 C   0  0  0  0  0  0  0  0  0  0  0  0
   72.6154   83.5964   89.4377 C   0  0  0  0  0  0  0  0  0  0  0  0
   73.0273   84.6385   88.6084 C   0  0  0  0  0  0  0  0  0  0  0  0
   72.1479   85.1865   87.6780 C   0  0  0  0  0  0  0  0  0  0  0  0
   70.8371   84.7025   87.5749 C   0  0  0  0  0  0  0  0  0  0  0  0
   69.9540   85.2678   86.6413 C   0  0  0  0  0  0  0  0  0  0  0  0
   68.6441   84.7996   86.5386 C   0  0  0  0  0  0  0  0  0  0  0  0
   68.2022   83.7688   87.3670 C   0  0  0  0  0  0  0  0  0  0  0  0
   69.0674   83.1940   88.3011 C   0  0  0  0  0  0  0  0  0  0  0  0
   70.4011   83.6430   88.4173 C   0  0  0  0  0  0  0  0  0  0  0  0
 12 13  1  0  0  0
 13 14  1  0  0  0
 13 15  1  0  0  0
 13 11  1  0  0  0
 11  7  1  0  0  0
  7  8  2  0  0  0
  7  9  1  0  0  0
  9  1  1  0  0  0
  1  2  2  0  0  0
  2  3  1  0  0  0
  3  4  2  0  0  0
  4 20  1  0  0  0
 20 21  1  0  0  0
 21 22  1  0  0  0
 22 23  2  0  0  0
 23 24  1  0  0  0
 24 25  2  0  0  0
 25 26  1  0  0  0
 26 27  2  0  0  0
 27 28  1  0  0  0
 28 29  2  0  0  0
 29 30  1  0  0  0
 30 31  2  0  0  0
  4  5  1  0  0  0
  5  6  2  0  0  0
  6 16  1  0  0  0
 16 17  2  0  0  0
 16 18  1  0  0  0
  6  1  1  0  0  0
 31 22  1  0  0  0
 31 26  1  0  0  0
  9 10  1  0  0  0
 18 19  1  0  0  0
M  END
> <score>
0.047072

> <minimizedAffinity>
-8.35106

> <CNNscore>
0.7783104777

> <CNNaffinity>
6.0323228836

> <CNN_VS>
4.6950201988

$$$$
HIPS5238


 31 33  0  0  0  0  0  0  0  0999 V2000
   68.4657   77.4967   91.1364 C   0  0  0  0  0  0  0  0  0  0  0  0
   67.6779   78.4255   90.4450 C   0  0  0  0  0  0  0  0  0  0  0  0
   68.2531   79.5549   89.8628 C   0  0  0  0  0  0  0  0  0  0  0  0
   69.6365   79.7740   89.9604 C   0  0  0  0  0  0  0  0  0  0  0  0
   70.4328   78.8302   90.6170 C   0  0  0  0  0  0  0  0  0  0  0  0
   69.8704   77.6771   91.1959 C   0  0  0  0  0  0  0  0  0  0  0  0
   67.1946   76.5143   93.0693 C   0  0  0  0  0  0  0  0  0  0  0  0
   67.2004   77.6219   93.6726 O   0  0  0  0  0  0  0  0  0  0  0  0
   67.8116   76.3947   91.7821 N   0  0  0  0  0  0  0  0  0  0  0  0
   67.7860   75.5240   91.3233 H   0  0  0  0  0  0  0  0  0  0  0  0
   66.5842   75.3857   93.6356 O   0  0  0  0  0  0  0  0  0  0  0  0
   67.3994   73.1529   93.3623 C   0  0  0  0  0  0  0  0  0  0  0  0
   67.2477   74.3266   94.3418 C   0  0  0  0  0  0  0  0  0  0  0  0
   66.4042   73.8643   95.5453 C   0  0  0  0  0  0  0  0  0  0  0  0
   68.6485   74.7763   94.8001 C   0  0  0  0  0  0  0  0  0  0  0  0
   70.7713   76.6651   91.7997 C   0  0  0  0  0  0  0  0  0  0  0  0
   71.8467   77.0237   92.3518 O   0  0  0  0  0  0  0  0  0  0  0  0
   70.4615   75.3093   91.7343 O   0  0  0  0  0  0  0  0  0  0  0  0
   69.6654   75.0298   91.3267 H   0  0  0  0  0  0  0  0  0  0  0  0
   70.2653   80.9030   89.4120 O   0  0  0  0  0  0  0  0  0  0  0  0
   70.9271   81.9283   90.1547 C   0  0  0  0  0  0  0  0  0  0  0  0
   70.1897   83.2450   90.0326 C   0  0  0  0  0  0  0  0  0  0  0  0
   69.9668   83.7741   88.7491 C   0  0  0  0  0  0  0  0  0  0  0  0
   69.2671   84.9677   88.5785 C   0  0  0  0  0  0  0  0  0  0  0  0
   68.7814   85.6623   89.6835 C   0  0  0  0  0  0  0  0  0  0  0  0
   69.0017   85.1731   90.9778 C   0  0  0  0  0  0  0  0  0  0  0  0
   68.5175   85.8852   92.0866 C   0  0  0  0  0  0  0  0  0  0  0  0
   68.7408   85.4115   93.3794 C   0  0  0  0  0  0  0  0  0  0  0  0
   69.4511   84.2283   93.5784 C   0  0  0  0  0  0  0  0  0  0  0  0
   69.9395   83.5063   92.4867 C   0  0  0  0  0  0  0  0  0  0  0  0
   69.7176   83.9592   91.1678 C   0  0  0  0  0  0  0  0  0  0  0  0
 12 13  1  0  0  0
 13 14  1  0  0  0
 13 15  1  0  0  0
 13 11  1  0  0  0
 11  7  1  0  0  0
  7  8  2  0  0  0
  7  9  1  0  0  0
  9  1  1  0  0  0
  1  2  2  0  0  0
  2  3  1  0  0  0
  3  4  2  0  0  0
  4 20  1  0  0  0
 20 21  1  0  0  0
 21 22  1  0  0  0
 22 23  2  0  0  0
 23 24  1  0  0  0
 24 25  2  0  0  0
 25 26  1  0  0  0
 26 27  2  0  0  0
 27 28  1  0  0  0
 28 29  2  0  0  0
 29 30  1  0  0  0
 30 31  2  0  0  0
  4  5  1  0  0  0
  5  6  2  0  0  0
  6 16  1  0  0  0
 16 17  2  0  0  0
 16 18  1  0  0  0
  6  1  1  0  0  0
 31 22  1  0  0  0
 31 26  1  0  0  0
  9 10  1  0  0  0
 18 19  1  0  0  0
M  END
> <score>
0.047072

> <minimizedAffinity>
-7.40002

> <CNNscore>
0.5506667495

> <CNNaffinity>
5.8939371109

> <CNN_VS>
3.2455952168

$$$$
HIPS5238


 31 33  0  0  0  0  0  0  0  0999 V2000
   68.8394   77.2595   91.1202 C   0  0  0  0  0  0  0  0  0  0  0  0
   69.6953   77.8575   90.1867 C   0  0  0  0  0  0  0  0  0  0  0  0
   69.4793   79.1671   89.7582 C   0  0  0  0  0  0  0  0  0  0  0  0
   68.3976   79.9069   90.2622 C   0  0  0  0  0  0  0  0  0  0  0  0
   67.5624   79.3274   91.2227 C   0  0  0  0  0  0  0  0  0  0  0  0
   67.7760   78.0128   91.6779 C   0  0  0  0  0  0  0  0  0  0  0  0
   70.0882   75.4792   92.3804 C   0  0  0  0  0  0  0  0  0  0  0  0
   70.8278   76.3437   92.9249 O   0  0  0  0  0  0  0  0  0  0  0  0
   69.0623   75.8850   91.4667 N   0  0  0  0  0  0  0  0  0  0  0  0
   68.4887   75.1951   91.0614 H   0  0  0  0  0  0  0  0  0  0  0  0
   70.2466   74.1137   92.6584 O   0  0  0  0  0  0  0  0  0  0  0  0
   70.3784   72.2417   94.1426 C   0  0  0  0  0  0  0  0  0  0  0  0
   69.4628   73.3384   93.5777 C   0  0  0  0  0  0  0  0  0  0  0  0
   68.2773   72.6722   92.8534 C   0  0  0  0  0  0  0  0  0  0  0  0
   68.9647   74.2184   94.7404 C   0  0  0  0  0  0  0  0  0  0  0  0
   66.9160   77.4807   92.7631 C   0  0  0  0  0  0  0  0  0  0  0  0
   66.4871   78.2495   93.6657 O   0  0  0  0  0  0  0  0  0  0  0  0
   66.6012   76.1257   92.8199 O   0  0  0  0  0  0  0  0  0  0  0  0
   66.9139   75.5438   92.1553 H   0  0  0  0  0  0  0  0  0  0  0  0
   68.1208   81.2203   89.8509 O   0  0  0  0  0  0  0  0  0  0  0  0
   68.5651   82.4080   90.5086 C   0  0  0  0  0  0  0  0  0  0  0  0
   69.9098   82.8514   89.9723 C   0  0  0  0  0  0  0  0  0  0  0  0
   71.0736   82.3985   90.6183 C   0  0  0  0  0  0  0  0  0  0  0  0
   72.3372   82.7522   90.1476 C   0  0  0  0  0  0  0  0  0  0  0  0
   72.4672   83.5701   89.0280 C   0  0  0  0  0  0  0  0  0  0  0  0
   71.3282   84.0542   88.3712 C   0  0  0  0  0  0  0  0  0  0  0  0
   71.4685   84.8867   87.2494 C   0  0  0  0  0  0  0  0  0  0  0  0
   70.3405   85.3819   86.5951 C   0  0  0  0  0  0  0  0  0  0  0  0
   69.0651   85.0560   87.0549 C   0  0  0  0  0  0  0  0  0  0  0  0
   68.9067   84.2283   88.1690 C   0  0  0  0  0  0  0  0  0  0  0  0
   70.0326   83.7057   88.8424 C   0  0  0  0  0  0  0  0  0  0  0  0
 12 13  1  0  0  0
 13 14  1  0  0  0
 13 15  1  0  0  0
 13 11  1  0  0  0
 11  7  1  0  0  0
  7  8  2  0  0  0
  7  9  1  0  0  0
  9  1  1  0  0  0
  1  2  2  0  0  0
  2  3  1  0  0  0
  3  4  2  0  0  0
  4 20  1  0  0  0
 20 21  1  0  0  0
 21 22  1  0  0  0
 22 23  2  0  0  0
 23 24  1  0  0  0
 24 25  2  0  0  0
 25 26  1  0  0  0
 26 27  2  0  0  0
 27 28  1  0  0  0
 28 29  2  0  0  0
 29 30  1  0  0  0
 30 31  2  0  0  0
  4  5  1  0  0  0
  5  6  2  0  0  0
  6 16  1  0  0  0
 16 17  2  0  0  0
 16 18  1  0  0  0
  6  1  1  0  0  0
 31 22  1  0  0  0
 31 26  1  0  0  0
  9 10  1  0  0  0
 18 19  1  0  0  0
M  END
> <score>
0.047072

> <minimizedAffinity>
-8.20152

> <CNNscore>
0.5260741711

> <CNNaffinity>
5.9092760086

> <CNN_VS>
3.1087174416

$$$$
HIPS5239


 25 27  0  0  0  0  0  0  0  0999 V2000
   67.4008   79.9379   89.1053 C   0  0  0  0  0  0  0  0  0  0  0  0
   67.8054   81.1634   88.3489 C   0  0  0  0  0  0  0  0  0  0  0  0
   67.1753   81.6636   87.2282 C   0  0  0  0  0  0  0  0  0  0  0  0
   67.8660   82.8079   86.8909 C   0  0  0  0  0  0  0  0  0  0  0  0
   68.8770   82.9355   87.8324 C   0  0  0  0  0  0  0  0  0  0  0  0
   68.8104   81.9370   88.6851 O   0  0  0  0  0  0  0  0  0  0  0  0
   69.8921   84.0111   87.9143 C   0  0  0  0  0  0  0  0  0  0  0  0
   71.2537   83.6731   88.0145 C   0  0  0  0  0  0  0  0  0  0  0  0
   72.2286   84.6718   88.0951 C   0  0  0  0  0  0  0  0  0  0  0  0
   71.8564   86.0188   88.0764 C   0  0  0  0  0  0  0  0  0  0  0  0
   73.0814   87.2702   88.1777 Cl  0  0  0  0  0  0  0  0  0  0  0  0
   70.5065   86.3668   87.9767 C   0  0  0  0  0  0  0  0  0  0  0  0
   69.5279   85.3711   87.8960 C   0  0  0  0  0  0  0  0  0  0  0  0
   68.1620   79.8353   90.3500 N   0  0  0  0  0  0  0  0  0  0  0  0
   67.9520   80.4732   91.0699 H   0  0  0  0  0  0  0  0  0  0  0  0
   69.8511   76.6839   91.4945 C   0  0  0  0  0  0  0  0  0  0  0  0
   71.1775   76.9329   91.1064 C   0  0  0  0  0  0  0  0  0  0  0  0
   71.5132   78.1274   90.4668 C   0  0  0  0  0  0  0  0  0  0  0  0
   70.5337   79.0878   90.2085 C   0  0  0  0  0  0  0  0  0  0  0  0
   69.1989   78.8639   90.5947 C   0  0  0  0  0  0  0  0  0  0  0  0
   68.8683   77.6564   91.2320 C   0  0  0  0  0  0  0  0  0  0  0  0
   70.3877   74.7204   92.7308 O   0  0  0  0  0  0  0  0  0  0  0  0
   69.4975   75.4158   92.1704 C   0  0  0  0  0  0  0  0  0  0  0  0
   68.1758   74.9777   92.1938 O   0  0  0  0  0  0  0  0  0  0  0  0
   67.5062   75.4864   91.7806 H   0  0  0  0  0  0  0  0  0  0  0  0
 22 23  2  0  0  0
 23 24  1  0  0  0
 23 16  1  0  0  0
 16 17  2  0  0  0
 17 18  1  0  0  0
 18 19  2  0  0  0
 19 20  1  0  0  0
 20 14  1  0  0  0
 14  1  1  0  0  0
  1  2  1  0  0  0
  2  3  2  0  0  0
  3  4  1  0  0  0
  4  5  2  0  0  0
  5  7  1  0  0  0
  7  8  2  0  0  0
  8  9  1  0  0  0
  9 10  2  0  0  0
 10 11  1  0  0  0
 10 12  1  0  0  0
 12 13  2  0  0  0
  5  6  1  0  0  0
 20 21  2  0  0  0
 21 16  1  0  0  0
  6  2  1  0  0  0
 13  7  1  0  0  0
 24 25  1  0  0  0
 14 15  1  0  0  0
M  END
> <score>
0.010774

> <minimizedAffinity>
-7.20206

> <CNNscore>
0.7873511314

> <CNNaffinity>
5.6784181595

> <CNN_VS>
4.4709091187

$$$$
HIPS5239


 25 27  0  0  0  0  0  0  0  0999 V2000
   67.1586   80.1591   89.5835 C   0  0  0  0  0  0  0  0  0  0  0  0
   67.9669   81.3391   90.0216 C   0  0  0  0  0  0  0  0  0  0  0  0
   68.0685   81.8115   91.3138 C   0  0  0  0  0  0  0  0  0  0  0  0
   68.9315   82.8847   91.2523 C   0  0  0  0  0  0  0  0  0  0  0  0
   69.3053   82.9986   89.9210 C   0  0  0  0  0  0  0  0  0  0  0  0
   68.7103   82.0612   89.2170 O   0  0  0  0  0  0  0  0  0  0  0  0
   70.2310   83.9951   89.3343 C   0  0  0  0  0  0  0  0  0  0  0  0
   71.5612   83.6290   89.0613 C   0  0  0  0  0  0  0  0  0  0  0  0
   72.4528   84.5538   88.5097 C   0  0  0  0  0  0  0  0  0  0  0  0
   72.0274   85.8539   88.2238 C   0  0  0  0  0  0  0  0  0  0  0  0
   73.1477   87.0127   87.5317 Cl  0  0  0  0  0  0  0  0  0  0  0  0
   70.7077   86.2291   88.4904 C   0  0  0  0  0  0  0  0  0  0  0  0
   69.8125   85.3074   89.0424 C   0  0  0  0  0  0  0  0  0  0  0  0
   68.0257   79.1432   88.9874 N   0  0  0  0  0  0  0  0  0  0  0  0
   68.5611   79.4005   88.2023 H   0  0  0  0  0  0  0  0  0  0  0  0
   69.2819   76.1896   90.9349 C   0  0  0  0  0  0  0  0  0  0  0  0
   68.4463   75.1711   90.4486 C   0  0  0  0  0  0  0  0  0  0  0  0
   67.4717   75.4551   89.4905 C   0  0  0  0  0  0  0  0  0  0  0  0
   67.3194   76.7547   89.0041 C   0  0  0  0  0  0  0  0  0  0  0  0
   68.1499   77.7907   89.4711 C   0  0  0  0  0  0  0  0  0  0  0  0
   69.1239   77.4975   90.4402 C   0  0  0  0  0  0  0  0  0  0  0  0
   71.2434   76.7049   92.1832 O   0  0  0  0  0  0  0  0  0  0  0  0
   70.3127   75.8861   91.9523 C   0  0  0  0  0  0  0  0  0  0  0  0
   70.2645   74.6910   92.6656 O   0  0  0  0  0  0  0  0  0  0  0  0
   69.5774   74.0753   92.5022 H   0  0  0  0  0  0  0  0  0  0  0  0
 22 23  2  0  0  0
 23 24  1  0  0  0
 23 16  1  0  0  0
 16 17  2  0  0  0
 17 18  1  0  0  0
 18 19  2  0  0  0
 19 20  1  0  0  0
 20 14  1  0  0  0
 14  1  1  0  0  0
  1  2  1  0  0  0
  2  3  2  0  0  0
  3  4  1  0  0  0
  4  5  2  0  0  0
  5  7  1  0  0  0
  7  8  2  0  0  0
  8  9  1  0  0  0
  9 10  2  0  0  0
 10 11  1  0  0  0
 10 12  1  0  0  0
 12 13  2  0  0  0
  5  6  1  0  0  0
 20 21  2  0  0  0
 21 16  1  0  0  0
  6  2  1  0  0  0
 13  7  1  0  0  0
 24 25  1  0  0  0
 14 15  1  0  0  0
M  END
> <score>
0.010774

> <minimizedAffinity>
-6.80831

> <CNNscore>
0.6596161723

> <CNNaffinity>
5.6162672043

> <CNN_VS>
3.7045807838

$$$$
HIPS5239


 25 27  0  0  0  0  0  0  0  0999 V2000
   67.1234   76.3945   88.3910 C   0  0  0  0  0  0  0  0  0  0  0  0
   67.3309   75.0185   88.9400 C   0  0  0  0  0  0  0  0  0  0  0  0
   66.7418   73.8645   88.4663 C   0  0  0  0  0  0  0  0  0  0  0  0
   67.2388   72.8435   89.2479 C   0  0  0  0  0  0  0  0  0  0  0  0
   68.1053   73.4414   90.1517 C   0  0  0  0  0  0  0  0  0  0  0  0
   68.1342   74.7384   89.9388 O   0  0  0  0  0  0  0  0  0  0  0  0
   68.9021   72.7701   91.2045 C   0  0  0  0  0  0  0  0  0  0  0  0
   69.2662   73.4847   92.3599 C   0  0  0  0  0  0  0  0  0  0  0  0
   70.0198   72.8718   93.3653 C   0  0  0  0  0  0  0  0  0  0  0  0
   70.4184   71.5392   93.2297 C   0  0  0  0  0  0  0  0  0  0  0  0
   71.3639   70.7722   94.4925 Cl  0  0  0  0  0  0  0  0  0  0  0  0
   70.0622   70.8189   92.0863 C   0  0  0  0  0  0  0  0  0  0  0  0
   69.3086   71.4280   91.0779 C   0  0  0  0  0  0  0  0  0  0  0  0
   67.2451   77.3895   89.4560 N   0  0  0  0  0  0  0  0  0  0  0  0
   66.4409   77.5955   89.9853 H   0  0  0  0  0  0  0  0  0  0  0  0
   70.6983   78.0424   90.7763 C   0  0  0  0  0  0  0  0  0  0  0  0
   70.8570   79.4004   90.4559 C   0  0  0  0  0  0  0  0  0  0  0  0
   69.8369   80.0956   89.8043 C   0  0  0  0  0  0  0  0  0  0  0  0
   68.6472   79.4481   89.4665 C   0  0  0  0  0  0  0  0  0  0  0  0
   68.4622   78.0894   89.7838 C   0  0  0  0  0  0  0  0  0  0  0  0
   69.4965   77.3954   90.4338 C   0  0  0  0  0  0  0  0  0  0  0  0
   71.6829   77.0208   92.6890 O   0  0  0  0  0  0  0  0  0  0  0  0
   71.7823   77.3072   91.4651 C   0  0  0  0  0  0  0  0  0  0  0  0
   72.9246   76.9242   90.7666 O   0  0  0  0  0  0  0  0  0  0  0  0
   73.0091   77.1319   89.8568 H   0  0  0  0  0  0  0  0  0  0  0  0
 22 23  2  0  0  0
 23 24  1  0  0  0
 23 16  1  0  0  0
 16 17  2  0  0  0
 17 18  1  0  0  0
 18 19  2  0  0  0
 19 20  1  0  0  0
 20 14  1  0  0  0
 14  1  1  0  0  0
  1  2  1  0  0  0
  2  3  2  0  0  0
  3  4  1  0  0  0
  4  5  2  0  0  0
  5  7  1  0  0  0
  7  8  2  0  0  0
  8  9  1  0  0  0
  9 10  2  0  0  0
 10 11  1  0  0  0
 10 12  1  0  0  0
 12 13  2  0  0  0
  5  6  1  0  0  0
 20 21  2  0  0  0
 21 16  1  0  0  0
  6  2  1  0  0  0
 13  7  1  0  0  0
 24 25  1  0  0  0
 14 15  1  0  0  0
M  END
> <score>
0.010774

> <minimizedAffinity>
-7.29484

> <CNNscore>
0.5947527289

> <CNNaffinity>
5.5437698364

> <CNN_VS>
3.2971723080

$$$$
HIPS529


 31 33  0  0  0  0  0  0  0  0999 V2000
   68.6481   77.6516   91.6486 C   0  0  0  0  0  0  0  0  0  0  0  0
   67.9911   78.7125   91.0085 C   0  0  0  0  0  0  0  0  0  0  0  0
   68.8026   79.4196   90.1193 C   0  0  0  0  0  0  0  0  0  0  0  0
   70.3397   78.7242   90.1668 S   0  0  0  0  0  0  0  0  0  0  0  0
   69.9958   77.5277   91.2957 C   0  0  0  0  0  0  0  0  0  0  0  0
   68.4069   80.5818   89.2821 C   0  0  0  0  0  0  0  0  0  0  0  0
   67.4401   80.4502   88.2676 C   0  0  0  0  0  0  0  0  0  0  0  0
   67.0769   81.5497   87.4858 C   0  0  0  0  0  0  0  0  0  0  0  0
   67.6701   82.7968   87.6995 C   0  0  0  0  0  0  0  0  0  0  0  0
   67.1836   84.1536   86.6925 Cl  0  0  0  0  0  0  0  0  0  0  0  0
   68.6385   82.9429   88.7052 C   0  0  0  0  0  0  0  0  0  0  0  0
   69.4845   84.6292   89.0412 Br  0  0  0  0  0  0  0  0  0  0  0  0
   69.0023   81.8407   89.4877 C   0  0  0  0  0  0  0  0  0  0  0  0
   66.9715   74.5748   93.2138 N   0  0  0  0  0  0  0  0  0  0  0  0
   67.6110   75.4436   92.2479 C   0  0  0  0  0  0  0  0  0  0  0  0
   67.8666   75.0059   91.0921 O   0  0  0  0  0  0  0  0  0  0  0  0
   67.9696   76.7981   92.5784 N   0  0  0  0  0  0  0  0  0  0  0  0
   67.7418   77.1484   93.4698 H   0  0  0  0  0  0  0  0  0  0  0  0
   66.3372   74.0689   95.5478 C   0  0  0  0  0  0  0  0  0  0  0  0
   66.3347   75.1085   94.4286 C   0  0  0  0  0  0  0  0  0  0  0  0
   66.9277   73.1232   92.9765 C   0  0  0  0  0  0  0  0  0  0  0  0
   68.3211   72.5545   92.9368 C   0  0  0  0  0  0  0  0  0  0  0  0
   69.2302   72.8290   93.9728 C   0  0  0  0  0  0  0  0  0  0  0  0
   70.5103   72.2671   93.9544 C   0  0  0  0  0  0  0  0  0  0  0  0
   70.8907   71.4252   92.9060 C   0  0  0  0  0  0  0  0  0  0  0  0
   69.9909   71.1429   91.8748 C   0  0  0  0  0  0  0  0  0  0  0  0
   68.7094   71.7022   91.8897 C   0  0  0  0  0  0  0  0  0  0  0  0
   71.0030   76.6128   91.8578 C   0  0  0  0  0  0  0  0  0  0  0  0
   72.1119   77.0483   92.2671 O   0  0  0  0  0  0  0  0  0  0  0  0
   70.7394   75.2476   91.9097 O   0  0  0  0  0  0  0  0  0  0  0  0
   69.9165   74.9175   91.6068 H   0  0  0  0  0  0  0  0  0  0  0  0
 19 20  1  0  0  0
 20 14  1  0  0  0
 14 21  1  0  0  0
 21 22  1  0  0  0
 22 23  2  0  0  0
 23 24  1  0  0  0
 24 25  2  0  0  0
 25 26  1  0  0  0
 26 27  2  0  0  0
 14 15  1  0  0  0
 15 16  2  0  0  0
 15 17  1  0  0  0
 17  1  1  0  0  0
  1  2  1  0  0  0
  2  3  2  0  0  0
  3  6  1  0  0  0
  6  7  2  0  0  0
  7  8  1  0  0  0
  8  9  2  0  0  0
  9 10  1  0  0  0
  9 11  1  0  0  0
 11 12  1  0  0  0
 11 13  2  0  0  0
  3  4  1  0  0  0
  4  5  1  0  0  0
  5 28  1  0  0  0
 28 29  2  0  0  0
 28 30  1  0  0  0
 27 22  1  0  0  0
  5  1  2  0  0  0
 13  6  1  0  0  0
 17 18  1  0  0  0
 30 31  1  0  0  0
M  END
> <score>
-1.456417

> <minimizedAffinity>
-8.06324

> <CNNscore>
0.8136391044

> <CNNaffinity>
6.5503702164

> <CNN_VS>
5.3296375275

$$$$
HIPS529


 31 33  0  0  0  0  0  0  0  0999 V2000
   67.4256   77.1239   88.7662 C   0  0  0  0  0  0  0  0  0  0  0  0
   67.4808   78.3425   89.4582 C   0  0  0  0  0  0  0  0  0  0  0  0
   67.2669   79.4581   88.6466 C   0  0  0  0  0  0  0  0  0  0  0  0
   67.0387   78.9057   87.0682 S   0  0  0  0  0  0  0  0  0  0  0  0
   67.1984   77.2646   87.3933 C   0  0  0  0  0  0  0  0  0  0  0  0
   67.2495   80.8814   89.0735 C   0  0  0  0  0  0  0  0  0  0  0  0
   66.8882   81.2416   90.3854 C   0  0  0  0  0  0  0  0  0  0  0  0
   66.8743   82.5832   90.7752 C   0  0  0  0  0  0  0  0  0  0  0  0
   67.2179   83.5877   89.8664 C   0  0  0  0  0  0  0  0  0  0  0  0
   67.1867   85.2631   90.3990 Cl  0  0  0  0  0  0  0  0  0  0  0  0
   67.5770   83.2444   88.5536 C   0  0  0  0  0  0  0  0  0  0  0  0
   68.0565   84.5806   87.2663 Br  0  0  0  0  0  0  0  0  0  0  0  0
   67.5902   81.9000   88.1636 C   0  0  0  0  0  0  0  0  0  0  0  0
   68.5667   74.4726   91.2954 N   0  0  0  0  0  0  0  0  0  0  0  0
   68.4415   75.7342   90.5957 C   0  0  0  0  0  0  0  0  0  0  0  0
   69.0796   76.7409   91.0107 O   0  0  0  0  0  0  0  0  0  0  0  0
   67.5976   75.8695   89.4372 N   0  0  0  0  0  0  0  0  0  0  0  0
   67.1247   75.0764   89.0957 H   0  0  0  0  0  0  0  0  0  0  0  0
   69.0760   72.0631   91.0937 C   0  0  0  0  0  0  0  0  0  0  0  0
   68.1485   73.2037   90.6783 C   0  0  0  0  0  0  0  0  0  0  0  0
   69.1472   74.4399   92.6472 C   0  0  0  0  0  0  0  0  0  0  0  0
   68.0619   74.5185   93.6876 C   0  0  0  0  0  0  0  0  0  0  0  0
   68.1967   73.8342   94.9077 C   0  0  0  0  0  0  0  0  0  0  0  0
   67.2062   73.9411   95.8888 C   0  0  0  0  0  0  0  0  0  0  0  0
   66.0779   74.7336   95.6617 C   0  0  0  0  0  0  0  0  0  0  0  0
   65.9390   75.4216   94.4533 C   0  0  0  0  0  0  0  0  0  0  0  0
   66.9275   75.3180   93.4698 C   0  0  0  0  0  0  0  0  0  0  0  0
   67.2009   76.2173   86.3587 C   0  0  0  0  0  0  0  0  0  0  0  0
   67.5123   76.4880   85.1685 O   0  0  0  0  0  0  0  0  0  0  0  0
   66.8257   74.9197   86.6926 O   0  0  0  0  0  0  0  0  0  0  0  0
   66.5929   74.7120   87.5761 H   0  0  0  0  0  0  0  0  0  0  0  0
 19 20  1  0  0  0
 20 14  1  0  0  0
 14 21  1  0  0  0
 21 22  1  0  0  0
 22 23  2  0  0  0
 23 24  1  0  0  0
 24 25  2  0  0  0
 25 26  1  0  0  0
 26 27  2  0  0  0
 14 15  1  0  0  0
 15 16  2  0  0  0
 15 17  1  0  0  0
 17  1  1  0  0  0
  1  2  1  0  0  0
  2  3  2  0  0  0
  3  6  1  0  0  0
  6  7  2  0  0  0
  7  8  1  0  0  0
  8  9  2  0  0  0
  9 10  1  0  0  0
  9 11  1  0  0  0
 11 12  1  0  0  0
 11 13  2  0  0  0
  3  4  1  0  0  0
  4  5  1  0  0  0
  5 28  1  0  0  0
 28 29  2  0  0  0
 28 30  1  0  0  0
 27 22  1  0  0  0
  5  1  2  0  0  0
 13  6  1  0  0  0
 17 18  1  0  0  0
 30 31  1  0  0  0
M  END
> <score>
-1.456417

> <minimizedAffinity>
-7.36782

> <CNNscore>
0.4357767105

> <CNNaffinity>
6.5227613449

> <CNN_VS>
2.8424675465

$$$$
HIPS529


 31 33  0  0  0  0  0  0  0  0999 V2000
   67.4607   78.5272   89.4615 C   0  0  0  0  0  0  0  0  0  0  0  0
   67.3431   78.1986   90.8198 C   0  0  0  0  0  0  0  0  0  0  0  0
   67.3020   76.8243   91.0625 C   0  0  0  0  0  0  0  0  0  0  0  0
   67.3858   76.0392   89.5709 S   0  0  0  0  0  0  0  0  0  0  0  0
   67.4824   77.4161   88.6122 C   0  0  0  0  0  0  0  0  0  0  0  0
   67.1940   76.1551   92.3849 C   0  0  0  0  0  0  0  0  0  0  0  0
   66.1208   76.4311   93.2529 C   0  0  0  0  0  0  0  0  0  0  0  0
   66.0305   75.7966   94.4944 C   0  0  0  0  0  0  0  0  0  0  0  0
   67.0063   74.8792   94.8930 C   0  0  0  0  0  0  0  0  0  0  0  0
   66.8536   74.1041   96.4638 Cl  0  0  0  0  0  0  0  0  0  0  0  0
   68.0844   74.5963   94.0398 C   0  0  0  0  0  0  0  0  0  0  0  0
   69.4509   73.3475   94.5356 Br  0  0  0  0  0  0  0  0  0  0  0  0
   68.1747   75.2327   92.7962 C   0  0  0  0  0  0  0  0  0  0  0  0
   68.0652   82.3169   89.4357 N   0  0  0  0  0  0  0  0  0  0  0  0
   67.9374   80.9532   89.9057 C   0  0  0  0  0  0  0  0  0  0  0  0
   68.1828   80.6872   91.1148 O   0  0  0  0  0  0  0  0  0  0  0  0
   67.5419   79.8884   89.0212 N   0  0  0  0  0  0  0  0  0  0  0  0
   67.3206   80.1018   88.0860 H   0  0  0  0  0  0  0  0  0  0  0  0
   68.4013   82.4618   86.9920 C   0  0  0  0  0  0  0  0  0  0  0  0
   67.4664   82.7538   88.1643 C   0  0  0  0  0  0  0  0  0  0  0  0
   68.7874   83.3071   90.2501 C   0  0  0  0  0  0  0  0  0  0  0  0
   70.2371   83.3623   89.8478 C   0  0  0  0  0  0  0  0  0  0  0  0
   70.6921   84.3577   88.9661 C   0  0  0  0  0  0  0  0  0  0  0  0
   72.0462   84.4318   88.6255 C   0  0  0  0  0  0  0  0  0  0  0  0
   72.9552   83.5176   89.1644 C   0  0  0  0  0  0  0  0  0  0  0  0
   72.5116   82.5282   90.0460 C   0  0  0  0  0  0  0  0  0  0  0  0
   71.1585   82.4509   90.3899 C   0  0  0  0  0  0  0  0  0  0  0  0
   67.4756   77.3960   87.1402 C   0  0  0  0  0  0  0  0  0  0  0  0
   67.7473   78.4341   86.4803 O   0  0  0  0  0  0  0  0  0  0  0  0
   67.1355   76.2251   86.4698 O   0  0  0  0  0  0  0  0  0  0  0  0
   66.9324   75.4496   86.9549 H   0  0  0  0  0  0  0  0  0  0  0  0
 19 20  1  0  0  0
 20 14  1  0  0  0
 14 21  1  0  0  0
 21 22  1  0  0  0
 22 23  2  0  0  0
 23 24  1  0  0  0
 24 25  2  0  0  0
 25 26  1  0  0  0
 26 27  2  0  0  0
 14 15  1  0  0  0
 15 16  2  0  0  0
 15 17  1  0  0  0
 17  1  1  0  0  0
  1  2  1  0  0  0
  2  3  2  0  0  0
  3  6  1  0  0  0
  6  7  2  0  0  0
  7  8  1  0  0  0
  8  9  2  0  0  0
  9 10  1  0  0  0
  9 11  1  0  0  0
 11 12  1  0  0  0
 11 13  2  0  0  0
  3  4  1  0  0  0
  4  5  1  0  0  0
  5 28  1  0  0  0
 28 29  2  0  0  0
 28 30  1  0  0  0
 27 22  1  0  0  0
  5  1  2  0  0  0
 13  6  1  0  0  0
 17 18  1  0  0  0
 30 31  1  0  0  0
M  END
> <score>
-1.456417

> <minimizedAffinity>
-7.57842

> <CNNscore>
0.4132380188

> <CNNaffinity>
6.4709329605

> <CNN_VS>
2.6740355492

$$$$
HIPS550


 40 42  0  0  0  0  0  0  0  0999 V2000
   68.6017   77.7657   91.7976 C   0  0  0  0  0  0  0  0  0  0  0  0
   67.9216   78.8092   91.1427 C   0  0  0  0  0  0  0  0  0  0  0  0
   68.7002   79.4825   90.2007 C   0  0  0  0  0  0  0  0  0  0  0  0
   70.2234   78.7596   90.1814 S   0  0  0  0  0  0  0  0  0  0  0  0
   69.9194   77.5995   91.3587 C   0  0  0  0  0  0  0  0  0  0  0  0
   68.2788   80.6291   89.3562 C   0  0  0  0  0  0  0  0  0  0  0  0
   67.8630   80.4346   88.0281 C   0  0  0  0  0  0  0  0  0  0  0  0
   67.4506   81.5159   87.2485 C   0  0  0  0  0  0  0  0  0  0  0  0
   67.4358   82.8101   87.7762 C   0  0  0  0  0  0  0  0  0  0  0  0
   66.8902   84.1177   86.7300 Cl  0  0  0  0  0  0  0  0  0  0  0  0
   67.8428   83.0276   89.1113 C   0  0  0  0  0  0  0  0  0  0  0  0
   68.2681   81.9322   89.8839 C   0  0  0  0  0  0  0  0  0  0  0  0
   67.8069   84.3969   89.7523 C   0  0  0  0  0  0  0  0  0  0  0  0
   69.1560   85.1322   89.6612 C   0  0  0  0  0  0  0  0  0  0  0  0
   69.2079   86.2076   88.5576 C   0  0  0  0  0  0  0  0  0  0  0  0
   70.0415   85.7715   87.3433 C   0  0  0  0  0  0  0  0  0  0  0  0
   70.9771   84.7144   87.7216 N   0  0  0  0  0  0  0  0  0  0  0  0
   72.3244   84.9814   88.1277 C   0  0  0  0  0  0  0  0  0  0  0  0
   72.7420   86.1693   88.2108 O   0  0  0  0  0  0  0  0  0  0  0  0
   70.6684   83.7799   87.6964 H   0  0  0  0  0  0  0  0  0  0  0  0
   73.1687   83.9118   88.4377 O   0  0  0  0  0  0  0  0  0  0  0  0
   73.1080   83.2218   89.6806 C   0  0  0  0  0  0  0  0  0  0  0  0
   67.0562   74.6539   93.4471 N   0  0  0  0  0  0  0  0  0  0  0  0
   67.5261   75.5663   92.4248 C   0  0  0  0  0  0  0  0  0  0  0  0
   67.5456   75.1880   91.2210 O   0  0  0  0  0  0  0  0  0  0  0  0
   67.9680   76.8980   92.7515 N   0  0  0  0  0  0  0  0  0  0  0  0
   67.8298   77.2280   93.6687 H   0  0  0  0  0  0  0  0  0  0  0  0
   66.3365   73.9533   95.7075 C   0  0  0  0  0  0  0  0  0  0  0  0
   66.6680   75.1259   94.7863 C   0  0  0  0  0  0  0  0  0  0  0  0
   66.9602   73.2164   93.1445 C   0  0  0  0  0  0  0  0  0  0  0  0
   68.3321   72.6120   93.0021 C   0  0  0  0  0  0  0  0  0  0  0  0
   68.6606   71.8474   91.8693 C   0  0  0  0  0  0  0  0  0  0  0  0
   69.9273   71.2661   91.7545 C   0  0  0  0  0  0  0  0  0  0  0  0
   70.8724   71.4391   92.7690 C   0  0  0  0  0  0  0  0  0  0  0  0
   70.5537   72.1964   93.8995 C   0  0  0  0  0  0  0  0  0  0  0  0
   69.2892   72.7821   94.0172 C   0  0  0  0  0  0  0  0  0  0  0  0
   70.9244   76.6381   91.8427 C   0  0  0  0  0  0  0  0  0  0  0  0
   72.0830   77.0181   92.1576 O   0  0  0  0  0  0  0  0  0  0  0  0
   70.5965   75.2888   91.9329 O   0  0  0  0  0  0  0  0  0  0  0  0
   69.7363   74.9991   91.7002 H   0  0  0  0  0  0  0  0  0  0  0  0
 28 29  1  0  0  0
 29 23  1  0  0  0
 23 30  1  0  0  0
 30 31  1  0  0  0
 31 32  2  0  0  0
 32 33  1  0  0  0
 33 34  2  0  0  0
 34 35  1  0  0  0
 35 36  2  0  0  0
 23 24  1  0  0  0
 24 25  2  0  0  0
 24 26  1  0  0  0
 26  1  1  0  0  0
  1  2  1  0  0  0
  2  3  2  0  0  0
  3  6  1  0  0  0
  6  7  2  0  0  0
  7  8  1  0  0  0
  8  9  2  0  0  0
  9 10  1  0  0  0
  9 11  1  0  0  0
 11 13  1  0  0  0
 13 14  1  0  0  0
 14 15  1  0  0  0
 15 16  1  0  0  0
 16 17  1  0  0  0
 17 18  1  0  0  0
 18 19  2  0  0  0
 18 21  1  0  0  0
 21 22  1  0  0  0
 11 12  2  0  0  0
  3  4  1  0  0  0
  4  5  1  0  0  0
  5 37  1  0  0  0
 37 38  2  0  0  0
 37 39  1  0  0  0
 36 31  1  0  0  0
  5  1  2  0  0  0
 12  6  1  0  0  0
 26 27  1  0  0  0
 17 20  1  0  0  0
 39 40  1  0  0  0
M  END
> <score>
-0.492814

> <minimizedAffinity>
-7.82162

> <CNNscore>
0.6754890680

> <CNNaffinity>
6.9852743149

> <CNN_VS>
4.7184762955

$$$$
HIPS550


 40 42  0  0  0  0  0  0  0  0999 V2000
   68.7163   77.7085   91.6947 C   0  0  0  0  0  0  0  0  0  0  0  0
   68.0579   78.7538   91.0208 C   0  0  0  0  0  0  0  0  0  0  0  0
   68.8596   79.4136   90.0887 C   0  0  0  0  0  0  0  0  0  0  0  0
   70.3760   78.6764   90.1015 S   0  0  0  0  0  0  0  0  0  0  0  0
   70.0400   77.5271   91.2807 C   0  0  0  0  0  0  0  0  0  0  0  0
   68.4643   80.5584   89.2292 C   0  0  0  0  0  0  0  0  0  0  0  0
   67.4620   80.4184   88.2544 C   0  0  0  0  0  0  0  0  0  0  0  0
   67.0840   81.5050   87.4647 C   0  0  0  0  0  0  0  0  0  0  0  0
   67.6890   82.7535   87.6342 C   0  0  0  0  0  0  0  0  0  0  0  0
   67.1460   84.0759   86.6055 Cl  0  0  0  0  0  0  0  0  0  0  0  0
   68.6937   82.9186   88.6134 C   0  0  0  0  0  0  0  0  0  0  0  0
   69.0753   81.8136   89.3951 C   0  0  0  0  0  0  0  0  0  0  0  0
   69.3537   84.2541   88.8742 C   0  0  0  0  0  0  0  0  0  0  0  0
   68.5210   85.1589   89.7998 C   0  0  0  0  0  0  0  0  0  0  0  0
   68.8852   85.0298   91.2924 C   0  0  0  0  0  0  0  0  0  0  0  0
   67.6712   84.6953   92.1723 C   0  0  0  0  0  0  0  0  0  0  0  0
   66.6818   83.9389   91.4077 N   0  0  0  0  0  0  0  0  0  0  0  0
   66.4753   82.5327   91.5856 C   0  0  0  0  0  0  0  0  0  0  0  0
   67.1302   81.8972   92.4571 O   0  0  0  0  0  0  0  0  0  0  0  0
   66.1344   84.4156   90.7427 H   0  0  0  0  0  0  0  0  0  0  0  0
   65.5353   81.8745   90.7881 O   0  0  0  0  0  0  0  0  0  0  0  0
   64.9347   80.6421   91.1690 C   0  0  0  0  0  0  0  0  0  0  0  0
   67.1215   74.6196   93.3404 N   0  0  0  0  0  0  0  0  0  0  0  0
   67.6184   75.5195   92.3198 C   0  0  0  0  0  0  0  0  0  0  0  0
   67.6645   75.1284   91.1208 O   0  0  0  0  0  0  0  0  0  0  0  0
   68.0575   76.8531   92.6426 N   0  0  0  0  0  0  0  0  0  0  0  0
   67.8992   77.1932   93.5528 H   0  0  0  0  0  0  0  0  0  0  0  0
   66.3083   73.9478   95.5777 C   0  0  0  0  0  0  0  0  0  0  0  0
   66.7040   75.1071   94.6652 C   0  0  0  0  0  0  0  0  0  0  0  0
   67.0273   73.1794   93.0508 C   0  0  0  0  0  0  0  0  0  0  0  0
   68.3995   72.5645   92.9681 C   0  0  0  0  0  0  0  0  0  0  0  0
   68.7655   71.7836   91.8583 C   0  0  0  0  0  0  0  0  0  0  0  0
   70.0316   71.1928   91.7989 C   0  0  0  0  0  0  0  0  0  0  0  0
   70.9387   71.3726   92.8464 C   0  0  0  0  0  0  0  0  0  0  0  0
   70.5825   72.1462   93.9545 C   0  0  0  0  0  0  0  0  0  0  0  0
   69.3185   72.7413   94.0167 C   0  0  0  0  0  0  0  0  0  0  0  0
   71.0271   76.5597   91.7889 C   0  0  0  0  0  0  0  0  0  0  0  0
   72.2047   76.9176   92.0553 O   0  0  0  0  0  0  0  0  0  0  0  0
   70.6600   75.2280   91.9567 O   0  0  0  0  0  0  0  0  0  0  0  0
   69.7855   74.9547   91.7604 H   0  0  0  0  0  0  0  0  0  0  0  0
 28 29  1  0  0  0
 29 23  1  0  0  0
 23 30  1  0  0  0
 30 31  1  0  0  0
 31 32  2  0  0  0
 32 33  1  0  0  0
 33 34  2  0  0  0
 34 35  1  0  0  0
 35 36  2  0  0  0
 23 24  1  0  0  0
 24 25  2  0  0  0
 24 26  1  0  0  0
 26  1  1  0  0  0
  1  2  1  0  0  0
  2  3  2  0  0  0
  3  6  1  0  0  0
  6  7  2  0  0  0
  7  8  1  0  0  0
  8  9  2  0  0  0
  9 10  1  0  0  0
  9 11  1  0  0  0
 11 13  1  0  0  0
 13 14  1  0  0  0
 14 15  1  0  0  0
 15 16  1  0  0  0
 16 17  1  0  0  0
 17 18  1  0  0  0
 18 19  2  0  0  0
 18 21  1  0  0  0
 21 22  1  0  0  0
 11 12  2  0  0  0
  3  4  1  0  0  0
  4  5  1  0  0  0
  5 37  1  0  0  0
 37 38  2  0  0  0
 37 39  1  0  0  0
 36 31  1  0  0  0
  5  1  2  0  0  0
 12  6  1  0  0  0
 26 27  1  0  0  0
 17 20  1  0  0  0
 39 40  1  0  0  0
M  END
> <score>
-0.492814

> <minimizedAffinity>
-7.34573

> <CNNscore>
0.6466596723

> <CNNaffinity>
7.1169776917

> <CNN_VS>
4.6022624969

$$$$
HIPS550


 40 42  0  0  0  0  0  0  0  0999 V2000
   67.3953   78.7865   88.7024 C   0  0  0  0  0  0  0  0  0  0  0  0
   67.2459   78.5700   90.0848 C   0  0  0  0  0  0  0  0  0  0  0  0
   67.0833   77.2274   90.4283 C   0  0  0  0  0  0  0  0  0  0  0  0
   67.1442   76.3221   89.0071 S   0  0  0  0  0  0  0  0  0  0  0  0
   67.3699   77.6082   87.9492 C   0  0  0  0  0  0  0  0  0  0  0  0
   66.8927   76.6767   91.7943 C   0  0  0  0  0  0  0  0  0  0  0  0
   66.5374   77.5116   92.8673 C   0  0  0  0  0  0  0  0  0  0  0  0
   66.3418   76.9819   94.1434 C   0  0  0  0  0  0  0  0  0  0  0  0
   66.4875   75.6115   94.3759 C   0  0  0  0  0  0  0  0  0  0  0  0
   66.2112   75.0219   96.0123 Cl  0  0  0  0  0  0  0  0  0  0  0  0
   66.8371   74.7527   93.3101 C   0  0  0  0  0  0  0  0  0  0  0  0
   67.0438   75.2992   92.0309 C   0  0  0  0  0  0  0  0  0  0  0  0
   66.9662   73.2566   93.4892 C   0  0  0  0  0  0  0  0  0  0  0  0
   67.5844   72.5615   92.2630 C   0  0  0  0  0  0  0  0  0  0  0  0
   69.0218   72.0530   92.4919 C   0  0  0  0  0  0  0  0  0  0  0  0
   69.9531   73.1392   93.0512 C   0  0  0  0  0  0  0  0  0  0  0  0
   70.2438   74.1379   92.0246 N   0  0  0  0  0  0  0  0  0  0  0  0
   70.3109   75.5408   92.3058 C   0  0  0  0  0  0  0  0  0  0  0  0
   70.1562   75.9631   93.4847 O   0  0  0  0  0  0  0  0  0  0  0  0
   70.4000   73.8338   91.1014 H   0  0  0  0  0  0  0  0  0  0  0  0
   70.5568   76.4354   91.2608 O   0  0  0  0  0  0  0  0  0  0  0  0
   71.6671   77.3253   91.2579 C   0  0  0  0  0  0  0  0  0  0  0  0
   68.3015   82.5079   88.3509 N   0  0  0  0  0  0  0  0  0  0  0  0
   67.8746   81.2565   88.9425 C   0  0  0  0  0  0  0  0  0  0  0  0
   67.6944   81.1928   90.1900 O   0  0  0  0  0  0  0  0  0  0  0  0
   67.6470   80.0835   88.1376 N   0  0  0  0  0  0  0  0  0  0  0  0
   67.6648   80.1746   87.1575 H   0  0  0  0  0  0  0  0  0  0  0  0
   67.9899   84.2482   86.6210 C   0  0  0  0  0  0  0  0  0  0  0  0
   68.1844   82.7599   86.9053 C   0  0  0  0  0  0  0  0  0  0  0  0
   68.8659   83.5595   89.2124 C   0  0  0  0  0  0  0  0  0  0  0  0
   70.3613   83.4143   89.3157 C   0  0  0  0  0  0  0  0  0  0  0  0
   70.9297   82.5441   90.2619 C   0  0  0  0  0  0  0  0  0  0  0  0
   72.3195   82.4330   90.3717 C   0  0  0  0  0  0  0  0  0  0  0  0
   73.1508   83.1910   89.5431 C   0  0  0  0  0  0  0  0  0  0  0  0
   72.5940   84.0598   88.6006 C   0  0  0  0  0  0  0  0  0  0  0  0
   71.2048   84.1720   88.4853 C   0  0  0  0  0  0  0  0  0  0  0  0
   67.4614   77.4618   86.4867 C   0  0  0  0  0  0  0  0  0  0  0  0
   68.2148   78.2090   85.8084 O   0  0  0  0  0  0  0  0  0  0  0  0
   66.6891   76.4996   85.8432 O   0  0  0  0  0  0  0  0  0  0  0  0
   66.1264   75.9403   86.3417 H   0  0  0  0  0  0  0  0  0  0  0  0
 28 29  1  0  0  0
 29 23  1  0  0  0
 23 30  1  0  0  0
 30 31  1  0  0  0
 31 32  2  0  0  0
 32 33  1  0  0  0
 33 34  2  0  0  0
 34 35  1  0  0  0
 35 36  2  0  0  0
 23 24  1  0  0  0
 24 25  2  0  0  0
 24 26  1  0  0  0
 26  1  1  0  0  0
  1  2  1  0  0  0
  2  3  2  0  0  0
  3  6  1  0  0  0
  6  7  2  0  0  0
  7  8  1  0  0  0
  8  9  2  0  0  0
  9 10  1  0  0  0
  9 11  1  0  0  0
 11 13  1  0  0  0
 13 14  1  0  0  0
 14 15  1  0  0  0
 15 16  1  0  0  0
 16 17  1  0  0  0
 17 18  1  0  0  0
 18 19  2  0  0  0
 18 21  1  0  0  0
 21 22  1  0  0  0
 11 12  2  0  0  0
  3  4  1  0  0  0
  4  5  1  0  0  0
  5 37  1  0  0  0
 37 38  2  0  0  0
 37 39  1  0  0  0
 36 31  1  0  0  0
  5  1  2  0  0  0
 12  6  1  0  0  0
 26 27  1  0  0  0
 17 20  1  0  0  0
 39 40  1  0  0  0
M  END
> <score>
-0.492814

> <minimizedAffinity>
-7.94158

> <CNNscore>
0.6007453799

> <CNNaffinity>
7.3201532364

> <CNN_VS>
4.3975481987

$$$$
HIPS5763


 24 26  0  0  0  0  0  0  0  0999 V2000
   69.3544   77.1677   91.6210 C   0  0  0  0  0  0  0  0  0  0  0  0
   69.4970   78.3156   90.8197 C   0  0  0  0  0  0  0  0  0  0  0  0
   68.4236   79.1945   90.6328 C   0  0  0  0  0  0  0  0  0  0  0  0
   67.1951   78.9349   91.2451 C   0  0  0  0  0  0  0  0  0  0  0  0
   67.0325   77.7900   92.0261 C   0  0  0  0  0  0  0  0  0  0  0  0
   68.0907   76.8905   92.2051 C   0  0  0  0  0  0  0  0  0  0  0  0
   67.8356   75.7273   92.9349 O   0  0  0  0  0  0  0  0  0  0  0  0
   66.9867   75.5827   93.3043 H   0  0  0  0  0  0  0  0  0  0  0  0
   71.6868   76.6952   91.4704 O   0  0  0  0  0  0  0  0  0  0  0  0
   70.5444   76.3176   91.8447 C   0  0  0  0  0  0  0  0  0  0  0  0
   70.3968   75.0582   92.4199 O   0  0  0  0  0  0  0  0  0  0  0  0
   69.5517   74.7679   92.7015 H   0  0  0  0  0  0  0  0  0  0  0  0
   68.5923   80.3749   89.8274 C   0  0  0  0  0  0  0  0  0  0  0  0
   68.7348   81.3595   89.1467 C   0  0  0  0  0  0  0  0  0  0  0  0
   68.9068   82.5351   88.3258 C   0  0  0  0  0  0  0  0  0  0  0  0
   67.8394   82.9402   87.5123 C   0  0  0  0  0  0  0  0  0  0  0  0
   67.9551   84.0696   86.7008 C   0  0  0  0  0  0  0  0  0  0  0  0
   69.1375   84.8101   86.6902 C   0  0  0  0  0  0  0  0  0  0  0  0
   70.2200   84.4257   87.4958 C   0  0  0  0  0  0  0  0  0  0  0  0
   71.4078   85.1737   87.4842 C   0  0  0  0  0  0  0  0  0  0  0  0
   72.4861   84.7939   88.2854 C   0  0  0  0  0  0  0  0  0  0  0  0
   72.3915   83.6666   89.1026 C   0  0  0  0  0  0  0  0  0  0  0  0
   71.2171   82.9107   89.1263 C   0  0  0  0  0  0  0  0  0  0  0  0
   70.1135   83.2773   88.3256 C   0  0  0  0  0  0  0  0  0  0  0  0
  9 10  2  0  0  0
 10 11  1  0  0  0
 10  1  1  0  0  0
  1  2  2  0  0  0
  2  3  1  0  0  0
  3 13  1  0  0  0
 13 14  3  0  0  0
 14 15  1  0  0  0
 15 16  2  0  0  0
 16 17  1  0  0  0
 17 18  2  0  0  0
 18 19  1  0  0  0
 19 20  2  0  0  0
 20 21  1  0  0  0
 21 22  2  0  0  0
 22 23  1  0  0  0
 23 24  2  0  0  0
  3  4  2  0  0  0
  4  5  1  0  0  0
  5  6  2  0  0  0
  6  7  1  0  0  0
  6  1  1  0  0  0
 24 15  1  0  0  0
 24 19  1  0  0  0
 11 12  1  0  0  0
  7  8  1  0  0  0
M  END
> <score>
-0.581274

> <minimizedAffinity>
-7.91512

> <CNNscore>
0.7691813707

> <CNNaffinity>
5.4810171127

> <CNN_VS>
4.2158961296

$$$$
HIPS5763


 24 26  0  0  0  0  0  0  0  0999 V2000
   68.1668   74.1747   94.4913 C   0  0  0  0  0  0  0  0  0  0  0  0
   68.1388   75.0512   93.3909 C   0  0  0  0  0  0  0  0  0  0  0  0
   67.0272   75.8690   93.1568 C   0  0  0  0  0  0  0  0  0  0  0  0
   65.9305   75.8192   94.0208 C   0  0  0  0  0  0  0  0  0  0  0  0
   65.9352   74.9403   95.1047 C   0  0  0  0  0  0  0  0  0  0  0  0
   67.0311   74.1008   95.3397 C   0  0  0  0  0  0  0  0  0  0  0  0
   66.9363   73.1924   96.3964 O   0  0  0  0  0  0  0  0  0  0  0  0
   66.1683   73.1764   96.9329 H   0  0  0  0  0  0  0  0  0  0  0  0
   69.5912   72.8142   95.8352 O   0  0  0  0  0  0  0  0  0  0  0  0
   69.3990   73.3918   94.7319 C   0  0  0  0  0  0  0  0  0  0  0  0
   70.3883   73.3404   93.7536 O   0  0  0  0  0  0  0  0  0  0  0  0
   70.2552   73.7666   92.9298 H   0  0  0  0  0  0  0  0  0  0  0  0
   67.0232   76.7751   92.0390 C   0  0  0  0  0  0  0  0  0  0  0  0
   67.0136   77.5310   91.1001 C   0  0  0  0  0  0  0  0  0  0  0  0
   66.9964   78.4337   89.9729 C   0  0  0  0  0  0  0  0  0  0  0  0
   66.7939   77.8966   88.6939 C   0  0  0  0  0  0  0  0  0  0  0  0
   66.7683   78.7264   87.5722 C   0  0  0  0  0  0  0  0  0  0  0  0
   66.9443   80.1034   87.7117 C   0  0  0  0  0  0  0  0  0  0  0  0
   67.1478   80.6654   88.9810 C   0  0  0  0  0  0  0  0  0  0  0  0
   67.3230   82.0514   89.1183 C   0  0  0  0  0  0  0  0  0  0  0  0
   67.5249   82.6134   90.3802 C   0  0  0  0  0  0  0  0  0  0  0  0
   67.5559   81.8008   91.5144 C   0  0  0  0  0  0  0  0  0  0  0  0
   67.3836   80.4196   91.3960 C   0  0  0  0  0  0  0  0  0  0  0  0
   67.1762   79.8300   90.1300 C   0  0  0  0  0  0  0  0  0  0  0  0
  9 10  2  0  0  0
 10 11  1  0  0  0
 10  1  1  0  0  0
  1  2  2  0  0  0
  2  3  1  0  0  0
  3 13  1  0  0  0
 13 14  3  0  0  0
 14 15  1  0  0  0
 15 16  2  0  0  0
 16 17  1  0  0  0
 17 18  2  0  0  0
 18 19  1  0  0  0
 19 20  2  0  0  0
 20 21  1  0  0  0
 21 22  2  0  0  0
 22 23  1  0  0  0
 23 24  2  0  0  0
  3  4  2  0  0  0
  4  5  1  0  0  0
  5  6  2  0  0  0
  6  7  1  0  0  0
  6  1  1  0  0  0
 24 15  1  0  0  0
 24 19  1  0  0  0
 11 12  1  0  0  0
  7  8  1  0  0  0
M  END
> <score>
-0.581274

> <minimizedAffinity>
-7.50783

> <CNNscore>
0.6906502247

> <CNNaffinity>
5.4043626785

> <CNN_VS>
3.7325243950

$$$$
HIPS5763


 24 26  0  0  0  0  0  0  0  0999 V2000
   68.9136   76.7833   91.3284 C   0  0  0  0  0  0  0  0  0  0  0  0
   69.6129   77.9043   90.8444 C   0  0  0  0  0  0  0  0  0  0  0  0
   68.9719   79.1409   90.7049 C   0  0  0  0  0  0  0  0  0  0  0  0
   67.6238   79.2702   91.0478 C   0  0  0  0  0  0  0  0  0  0  0  0
   66.9118   78.1627   91.5099 C   0  0  0  0  0  0  0  0  0  0  0  0
   67.5337   76.9142   91.6348 C   0  0  0  0  0  0  0  0  0  0  0  0
   66.7425   75.8331   92.0295 O   0  0  0  0  0  0  0  0  0  0  0  0
   65.8348   75.9626   92.2228 H   0  0  0  0  0  0  0  0  0  0  0  0
   70.7760   75.5205   92.1173 O   0  0  0  0  0  0  0  0  0  0  0  0
   69.6625   75.5230   91.5276 C   0  0  0  0  0  0  0  0  0  0  0  0
   69.1646   74.3323   91.0053 O   0  0  0  0  0  0  0  0  0  0  0  0
   68.3375   74.3234   90.5650 H   0  0  0  0  0  0  0  0  0  0  0  0
   69.7069   80.2825   90.2284 C   0  0  0  0  0  0  0  0  0  0  0  0
   70.3288   81.2347   89.8288 C   0  0  0  0  0  0  0  0  0  0  0  0
   71.0797   82.3716   89.3501 C   0  0  0  0  0  0  0  0  0  0  0  0
   72.3742   82.5717   89.8494 C   0  0  0  0  0  0  0  0  0  0  0  0
   73.1410   83.6551   89.4185 C   0  0  0  0  0  0  0  0  0  0  0  0
   72.6264   84.5534   88.4832 C   0  0  0  0  0  0  0  0  0  0  0  0
   71.3338   84.3746   87.9677 C   0  0  0  0  0  0  0  0  0  0  0  0
   70.8194   85.2792   87.0256 C   0  0  0  0  0  0  0  0  0  0  0  0
   69.5338   85.1033   86.5104 C   0  0  0  0  0  0  0  0  0  0  0  0
   68.7500   84.0275   86.9299 C   0  0  0  0  0  0  0  0  0  0  0  0
   69.2461   83.1179   87.8668 C   0  0  0  0  0  0  0  0  0  0  0  0
   70.5440   83.2754   88.3997 C   0  0  0  0  0  0  0  0  0  0  0  0
  9 10  2  0  0  0
 10 11  1  0  0  0
 10  1  1  0  0  0
  1  2  2  0  0  0
  2  3  1  0  0  0
  3 13  1  0  0  0
 13 14  3  0  0  0
 14 15  1  0  0  0
 15 16  2  0  0  0
 16 17  1  0  0  0
 17 18  2  0  0  0
 18 19  1  0  0  0
 19 20  2  0  0  0
 20 21  1  0  0  0
 21 22  2  0  0  0
 22 23  1  0  0  0
 23 24  2  0  0  0
  3  4  2  0  0  0
  4  5  1  0  0  0
  5  6  2  0  0  0
  6  7  1  0  0  0
  6  1  1  0  0  0
 24 15  1  0  0  0
 24 19  1  0  0  0
 11 12  1  0  0  0
  7  8  1  0  0  0
M  END
> <score>
-0.581274

> <minimizedAffinity>
-8.06604

> <CNNscore>
0.6307803392

> <CNNaffinity>
5.3434753418

> <CNN_VS>
3.3705592155

$$$$
HIPS5765


 29 30  0  0  0  0  0  0  0  0999 V2000
   67.1497   79.3090   90.1893 C   0  0  0  0  0  0  0  0  0  0  0  0
   66.5050   78.6811   91.2766 C   0  0  0  0  0  0  0  0  0  0  0  0
   66.4227   79.2909   92.5264 C   0  0  0  0  0  0  0  0  0  0  0  0
   66.9407   80.5717   92.7066 C   0  0  0  0  0  0  0  0  0  0  0  0
   67.5334   81.2899   91.6457 C   0  0  0  0  0  0  0  0  0  0  0  0
   67.7501   80.5828   90.4193 C   0  0  0  0  0  0  0  0  0  0  0  0
   68.5893   81.0950   89.4325 O   0  0  0  0  0  0  0  0  0  0  0  0
   68.9992   81.9290   89.5527 H   0  0  0  0  0  0  0  0  0  0  0  0
   66.2712   77.4126   88.6557 C   0  0  0  0  0  0  0  0  0  0  0  0
   67.2663   78.5937   88.8116 C   0  0  0  0  0  0  0  0  0  0  0  0
   68.6874   78.0141   88.6348 C   0  0  0  0  0  0  0  0  0  0  0  0
   66.9523   79.5831   87.6622 C   0  0  0  0  0  0  0  0  0  0  0  0
   67.9286   82.7834   91.8577 C   0  0  0  0  0  0  0  0  0  0  0  0
   69.4492   83.0174   91.6205 C   0  0  0  0  0  0  0  0  0  0  0  0
   67.1645   83.6738   90.8570 C   0  0  0  0  0  0  0  0  0  0  0  0
   67.6559   83.2489   93.3160 C   0  0  0  0  0  0  0  0  0  0  0  0
   65.8207   78.5487   93.6919 C   0  0  0  0  0  0  0  0  0  0  0  0
   66.3559   77.1431   93.7396 C   0  0  0  0  0  0  0  0  0  0  0  0
   65.5251   76.0841   94.1263 C   0  0  0  0  0  0  0  0  0  0  0  0
   66.0310   74.7866   94.2043 C   0  0  0  0  0  0  0  0  0  0  0  0
   67.3735   74.5236   93.9095 C   0  0  0  0  0  0  0  0  0  0  0  0
   67.7936   73.1918   93.9325 O   0  0  0  0  0  0  0  0  0  0  0  0
   68.2399   75.5944   93.5720 C   0  0  0  0  0  0  0  0  0  0  0  0
   67.7107   76.8937   93.4735 C   0  0  0  0  0  0  0  0  0  0  0  0
   67.1888   72.5136   94.1611 H   0  0  0  0  0  0  0  0  0  0  0  0
   69.6925   75.4119   93.3557 C   0  0  0  0  0  0  0  0  0  0  0  0
   70.1886   74.2588   93.2465 O   0  0  0  0  0  0  0  0  0  0  0  0
   70.5343   76.5209   93.3344 O   0  0  0  0  0  0  0  0  0  0  0  0
   70.1757   77.3828   93.4149 H   0  0  0  0  0  0  0  0  0  0  0  0
  9 10  1  0  0  0
 10 11  1  0  0  0
 10 12  1  0  0  0
 10  1  1  0  0  0
  1  2  2  0  0  0
  2  3  1  0  0  0
  3 17  1  0  0  0
 17 18  1  0  0  0
 18 19  2  0  0  0
 19 20  1  0  0  0
 20 21  2  0  0  0
 21 22  1  0  0  0
 21 23  1  0  0  0
 23 26  1  0  0  0
 26 27  2  0  0  0
 26 28  1  0  0  0
 23 24  2  0  0  0
  3  4  2  0  0  0
  4  5  1  0  0  0
  5 13  1  0  0  0
 13 14  1  0  0  0
 13 15  1  0  0  0
 13 16  1  0  0  0
  5  6  2  0  0  0
  6  7  1  0  0  0
  6  1  1  0  0  0
 24 18  1  0  0  0
 22 25  1  0  0  0
 28 29  1  0  0  0
  7  8  1  0  0  0
M  END
> <score>
-0.529992

> <minimizedAffinity>
-7.38309

> <CNNscore>
0.8872693181

> <CNNaffinity>
6.3504743576

> <CNN_VS>
5.6345810890

$$$$
HIPS5765


 29 30  0  0  0  0  0  0  0  0999 V2000
   67.2510   81.1904   91.9018 C   0  0  0  0  0  0  0  0  0  0  0  0
   66.7310   80.3847   92.9374 C   0  0  0  0  0  0  0  0  0  0  0  0
   66.2959   79.0828   92.6998 C   0  0  0  0  0  0  0  0  0  0  0  0
   66.4184   78.5345   91.4249 C   0  0  0  0  0  0  0  0  0  0  0  0
   66.9967   79.2555   90.3579 C   0  0  0  0  0  0  0  0  0  0  0  0
   67.2860   80.6393   90.5861 C   0  0  0  0  0  0  0  0  0  0  0  0
   67.5656   81.4996   89.5269 O   0  0  0  0  0  0  0  0  0  0  0  0
   67.5960   81.1694   88.6505 H   0  0  0  0  0  0  0  0  0  0  0  0
   67.8330   82.9713   93.6933 C   0  0  0  0  0  0  0  0  0  0  0  0
   67.6945   82.6565   92.1796 C   0  0  0  0  0  0  0  0  0  0  0  0
   66.6523   83.6423   91.6063 C   0  0  0  0  0  0  0  0  0  0  0  0
   69.0825   82.9286   91.5488 C   0  0  0  0  0  0  0  0  0  0  0  0
   67.2752   78.5312   89.0053 C   0  0  0  0  0  0  0  0  0  0  0  0
   66.7850   79.3705   87.7894 C   0  0  0  0  0  0  0  0  0  0  0  0
   68.7918   78.3121   88.8318 C   0  0  0  0  0  0  0  0  0  0  0  0
   66.5174   77.1766   88.9118 C   0  0  0  0  0  0  0  0  0  0  0  0
   65.6493   78.2878   93.8051 C   0  0  0  0  0  0  0  0  0  0  0  0
   66.2850   76.9272   93.9009 C   0  0  0  0  0  0  0  0  0  0  0  0
   65.5669   75.8484   94.4317 C   0  0  0  0  0  0  0  0  0  0  0  0
   66.1682   74.5957   94.5528 C   0  0  0  0  0  0  0  0  0  0  0  0
   67.4963   74.3988   94.1582 C   0  0  0  0  0  0  0  0  0  0  0  0
   68.0102   73.1024   94.2348 O   0  0  0  0  0  0  0  0  0  0  0  0
   68.2531   75.4954   93.6723 C   0  0  0  0  0  0  0  0  0  0  0  0
   67.6267   76.7468   93.5327 C   0  0  0  0  0  0  0  0  0  0  0  0
   67.4765   72.4054   94.5623 H   0  0  0  0  0  0  0  0  0  0  0  0
   69.6916   75.3917   93.3403 C   0  0  0  0  0  0  0  0  0  0  0  0
   70.4126   76.4224   93.2671 O   0  0  0  0  0  0  0  0  0  0  0  0
   70.2459   74.1494   93.0431 O   0  0  0  0  0  0  0  0  0  0  0  0
   69.7185   73.3766   93.0945 H   0  0  0  0  0  0  0  0  0  0  0  0
  9 10  1  0  0  0
 10 11  1  0  0  0
 10 12  1  0  0  0
 10  1  1  0  0  0
  1  2  2  0  0  0
  2  3  1  0  0  0
  3 17  1  0  0  0
 17 18  1  0  0  0
 18 19  2  0  0  0
 19 20  1  0  0  0
 20 21  2  0  0  0
 21 22  1  0  0  0
 21 23  1  0  0  0
 23 26  1  0  0  0
 26 27  2  0  0  0
 26 28  1  0  0  0
 23 24  2  0  0  0
  3  4  2  0  0  0
  4  5  1  0  0  0
  5 13  1  0  0  0
 13 14  1  0  0  0
 13 15  1  0  0  0
 13 16  1  0  0  0
  5  6  2  0  0  0
  6  7  1  0  0  0
  6  1  1  0  0  0
 24 18  1  0  0  0
 22 25  1  0  0  0
 28 29  1  0  0  0
  7  8  1  0  0  0
M  END
> <score>
-0.529992

> <minimizedAffinity>
-7.43928

> <CNNscore>
0.8672719598

> <CNNaffinity>
6.3536777496

> <CNN_VS>
5.5103664398

$$$$
HIPS5765


 29 30  0  0  0  0  0  0  0  0999 V2000
   69.3594   84.1146   91.3418 C   0  0  0  0  0  0  0  0  0  0  0  0
   70.1742   82.9625   91.3098 C   0  0  0  0  0  0  0  0  0  0  0  0
   70.6603   82.4464   90.1107 C   0  0  0  0  0  0  0  0  0  0  0  0
   70.3844   83.1024   88.9129 C   0  0  0  0  0  0  0  0  0  0  0  0
   69.6383   84.3003   88.8761 C   0  0  0  0  0  0  0  0  0  0  0  0
   69.0168   84.7201   90.0961 C   0  0  0  0  0  0  0  0  0  0  0  0
   68.0266   85.6998   90.0986 O   0  0  0  0  0  0  0  0  0  0  0  0
   67.7782   86.1169   89.2972 H   0  0  0  0  0  0  0  0  0  0  0  0
   68.7925   86.2025   92.7700 C   0  0  0  0  0  0  0  0  0  0  0  0
   68.7930   84.6523   92.6885 C   0  0  0  0  0  0  0  0  0  0  0  0
   69.6502   84.1378   93.8663 C   0  0  0  0  0  0  0  0  0  0  0  0
   67.3213   84.2056   92.8711 C   0  0  0  0  0  0  0  0  0  0  0  0
   69.5167   85.0866   87.5350 C   0  0  0  0  0  0  0  0  0  0  0  0
   68.1255   84.8791   86.8682 C   0  0  0  0  0  0  0  0  0  0  0  0
   69.6803   86.5973   87.7978 C   0  0  0  0  0  0  0  0  0  0  0  0
   70.5593   84.6023   86.4879 C   0  0  0  0  0  0  0  0  0  0  0  0
   71.4393   81.1561   90.1032 C   0  0  0  0  0  0  0  0  0  0  0  0
   70.4959   79.9845   90.1470 C   0  0  0  0  0  0  0  0  0  0  0  0
   69.1802   80.1201   89.6868 C   0  0  0  0  0  0  0  0  0  0  0  0
   68.2958   79.0439   89.7601 C   0  0  0  0  0  0  0  0  0  0  0  0
   68.7028   77.8196   90.3021 C   0  0  0  0  0  0  0  0  0  0  0  0
   67.7905   76.7624   90.2735 O   0  0  0  0  0  0  0  0  0  0  0  0
   70.0146   77.6854   90.8240 C   0  0  0  0  0  0  0  0  0  0  0  0
   70.9029   78.7709   90.7213 C   0  0  0  0  0  0  0  0  0  0  0  0
   66.9327   76.8932   89.9197 H   0  0  0  0  0  0  0  0  0  0  0  0
   70.4820   76.4610   91.5113 C   0  0  0  0  0  0  0  0  0  0  0  0
   71.5507   76.4640   92.1788 O   0  0  0  0  0  0  0  0  0  0  0  0
   69.7696   75.2729   91.3706 O   0  0  0  0  0  0  0  0  0  0  0  0
   68.9737   75.2597   90.8763 H   0  0  0  0  0  0  0  0  0  0  0  0
  9 10  1  0  0  0
 10 11  1  0  0  0
 10 12  1  0  0  0
 10  1  1  0  0  0
  1  2  2  0  0  0
  2  3  1  0  0  0
  3 17  1  0  0  0
 17 18  1  0  0  0
 18 19  2  0  0  0
 19 20  1  0  0  0
 20 21  2  0  0  0
 21 22  1  0  0  0
 21 23  1  0  0  0
 23 26  1  0  0  0
 26 27  2  0  0  0
 26 28  1  0  0  0
 23 24  2  0  0  0
  3  4  2  0  0  0
  4  5  1  0  0  0
  5 13  1  0  0  0
 13 14  1  0  0  0
 13 15  1  0  0  0
 13 16  1  0  0  0
  5  6  2  0  0  0
  6  7  1  0  0  0
  6  1  1  0  0  0
 24 18  1  0  0  0
 22 25  1  0  0  0
 28 29  1  0  0  0
  7  8  1  0  0  0
M  END
> <score>
-0.529992

> <minimizedAffinity>
-7.58038

> <CNNscore>
0.7621749640

> <CNNaffinity>
6.0904846191

> <CNN_VS>
4.6420149803

$$$$
HIPS5841


 27 30  0  0  0  0  0  0  0  0999 V2000
   66.9849   77.2597   92.4363 N   0  0  0  0  0  0  0  0  0  0  0  0
   66.9938   78.5921   92.6396 C   0  0  0  0  0  0  0  0  0  0  0  0
   67.0170   79.1775   91.3905 C   0  0  0  0  0  0  0  0  0  0  0  0
   67.0460   78.1951   90.4680 N   0  0  0  0  0  0  0  0  0  0  0  0
   67.0196   77.0470   91.1287 N   0  0  0  0  0  0  0  0  0  0  0  0
   67.1154   80.6260   91.0917 C   0  0  0  0  0  0  0  0  0  0  0  0
   67.1220   81.5234   92.1743 C   0  0  0  0  0  0  0  0  0  0  0  0
   67.2831   82.8925   91.9694 C   0  0  0  0  0  0  0  0  0  0  0  0
   67.4385   83.3968   90.6811 C   0  0  0  0  0  0  0  0  0  0  0  0
   67.4132   82.5344   89.5772 C   0  0  0  0  0  0  0  0  0  0  0  0
   67.5478   83.0567   88.2810 C   0  0  0  0  0  0  0  0  0  0  0  0
   67.4894   82.2125   87.1725 C   0  0  0  0  0  0  0  0  0  0  0  0
   67.2845   80.8447   87.3452 C   0  0  0  0  0  0  0  0  0  0  0  0
   67.1520   80.3070   88.6279 C   0  0  0  0  0  0  0  0  0  0  0  0
   67.2374   81.1355   89.7689 C   0  0  0  0  0  0  0  0  0  0  0  0
   68.0609   74.3489   94.5876 C   0  0  0  0  0  0  0  0  0  0  0  0
   68.0767   75.3643   93.6137 C   0  0  0  0  0  0  0  0  0  0  0  0
   66.9677   76.2106   93.4263 C   0  0  0  0  0  0  0  0  0  0  0  0
   65.8372   76.0325   94.2379 C   0  0  0  0  0  0  0  0  0  0  0  0
   65.8015   75.0164   95.1924 C   0  0  0  0  0  0  0  0  0  0  0  0
   66.8904   74.1565   95.3620 C   0  0  0  0  0  0  0  0  0  0  0  0
   66.7558   73.1123   96.2797 O   0  0  0  0  0  0  0  0  0  0  0  0
   65.9641   73.0206   96.7723 H   0  0  0  0  0  0  0  0  0  0  0  0
   69.4352   72.8331   95.8120 O   0  0  0  0  0  0  0  0  0  0  0  0
   69.2885   73.5458   94.7833 C   0  0  0  0  0  0  0  0  0  0  0  0
   70.3220   73.6222   93.8533 O   0  0  0  0  0  0  0  0  0  0  0  0
   70.2228   74.1493   93.0850 H   0  0  0  0  0  0  0  0  0  0  0  0
 24 25  2  0  0  0
 25 26  1  0  0  0
 25 16  1  0  0  0
 16 17  2  0  0  0
 17 18  1  0  0  0
 18  1  1  0  0  0
  1  2  1  0  0  0
  2  3  2  0  0  0
  3  6  1  0  0  0
  6  7  2  0  0  0
  7  8  1  0  0  0
  8  9  2  0  0  0
  9 10  1  0  0  0
 10 11  2  0  0  0
 11 12  1  0  0  0
 12 13  2  0  0  0
 13 14  1  0  0  0
 14 15  2  0  0  0
  3  4  2  0  0  0
  4  5  2  0  0  0
 18 19  2  0  0  0
 19 20  1  0  0  0
 20 21  2  0  0  0
 21 22  1  0  0  0
 21 16  1  0  0  0
  5  1  1  0  0  0
 15  6  1  0  0  0
 15 10  1  0  0  0
 26 27  1  0  0  0
 22 23  1  0  0  0
M  END
> <score>
0.350785

> <minimizedAffinity>
-8.19336

> <CNNscore>
0.6472581029

> <CNNaffinity>
5.7410039902

> <CNN_VS>
3.7159113884

$$$$
HIPS5841


 27 30  0  0  0  0  0  0  0  0999 V2000
   69.1057   78.9746   90.3067 N   0  0  0  0  0  0  0  0  0  0  0  0
   70.2173   79.5996   89.8702 C   0  0  0  0  0  0  0  0  0  0  0  0
   69.9952   80.9513   90.0344 C   0  0  0  0  0  0  0  0  0  0  0  0
   68.7559   81.1139   90.5392 N   0  0  0  0  0  0  0  0  0  0  0  0
   68.2444   79.9022   90.6992 N   0  0  0  0  0  0  0  0  0  0  0  0
   70.8961   82.0543   89.6235 C   0  0  0  0  0  0  0  0  0  0  0  0
   72.1522   82.1470   90.2488 C   0  0  0  0  0  0  0  0  0  0  0  0
   73.0760   83.1160   89.8611 C   0  0  0  0  0  0  0  0  0  0  0  0
   72.7667   84.0147   88.8439 C   0  0  0  0  0  0  0  0  0  0  0  0
   71.5156   83.9665   88.2150 C   0  0  0  0  0  0  0  0  0  0  0  0
   71.2060   84.8926   87.2062 C   0  0  0  0  0  0  0  0  0  0  0  0
   69.9516   84.8767   86.5972 C   0  0  0  0  0  0  0  0  0  0  0  0
   68.9923   83.9474   86.9960 C   0  0  0  0  0  0  0  0  0  0  0  0
   69.2841   83.0162   87.9957 C   0  0  0  0  0  0  0  0  0  0  0  0
   70.5571   82.9910   88.6077 C   0  0  0  0  0  0  0  0  0  0  0  0
   69.1829   75.3385   91.3224 C   0  0  0  0  0  0  0  0  0  0  0  0
   69.4538   76.7188   91.2869 C   0  0  0  0  0  0  0  0  0  0  0  0
   68.8385   77.5573   90.3386 C   0  0  0  0  0  0  0  0  0  0  0  0
   67.9347   76.9947   89.4248 C   0  0  0  0  0  0  0  0  0  0  0  0
   67.6737   75.6248   89.4364 C   0  0  0  0  0  0  0  0  0  0  0  0
   68.3043   74.7849   90.3588 C   0  0  0  0  0  0  0  0  0  0  0  0
   68.0574   73.4136   90.2622 O   0  0  0  0  0  0  0  0  0  0  0  0
   67.4687   73.0883   89.6099 H   0  0  0  0  0  0  0  0  0  0  0  0
   69.8887   74.9717   93.5703 O   0  0  0  0  0  0  0  0  0  0  0  0
   69.8052   74.5289   92.3936 C   0  0  0  0  0  0  0  0  0  0  0  0
   70.3612   73.2888   92.0904 O   0  0  0  0  0  0  0  0  0  0  0  0
   70.3046   72.9506   91.2184 H   0  0  0  0  0  0  0  0  0  0  0  0
 24 25  2  0  0  0
 25 26  1  0  0  0
 25 16  1  0  0  0
 16 17  2  0  0  0
 17 18  1  0  0  0
 18  1  1  0  0  0
  1  2  1  0  0  0
  2  3  2  0  0  0
  3  6  1  0  0  0
  6  7  2  0  0  0
  7  8  1  0  0  0
  8  9  2  0  0  0
  9 10  1  0  0  0
 10 11  2  0  0  0
 11 12  1  0  0  0
 12 13  2  0  0  0
 13 14  1  0  0  0
 14 15  2  0  0  0
  3  4  2  0  0  0
  4  5  2  0  0  0
 18 19  2  0  0  0
 19 20  1  0  0  0
 20 21  2  0  0  0
 21 22  1  0  0  0
 21 16  1  0  0  0
  5  1  1  0  0  0
 15  6  1  0  0  0
 15 10  1  0  0  0
 26 27  1  0  0  0
 22 23  1  0  0  0
M  END
> <score>
0.350785

> <minimizedAffinity>
-9.12795

> <CNNscore>
0.5771701932

> <CNNaffinity>
5.6636848450

> <CNN_VS>
3.2689101696

$$$$
HIPS5841


 27 30  0  0  0  0  0  0  0  0999 V2000
   68.5813   79.4668   90.4240 N   0  0  0  0  0  0  0  0  0  0  0  0
   69.7433   80.1412   90.5325 C   0  0  0  0  0  0  0  0  0  0  0  0
   69.6411   81.2324   89.6944 C   0  0  0  0  0  0  0  0  0  0  0  0
   68.4401   81.1811   89.0845 N   0  0  0  0  0  0  0  0  0  0  0  0
   67.8190   80.1071   89.5493 N   0  0  0  0  0  0  0  0  0  0  0  0
   70.6976   82.2315   89.4068 C   0  0  0  0  0  0  0  0  0  0  0  0
   71.9242   82.1070   90.0829 C   0  0  0  0  0  0  0  0  0  0  0  0
   72.9846   82.9688   89.8084 C   0  0  0  0  0  0  0  0  0  0  0  0
   72.8443   83.9746   88.8561 C   0  0  0  0  0  0  0  0  0  0  0  0
   71.6286   84.1427   88.1802 C   0  0  0  0  0  0  0  0  0  0  0  0
   71.4913   85.1750   87.2384 C   0  0  0  0  0  0  0  0  0  0  0  0
   70.2756   85.3740   86.5847 C   0  0  0  0  0  0  0  0  0  0  0  0
   69.1848   84.5552   86.8721 C   0  0  0  0  0  0  0  0  0  0  0  0
   69.3044   83.5210   87.8037 C   0  0  0  0  0  0  0  0  0  0  0  0
   70.5328   83.2787   88.4578 C   0  0  0  0  0  0  0  0  0  0  0  0
   68.5491   75.8734   91.5838 C   0  0  0  0  0  0  0  0  0  0  0  0
   68.9217   77.0565   90.9197 C   0  0  0  0  0  0  0  0  0  0  0  0
   68.1953   78.2494   91.0948 C   0  0  0  0  0  0  0  0  0  0  0  0
   67.0881   78.2458   91.9565 C   0  0  0  0  0  0  0  0  0  0  0  0
   66.6964   77.0745   92.6041 C   0  0  0  0  0  0  0  0  0  0  0  0
   67.3988   75.8816   92.4108 C   0  0  0  0  0  0  0  0  0  0  0  0
   66.9044   74.7301   93.0274 O   0  0  0  0  0  0  0  0  0  0  0  0
   66.1400   74.7790   93.5671 H   0  0  0  0  0  0  0  0  0  0  0  0
   70.5955   74.6719   91.8175 O   0  0  0  0  0  0  0  0  0  0  0  0
   69.4017   74.6756   91.4143 C   0  0  0  0  0  0  0  0  0  0  0  0
   68.9033   73.5593   90.7478 O   0  0  0  0  0  0  0  0  0  0  0  0
   68.0170   73.5520   90.4440 H   0  0  0  0  0  0  0  0  0  0  0  0
 24 25  2  0  0  0
 25 26  1  0  0  0
 25 16  1  0  0  0
 16 17  2  0  0  0
 17 18  1  0  0  0
 18  1  1  0  0  0
  1  2  1  0  0  0
  2  3  2  0  0  0
  3  6  1  0  0  0
  6  7  2  0  0  0
  7  8  1  0  0  0
  8  9  2  0  0  0
  9 10  1  0  0  0
 10 11  2  0  0  0
 11 12  1  0  0  0
 12 13  2  0  0  0
 13 14  1  0  0  0
 14 15  2  0  0  0
  3  4  2  0  0  0
  4  5  2  0  0  0
 18 19  2  0  0  0
 19 20  1  0  0  0
 20 21  2  0  0  0
 21 22  1  0  0  0
 21 16  1  0  0  0
  5  1  1  0  0  0
 15  6  1  0  0  0
 15 10  1  0  0  0
 26 27  1  0  0  0
 22 23  1  0  0  0
M  END
> <score>
0.350785

> <minimizedAffinity>
-8.31166

> <CNNscore>
0.5616832376

> <CNNaffinity>
5.6310176849

> <CNN_VS>
3.1628482342

$$$$
HIPS5842


 24 26  0  0  0  0  0  0  0  0999 V2000
   68.2353   75.4083   93.6619 C   0  0  0  0  0  0  0  0  0  0  0  0
   67.9744   76.7072   93.1815 C   0  0  0  0  0  0  0  0  0  0  0  0
   66.7129   77.3075   93.3445 C   0  0  0  0  0  0  0  0  0  0  0  0
   65.7031   76.5903   94.0076 C   0  0  0  0  0  0  0  0  0  0  0  0
   65.9477   75.3043   94.4885 C   0  0  0  0  0  0  0  0  0  0  0  0
   67.2029   74.7057   94.3216 C   0  0  0  0  0  0  0  0  0  0  0  0
   67.4151   73.4179   94.8136 O   0  0  0  0  0  0  0  0  0  0  0  0
   66.7216   72.9627   95.2494 H   0  0  0  0  0  0  0  0  0  0  0  0
   66.4780   78.6399   92.8420 N   0  0  0  0  0  0  0  0  0  0  0  0
   67.2862   79.7153   92.9309 C   0  0  0  0  0  0  0  0  0  0  0  0
   66.6231   80.7575   92.3103 C   0  0  0  0  0  0  0  0  0  0  0  0
   65.4388   80.2888   91.8668 N   0  0  0  0  0  0  0  0  0  0  0  0
   65.3780   79.0090   92.2025 N   0  0  0  0  0  0  0  0  0  0  0  0
   67.0828   82.1566   92.1420 C   0  0  0  0  0  0  0  0  0  0  0  0
   67.7624   82.8317   93.1741 C   0  0  0  0  0  0  0  0  0  0  0  0
   68.1886   84.1516   92.9965 C   0  0  0  0  0  0  0  0  0  0  0  0
   67.9430   84.8130   91.7903 C   0  0  0  0  0  0  0  0  0  0  0  0
   68.5268   86.6157   91.5516 Br  0  0  0  0  0  0  0  0  0  0  0  0
   67.2699   84.1529   90.7591 C   0  0  0  0  0  0  0  0  0  0  0  0
   66.8419   82.8331   90.9319 C   0  0  0  0  0  0  0  0  0  0  0  0
   70.0137   73.9387   94.2665 O   0  0  0  0  0  0  0  0  0  0  0  0
   69.5824   74.8109   93.4644 C   0  0  0  0  0  0  0  0  0  0  0  0
   70.3884   75.1999   92.3978 O   0  0  0  0  0  0  0  0  0  0  0  0
   70.0840   75.8467   91.7921 H   0  0  0  0  0  0  0  0  0  0  0  0
 21 22  2  0  0  0
 22 23  1  0  0  0
 22  1  1  0  0  0
  1  2  2  0  0  0
  2  3  1  0  0  0
  3  9  1  0  0  0
  9 10  1  0  0  0
 10 11  2  0  0  0
 11 14  1  0  0  0
 14 15  2  0  0  0
 15 16  1  0  0  0
 16 17  2  0  0  0
 17 18  1  0  0  0
 17 19  1  0  0  0
 19 20  2  0  0  0
 11 12  2  0  0  0
 12 13  2  0  0  0
  3  4  2  0  0  0
  4  5  1  0  0  0
  5  6  2  0  0  0
  6  7  1  0  0  0
  6  1  1  0  0  0
 13  9  1  0  0  0
 20 14  1  0  0  0
 23 24  1  0  0  0
  7  8  1  0  0  0
M  END
> <score>
0.271508

> <minimizedAffinity>
-5.81766

> <CNNscore>
0.7108645439

> <CNNaffinity>
5.3787717819

> <CNN_VS>
3.8235781193

$$$$
HIPS5842


 24 26  0  0  0  0  0  0  0  0999 V2000
   68.2235   75.1621   94.0770 C   0  0  0  0  0  0  0  0  0  0  0  0
   68.1661   76.4558   93.5210 C   0  0  0  0  0  0  0  0  0  0  0  0
   66.9647   77.1868   93.4924 C   0  0  0  0  0  0  0  0  0  0  0  0
   65.8072   76.6074   94.0387 C   0  0  0  0  0  0  0  0  0  0  0  0
   65.8501   75.3282   94.5926 C   0  0  0  0  0  0  0  0  0  0  0  0
   67.0458   74.5995   94.6164 C   0  0  0  0  0  0  0  0  0  0  0  0
   67.0550   73.3223   95.1770 O   0  0  0  0  0  0  0  0  0  0  0  0
   66.2666   72.9606   95.5315 H   0  0  0  0  0  0  0  0  0  0  0  0
   66.9393   78.5100   92.9168 N   0  0  0  0  0  0  0  0  0  0  0  0
   67.1981   78.8663   91.6425 C   0  0  0  0  0  0  0  0  0  0  0  0
   67.0534   80.2397   91.5815 C   0  0  0  0  0  0  0  0  0  0  0  0
   66.7150   80.6753   92.8123 N   0  0  0  0  0  0  0  0  0  0  0  0
   66.6545   79.6104   93.5974 N   0  0  0  0  0  0  0  0  0  0  0  0
   67.2331   81.1221   90.4041 C   0  0  0  0  0  0  0  0  0  0  0  0
   67.1676   80.6133   89.0927 C   0  0  0  0  0  0  0  0  0  0  0  0
   67.3395   81.4616   87.9944 C   0  0  0  0  0  0  0  0  0  0  0  0
   67.5782   82.8245   88.1898 C   0  0  0  0  0  0  0  0  0  0  0  0
   67.8124   83.9798   86.6872 Br  0  0  0  0  0  0  0  0  0  0  0  0
   67.6448   83.3405   89.4866 C   0  0  0  0  0  0  0  0  0  0  0  0
   67.4735   82.4964   90.5879 C   0  0  0  0  0  0  0  0  0  0  0  0
   70.2074   74.3495   93.0320 O   0  0  0  0  0  0  0  0  0  0  0  0
   69.5141   74.4239   94.0828 C   0  0  0  0  0  0  0  0  0  0  0  0
   69.9792   73.8046   95.2398 O   0  0  0  0  0  0  0  0  0  0  0  0
   69.4770   73.8497   96.0296 H   0  0  0  0  0  0  0  0  0  0  0  0
 21 22  2  0  0  0
 22 23  1  0  0  0
 22  1  1  0  0  0
  1  2  2  0  0  0
  2  3  1  0  0  0
  3  9  1  0  0  0
  9 10  1  0  0  0
 10 11  2  0  0  0
 11 14  1  0  0  0
 14 15  2  0  0  0
 15 16  1  0  0  0
 16 17  2  0  0  0
 17 18  1  0  0  0
 17 19  1  0  0  0
 19 20  2  0  0  0
 11 12  2  0  0  0
 12 13  2  0  0  0
  3  4  2  0  0  0
  4  5  1  0  0  0
  5  6  2  0  0  0
  6  7  1  0  0  0
  6  1  1  0  0  0
 13  9  1  0  0  0
 20 14  1  0  0  0
 23 24  1  0  0  0
  7  8  1  0  0  0
M  END
> <score>
0.271508

> <minimizedAffinity>
-6.85004

> <CNNscore>
0.6917518973

> <CNNaffinity>
5.4741029739

> <CNN_VS>
3.7867212296

$$$$
HIPS5842


 24 26  0  0  0  0  0  0  0  0999 V2000
   68.3361   73.8423   95.0208 C   0  0  0  0  0  0  0  0  0  0  0  0
   68.3213   74.6456   93.8630 C   0  0  0  0  0  0  0  0  0  0  0  0
   67.2002   75.4268   93.5293 C   0  0  0  0  0  0  0  0  0  0  0  0
   66.0817   75.4027   94.3792 C   0  0  0  0  0  0  0  0  0  0  0  0
   66.0832   74.6126   95.5284 C   0  0  0  0  0  0  0  0  0  0  0  0
   67.1983   73.8317   95.8573 C   0  0  0  0  0  0  0  0  0  0  0  0
   67.1676   73.0520   97.0135 O   0  0  0  0  0  0  0  0  0  0  0  0
   66.4064   73.0540   97.5599 H   0  0  0  0  0  0  0  0  0  0  0  0
   67.2170   76.2398   92.3369 N   0  0  0  0  0  0  0  0  0  0  0  0
   67.2077   75.8302   91.0525 C   0  0  0  0  0  0  0  0  0  0  0  0
   67.2403   76.9731   90.2755 C   0  0  0  0  0  0  0  0  0  0  0  0
   67.2700   78.0365   91.1045 N   0  0  0  0  0  0  0  0  0  0  0  0
   67.2561   77.5640   92.3418 N   0  0  0  0  0  0  0  0  0  0  0  0
   67.2497   77.0675   88.7963 C   0  0  0  0  0  0  0  0  0  0  0  0
   67.4983   78.2903   88.1435 C   0  0  0  0  0  0  0  0  0  0  0  0
   67.5033   78.3595   86.7469 C   0  0  0  0  0  0  0  0  0  0  0  0
   67.2612   77.2129   85.9857 C   0  0  0  0  0  0  0  0  0  0  0  0
   67.2689   77.3116   84.0784 Br  0  0  0  0  0  0  0  0  0  0  0  0
   67.0137   75.9941   86.6226 C   0  0  0  0  0  0  0  0  0  0  0  0
   67.0078   75.9199   88.0187 C   0  0  0  0  0  0  0  0  0  0  0  0
   69.6389   72.4401   96.4437 O   0  0  0  0  0  0  0  0  0  0  0  0
   69.5413   73.0295   95.3331 C   0  0  0  0  0  0  0  0  0  0  0  0
   70.5782   72.9040   94.4125 O   0  0  0  0  0  0  0  0  0  0  0  0
   70.5225   73.3351   93.5824 H   0  0  0  0  0  0  0  0  0  0  0  0
 21 22  2  0  0  0
 22 23  1  0  0  0
 22  1  1  0  0  0
  1  2  2  0  0  0
  2  3  1  0  0  0
  3  9  1  0  0  0
  9 10  1  0  0  0
 10 11  2  0  0  0
 11 14  1  0  0  0
 14 15  2  0  0  0
 15 16  1  0  0  0
 16 17  2  0  0  0
 17 18  1  0  0  0
 17 19  1  0  0  0
 19 20  2  0  0  0
 11 12  2  0  0  0
 12 13  2  0  0  0
  3  4  2  0  0  0
  4  5  1  0  0  0
  5  6  2  0  0  0
  6  7  1  0  0  0
  6  1  1  0  0  0
 13  9  1  0  0  0
 20 14  1  0  0  0
 23 24  1  0  0  0
  7  8  1  0  0  0
M  END
> <score>
0.271508

> <minimizedAffinity>
-6.28379

> <CNNscore>
0.6671940684

> <CNNaffinity>
5.4168615341

> <CNN_VS>
3.6140978336

$$$$
HIPS5843


 25 27  0  0  0  0  0  0  0  0999 V2000
   67.0746   76.8891   92.0979 N   0  0  0  0  0  0  0  0  0  0  0  0
   67.1171   78.2341   92.1812 C   0  0  0  0  0  0  0  0  0  0  0  0
   67.1425   78.7076   90.8825 C   0  0  0  0  0  0  0  0  0  0  0  0
   67.1167   77.6437   90.0538 N   0  0  0  0  0  0  0  0  0  0  0  0
   67.0771   76.5603   90.8146 N   0  0  0  0  0  0  0  0  0  0  0  0
   68.1915   74.2368   94.5266 C   0  0  0  0  0  0  0  0  0  0  0  0
   68.1940   75.1848   93.4876 C   0  0  0  0  0  0  0  0  0  0  0  0
   67.0439   75.9323   93.1779 C   0  0  0  0  0  0  0  0  0  0  0  0
   65.8744   75.7131   93.9251 C   0  0  0  0  0  0  0  0  0  0  0  0
   65.8653   74.7901   94.9710 C   0  0  0  0  0  0  0  0  0  0  0  0
   67.0152   74.0654   95.2969 C   0  0  0  0  0  0  0  0  0  0  0  0
   66.9555   73.2175   96.4052 O   0  0  0  0  0  0  0  0  0  0  0  0
   66.1569   73.1327   96.8878 H   0  0  0  0  0  0  0  0  0  0  0  0
   69.5721   72.7777   95.8113 O   0  0  0  0  0  0  0  0  0  0  0  0
   69.4155   73.4353   94.7478 C   0  0  0  0  0  0  0  0  0  0  0  0
   70.3806   73.3541   93.7474 O   0  0  0  0  0  0  0  0  0  0  0  0
   70.2737   73.8390   92.9528 H   0  0  0  0  0  0  0  0  0  0  0  0
   67.1957   80.1179   90.4287 C   0  0  0  0  0  0  0  0  0  0  0  0
   66.9750   81.1820   91.3240 C   0  0  0  0  0  0  0  0  0  0  0  0
   67.0291   82.5071   90.8772 C   0  0  0  0  0  0  0  0  0  0  0  0
   66.7522   83.8240   92.0029 Cl  0  0  0  0  0  0  0  0  0  0  0  0
   67.3031   82.7834   89.5352 C   0  0  0  0  0  0  0  0  0  0  0  0
   67.5235   81.7361   88.6369 C   0  0  0  0  0  0  0  0  0  0  0  0
   67.8672   82.0849   86.9522 Cl  0  0  0  0  0  0  0  0  0  0  0  0
   67.4702   80.4101   89.0800 C   0  0  0  0  0  0  0  0  0  0  0  0
 14 15  2  0  0  0
 15 16  1  0  0  0
 15  6  1  0  0  0
  6  7  2  0  0  0
  7  8  1  0  0  0
  8  1  1  0  0  0
  1  2  1  0  0  0
  2  3  2  0  0  0
  3 18  1  0  0  0
 18 19  2  0  0  0
 19 20  1  0  0  0
 20 21  1  0  0  0
 20 22  2  0  0  0
 22 23  1  0  0  0
 23 24  1  0  0  0
 23 25  2  0  0  0
  3  4  2  0  0  0
  4  5  2  0  0  0
  8  9  2  0  0  0
  9 10  1  0  0  0
 10 11  2  0  0  0
 11 12  1  0  0  0
 11  6  1  0  0  0
  5  1  1  0  0  0
 25 18  1  0  0  0
 16 17  1  0  0  0
 12 13  1  0  0  0
M  END
> <score>
-0.078002

> <minimizedAffinity>
-7.34502

> <CNNscore>
0.6790236235

> <CNNaffinity>
5.7064142227

> <CNN_VS>
3.8747899532

$$$$
HIPS5843


 25 27  0  0  0  0  0  0  0  0999 V2000
   68.4824   78.0979   90.4482 N   0  0  0  0  0  0  0  0  0  0  0  0
   69.4059   78.8933   89.8718 C   0  0  0  0  0  0  0  0  0  0  0  0
   69.0067   80.1953   90.1098 C   0  0  0  0  0  0  0  0  0  0  0  0
   67.8592   80.1534   90.8174 N   0  0  0  0  0  0  0  0  0  0  0  0
   67.5663   78.8756   91.0059 N   0  0  0  0  0  0  0  0  0  0  0  0
   69.0992   74.5453   91.5340 C   0  0  0  0  0  0  0  0  0  0  0  0
   69.1104   75.9511   91.4901 C   0  0  0  0  0  0  0  0  0  0  0  0
   68.4425   76.6554   90.4727 C   0  0  0  0  0  0  0  0  0  0  0  0
   67.7598   75.9278   89.4835 C   0  0  0  0  0  0  0  0  0  0  0  0
   67.7247   74.5340   89.5277 C   0  0  0  0  0  0  0  0  0  0  0  0
   68.3662   73.8335   90.5531 C   0  0  0  0  0  0  0  0  0  0  0  0
   68.2229   72.4443   90.5783 O   0  0  0  0  0  0  0  0  0  0  0  0
   67.7292   72.0120   89.9094 H   0  0  0  0  0  0  0  0  0  0  0  0
   70.5172   72.8086   92.3455 O   0  0  0  0  0  0  0  0  0  0  0  0
   69.8845   73.8703   92.5910 C   0  0  0  0  0  0  0  0  0  0  0  0
   69.9787   74.4431   93.8567 O   0  0  0  0  0  0  0  0  0  0  0  0
   69.5122   75.2325   94.0496 H   0  0  0  0  0  0  0  0  0  0  0  0
   69.6777   81.4459   89.6812 C   0  0  0  0  0  0  0  0  0  0  0  0
   68.9707   82.4601   89.0073 C   0  0  0  0  0  0  0  0  0  0  0  0
   69.6212   83.6338   88.6102 C   0  0  0  0  0  0  0  0  0  0  0  0
   68.7289   84.8899   87.7711 Cl  0  0  0  0  0  0  0  0  0  0  0  0
   70.9810   83.8072   88.8807 C   0  0  0  0  0  0  0  0  0  0  0  0
   71.6937   82.8078   89.5485 C   0  0  0  0  0  0  0  0  0  0  0  0
   73.4010   83.0271   89.8870 Cl  0  0  0  0  0  0  0  0  0  0  0  0
   71.0467   81.6330   89.9470 C   0  0  0  0  0  0  0  0  0  0  0  0
 14 15  2  0  0  0
 15 16  1  0  0  0
 15  6  1  0  0  0
  6  7  2  0  0  0
  7  8  1  0  0  0
  8  1  1  0  0  0
  1  2  1  0  0  0
  2  3  2  0  0  0
  3 18  1  0  0  0
 18 19  2  0  0  0
 19 20  1  0  0  0
 20 21  1  0  0  0
 20 22  2  0  0  0
 22 23  1  0  0  0
 23 24  1  0  0  0
 23 25  2  0  0  0
  3  4  2  0  0  0
  4  5  2  0  0  0
  8  9  2  0  0  0
  9 10  1  0  0  0
 10 11  2  0  0  0
 11 12  1  0  0  0
 11  6  1  0  0  0
  5  1  1  0  0  0
 25 18  1  0  0  0
 16 17  1  0  0  0
 12 13  1  0  0  0
M  END
> <score>
-0.078002

> <minimizedAffinity>
-7.56920

> <CNNscore>
0.5735887289

> <CNNaffinity>
5.6042022705

> <CNN_VS>
3.2145073414

$$$$
HIPS5843


 25 27  0  0  0  0  0  0  0  0999 V2000
   68.5249   78.0977   90.4777 N   0  0  0  0  0  0  0  0  0  0  0  0
   69.4281   78.8958   89.8736 C   0  0  0  0  0  0  0  0  0  0  0  0
   69.0383   80.1967   90.1325 C   0  0  0  0  0  0  0  0  0  0  0  0
   67.9163   80.1514   90.8796 N   0  0  0  0  0  0  0  0  0  0  0  0
   67.6293   78.8728   91.0714 N   0  0  0  0  0  0  0  0  0  0  0  0
   69.1742   74.5391   91.5243 C   0  0  0  0  0  0  0  0  0  0  0  0
   69.1848   75.9451   91.4875 C   0  0  0  0  0  0  0  0  0  0  0  0
   68.4849   76.6551   90.4959 C   0  0  0  0  0  0  0  0  0  0  0  0
   67.7702   75.9330   89.5254 C   0  0  0  0  0  0  0  0  0  0  0  0
   67.7357   74.5390   89.5633 C   0  0  0  0  0  0  0  0  0  0  0  0
   68.4095   73.8328   90.5637 C   0  0  0  0  0  0  0  0  0  0  0  0
   68.2663   72.4436   90.5862 O   0  0  0  0  0  0  0  0  0  0  0  0
   67.7510   72.0151   89.9313 H   0  0  0  0  0  0  0  0  0  0  0  0
   70.1442   74.3649   93.6955 O   0  0  0  0  0  0  0  0  0  0  0  0
   69.9928   73.8581   92.5518 C   0  0  0  0  0  0  0  0  0  0  0  0
   70.5540   72.6136   92.2777 O   0  0  0  0  0  0  0  0  0  0  0  0
   70.4473   72.2279   91.4304 H   0  0  0  0  0  0  0  0  0  0  0  0
   69.6947   81.4492   89.6873 C   0  0  0  0  0  0  0  0  0  0  0  0
   71.0616   81.6837   89.9303 C   0  0  0  0  0  0  0  0  0  0  0  0
   71.6640   82.8723   89.5027 C   0  0  0  0  0  0  0  0  0  0  0  0
   73.3681   83.1523   89.8117 Cl  0  0  0  0  0  0  0  0  0  0  0  0
   70.9099   83.8373   88.8300 C   0  0  0  0  0  0  0  0  0  0  0  0
   69.5524   83.6165   88.5832 C   0  0  0  0  0  0  0  0  0  0  0  0
   68.6072   84.8294   87.7386 Cl  0  0  0  0  0  0  0  0  0  0  0  0
   68.9469   82.4294   89.0092 C   0  0  0  0  0  0  0  0  0  0  0  0
 14 15  2  0  0  0
 15 16  1  0  0  0
 15  6  1  0  0  0
  6  7  2  0  0  0
  7  8  1  0  0  0
  8  1  1  0  0  0
  1  2  1  0  0  0
  2  3  2  0  0  0
  3 18  1  0  0  0
 18 19  2  0  0  0
 19 20  1  0  0  0
 20 21  1  0  0  0
 20 22  2  0  0  0
 22 23  1  0  0  0
 23 24  1  0  0  0
 23 25  2  0  0  0
  3  4  2  0  0  0
  4  5  2  0  0  0
  8  9  2  0  0  0
  9 10  1  0  0  0
 10 11  2  0  0  0
 11 12  1  0  0  0
 11  6  1  0  0  0
  5  1  1  0  0  0
 25 18  1  0  0  0
 16 17  1  0  0  0
 12 13  1  0  0  0
M  END
> <score>
-0.078002

> <minimizedAffinity>
-7.62874

> <CNNscore>
0.5719198585

> <CNNaffinity>
5.6453733444

> <CNN_VS>
3.2287011147

$$$$
HIPS5844


 25 26  0  0  0  0  0  0  0  0999 V2000
   67.6483   79.5874   90.7130 O   0  0  0  0  0  0  0  0  0  0  0  0
   70.0995   76.9616   91.6381 C   0  0  0  0  0  0  0  0  0  0  0  0
   68.9117   77.7088   91.5258 C   0  0  0  0  0  0  0  0  0  0  0  0
   68.8689   78.8963   90.7872 C   0  0  0  0  0  0  0  0  0  0  0  0
   70.0364   79.3520   90.1521 C   0  0  0  0  0  0  0  0  0  0  0  0
   71.2211   78.6232   90.2536 C   0  0  0  0  0  0  0  0  0  0  0  0
   71.2647   77.4315   90.9899 C   0  0  0  0  0  0  0  0  0  0  0  0
   72.4638   76.7233   91.0732 O   0  0  0  0  0  0  0  0  0  0  0  0
   73.2292   77.0453   90.6390 H   0  0  0  0  0  0  0  0  0  0  0  0
   70.3166   74.5924   91.8834 O   0  0  0  0  0  0  0  0  0  0  0  0
   70.0937   75.7054   92.4311 C   0  0  0  0  0  0  0  0  0  0  0  0
   69.8394   75.7445   93.8000 O   0  0  0  0  0  0  0  0  0  0  0  0
   69.6718   76.5641   94.2222 H   0  0  0  0  0  0  0  0  0  0  0  0
   66.4401   79.0684   90.1544 C   0  0  0  0  0  0  0  0  0  0  0  0
   66.7111   78.3382   88.8579 C   0  0  0  0  0  0  0  0  0  0  0  0
   66.5914   76.9387   88.8290 C   0  0  0  0  0  0  0  0  0  0  0  0
   66.8190   76.2269   87.6500 C   0  0  0  0  0  0  0  0  0  0  0  0
   67.1386   76.9015   86.4619 C   0  0  0  0  0  0  0  0  0  0  0  0
   67.2629   78.3000   86.4856 C   0  0  0  0  0  0  0  0  0  0  0  0
   67.0359   79.0213   87.6644 C   0  0  0  0  0  0  0  0  0  0  0  0
   67.1712   80.7760   87.5924 Cl  0  0  0  0  0  0  0  0  0  0  0  0
   67.4347   76.1302   85.2000 C   0  0  0  0  0  0  0  0  0  0  0  0
   68.7031   76.4254   84.7309 F   0  0  0  0  0  0  0  0  0  0  0  0
   66.5070   76.4678   84.2326 F   0  0  0  0  0  0  0  0  0  0  0  0
   67.3672   74.7675   85.4336 F   0  0  0  0  0  0  0  0  0  0  0  0
 10 11  2  0  0  0
 11 12  1  0  0  0
 11  2  1  0  0  0
  2  3  2  0  0  0
  3  4  1  0  0  0
  4  1  1  0  0  0
  1 14  1  0  0  0
 14 15  1  0  0  0
 15 16  2  0  0  0
 16 17  1  0  0  0
 17 18  2  0  0  0
 18 22  1  0  0  0
 22 23  1  0  0  0
 22 24  1  0  0  0
 22 25  1  0  0  0
 18 19  1  0  0  0
 19 20  2  0  0  0
 20 21  1  0  0  0
  4  5  2  0  0  0
  5  6  1  0  0  0
  6  7  2  0  0  0
  7  8  1  0  0  0
  7  2  1  0  0  0
 20 15  1  0  0  0
 12 13  1  0  0  0
  8  9  1  0  0  0
M  END
> <score>
0.007454

> <minimizedAffinity>
-7.21140

> <CNNscore>
0.9036415219

> <CNNaffinity>
5.9112319946

> <CNN_VS>
5.3416347504

$$$$
HIPS5844


 25 26  0  0  0  0  0  0  0  0999 V2000
   68.2607   79.3001   89.1421 O   0  0  0  0  0  0  0  0  0  0  0  0
   69.3919   76.2766   90.9691 C   0  0  0  0  0  0  0  0  0  0  0  0
   69.2690   77.6047   90.5186 C   0  0  0  0  0  0  0  0  0  0  0  0
   68.3326   77.9549   89.5398 C   0  0  0  0  0  0  0  0  0  0  0  0
   67.5054   76.9591   88.9939 C   0  0  0  0  0  0  0  0  0  0  0  0
   67.6147   75.6388   89.4296 C   0  0  0  0  0  0  0  0  0  0  0  0
   68.5495   75.2870   90.4126 C   0  0  0  0  0  0  0  0  0  0  0  0
   68.6357   73.9584   90.8293 O   0  0  0  0  0  0  0  0  0  0  0  0
   68.0717   73.3118   90.4528 H   0  0  0  0  0  0  0  0  0  0  0  0
   71.4722   76.6106   92.1012 O   0  0  0  0  0  0  0  0  0  0  0  0
   70.3992   75.9552   92.0126 C   0  0  0  0  0  0  0  0  0  0  0  0
   70.1668   74.9173   92.9119 O   0  0  0  0  0  0  0  0  0  0  0  0
   69.3740   74.4205   92.8593 H   0  0  0  0  0  0  0  0  0  0  0  0
   68.2562   80.4219   90.0268 C   0  0  0  0  0  0  0  0  0  0  0  0
   69.3247   81.4210   89.6425 C   0  0  0  0  0  0  0  0  0  0  0  0
   70.5814   81.3443   90.2656 C   0  0  0  0  0  0  0  0  0  0  0  0
   71.6002   82.2379   89.9305 C   0  0  0  0  0  0  0  0  0  0  0  0
   71.3971   83.2088   88.9381 C   0  0  0  0  0  0  0  0  0  0  0  0
   70.1418   83.2922   88.3142 C   0  0  0  0  0  0  0  0  0  0  0  0
   69.1148   82.3994   88.6449 C   0  0  0  0  0  0  0  0  0  0  0  0
   67.5870   82.5488   87.7813 Cl  0  0  0  0  0  0  0  0  0  0  0  0
   72.4796   84.2070   88.6115 C   0  0  0  0  0  0  0  0  0  0  0  0
   71.9796   85.4977   88.6338 F   0  0  0  0  0  0  0  0  0  0  0  0
   72.9792   83.9396   87.3508 F   0  0  0  0  0  0  0  0  0  0  0  0
   73.5107   84.1276   89.5315 F   0  0  0  0  0  0  0  0  0  0  0  0
 10 11  2  0  0  0
 11 12  1  0  0  0
 11  2  1  0  0  0
  2  3  2  0  0  0
  3  4  1  0  0  0
  4  1  1  0  0  0
  1 14  1  0  0  0
 14 15  1  0  0  0
 15 16  2  0  0  0
 16 17  1  0  0  0
 17 18  2  0  0  0
 18 22  1  0  0  0
 22 23  1  0  0  0
 22 24  1  0  0  0
 22 25  1  0  0  0
 18 19  1  0  0  0
 19 20  2  0  0  0
 20 21  1  0  0  0
  4  5  2  0  0  0
  5  6  1  0  0  0
  6  7  2  0  0  0
  7  8  1  0  0  0
  7  2  1  0  0  0
 20 15  1  0  0  0
 12 13  1  0  0  0
  8  9  1  0  0  0
M  END
> <score>
0.007454

> <minimizedAffinity>
-7.56090

> <CNNscore>
0.8075988293

> <CNNaffinity>
5.6600818634

> <CNN_VS>
4.5710754395

$$$$
HIPS5844


 25 26  0  0  0  0  0  0  0  0999 V2000
   67.6468   77.3898   92.2466 O   0  0  0  0  0  0  0  0  0  0  0  0
   68.2136   74.4165   94.3909 C   0  0  0  0  0  0  0  0  0  0  0  0
   68.4144   75.4777   93.4879 C   0  0  0  0  0  0  0  0  0  0  0  0
   67.3735   76.3493   93.1497 C   0  0  0  0  0  0  0  0  0  0  0  0
   66.1037   76.1553   93.7190 C   0  0  0  0  0  0  0  0  0  0  0  0
   65.8885   75.1088   94.6154 C   0  0  0  0  0  0  0  0  0  0  0  0
   66.9311   74.2372   94.9581 C   0  0  0  0  0  0  0  0  0  0  0  0
   66.6864   73.1997   95.8581 O   0  0  0  0  0  0  0  0  0  0  0  0
   65.8320   73.0914   96.2272 H   0  0  0  0  0  0  0  0  0  0  0  0
   69.3857   72.8918   95.8129 O   0  0  0  0  0  0  0  0  0  0  0  0
   69.3512   73.5199   94.7207 C   0  0  0  0  0  0  0  0  0  0  0  0
   70.4010   73.3626   93.8188 O   0  0  0  0  0  0  0  0  0  0  0  0
   70.3903   73.8226   93.0026 H   0  0  0  0  0  0  0  0  0  0  0  0
   68.3404   77.2434   91.0062 C   0  0  0  0  0  0  0  0  0  0  0  0
   69.1052   78.5014   90.6599 C   0  0  0  0  0  0  0  0  0  0  0  0
   68.3882   79.6785   90.3876 C   0  0  0  0  0  0  0  0  0  0  0  0
   69.0550   80.8650   90.0773 C   0  0  0  0  0  0  0  0  0  0  0  0
   70.4573   80.9111   90.0658 C   0  0  0  0  0  0  0  0  0  0  0  0
   71.1792   79.7368   90.3339 C   0  0  0  0  0  0  0  0  0  0  0  0
   70.5175   78.5426   90.6461 C   0  0  0  0  0  0  0  0  0  0  0  0
   71.5029   77.1291   91.0115 Cl  0  0  0  0  0  0  0  0  0  0  0  0
   71.1780   82.1790   89.6809 C   0  0  0  0  0  0  0  0  0  0  0  0
   72.5488   81.9860   89.6898 F   0  0  0  0  0  0  0  0  0  0  0  0
   70.8579   83.1757   90.5835 F   0  0  0  0  0  0  0  0  0  0  0  0
   70.8074   82.5847   88.4105 F   0  0  0  0  0  0  0  0  0  0  0  0
 10 11  2  0  0  0
 11 12  1  0  0  0
 11  2  1  0  0  0
  2  3  2  0  0  0
  3  4  1  0  0  0
  4  1  1  0  0  0
  1 14  1  0  0  0
 14 15  1  0  0  0
 15 16  2  0  0  0
 16 17  1  0  0  0
 17 18  2  0  0  0
 18 22  1  0  0  0
 22 23  1  0  0  0
 22 24  1  0  0  0
 22 25  1  0  0  0
 18 19  1  0  0  0
 19 20  2  0  0  0
 20 21  1  0  0  0
  4  5  2  0  0  0
  5  6  1  0  0  0
  6  7  2  0  0  0
  7  8  1  0  0  0
  7  2  1  0  0  0
 20 15  1  0  0  0
 12 13  1  0  0  0
  8  9  1  0  0  0
M  END
> <score>
0.007454

> <minimizedAffinity>
-7.39749

> <CNNscore>
0.7651227713

> <CNNaffinity>
5.4637937546

> <CNN_VS>
4.1804728508

$$$$
HIPS5846


 28 29  0  0  0  0  0  0  0  0999 V2000
   68.9699   83.6573   91.1915 C   0  0  0  0  0  0  0  0  0  0  0  0
   68.3640   82.4659   90.7397 C   0  0  0  0  0  0  0  0  0  0  0  0
   68.6575   81.9394   89.4775 C   0  0  0  0  0  0  0  0  0  0  0  0
   69.5857   82.5854   88.6549 C   0  0  0  0  0  0  0  0  0  0  0  0
   70.2146   83.7792   89.0579 C   0  0  0  0  0  0  0  0  0  0  0  0
   69.8907   84.2985   90.3326 C   0  0  0  0  0  0  0  0  0  0  0  0
   68.3613   85.7965   92.5036 C   0  0  0  0  0  0  0  0  0  0  0  0
   68.6556   84.2780   92.5709 C   0  0  0  0  0  0  0  0  0  0  0  0
   69.8635   84.0790   93.5127 C   0  0  0  0  0  0  0  0  0  0  0  0
   67.4126   83.5891   93.1764 C   0  0  0  0  0  0  0  0  0  0  0  0
   71.2126   84.4691   88.1020 C   0  0  0  0  0  0  0  0  0  0  0  0
   71.0505   83.8879   86.6803 C   0  0  0  0  0  0  0  0  0  0  0  0
   70.9292   85.9871   88.0712 C   0  0  0  0  0  0  0  0  0  0  0  0
   72.6912   84.2783   88.5191 C   0  0  0  0  0  0  0  0  0  0  0  0
   67.9768   80.6764   89.0141 C   0  0  0  0  0  0  0  0  0  0  0  0
   67.9960   79.6844   90.0418 O   0  0  0  0  0  0  0  0  0  0  0  0
   69.0881   78.8568   90.3518 C   0  0  0  0  0  0  0  0  0  0  0  0
   70.3741   79.3517   90.1269 C   0  0  0  0  0  0  0  0  0  0  0  0
   71.4944   78.5831   90.4420 C   0  0  0  0  0  0  0  0  0  0  0  0
   71.3515   77.3038   90.9893 C   0  0  0  0  0  0  0  0  0  0  0  0
   72.5134   76.6220   91.3579 O   0  0  0  0  0  0  0  0  0  0  0  0
   70.0543   76.7652   91.1802 C   0  0  0  0  0  0  0  0  0  0  0  0
   68.9341   77.5581   90.8718 C   0  0  0  0  0  0  0  0  0  0  0  0
   73.3522   77.0141   91.2141 H   0  0  0  0  0  0  0  0  0  0  0  0
   69.8240   75.3864   91.6652 C   0  0  0  0  0  0  0  0  0  0  0  0
   70.3514   74.9826   92.7358 O   0  0  0  0  0  0  0  0  0  0  0  0
   69.0658   74.5022   90.9023 O   0  0  0  0  0  0  0  0  0  0  0  0
   68.6694   74.7927   90.1045 H   0  0  0  0  0  0  0  0  0  0  0  0
  7  8  1  0  0  0
  8  9  1  0  0  0
  8 10  1  0  0  0
  8  1  1  0  0  0
  1  2  2  0  0  0
  2  3  1  0  0  0
  3 15  1  0  0  0
 15 16  1  0  0  0
 16 17  1  0  0  0
 17 18  2  0  0  0
 18 19  1  0  0  0
 19 20  2  0  0  0
 20 21  1  0  0  0
 20 22  1  0  0  0
 22 25  1  0  0  0
 25 26  2  0  0  0
 25 27  1  0  0  0
 22 23  2  0  0  0
  3  4  2  0  0  0
  4  5  1  0  0  0
  5 11  1  0  0  0
 11 12  1  0  0  0
 11 13  1  0  0  0
 11 14  1  0  0  0
  5  6  2  0  0  0
  6  1  1  0  0  0
 23 17  1  0  0  0
 21 24  1  0  0  0
 27 28  1  0  0  0
M  END
> <score>
-0.89061

> <minimizedAffinity>
-7.50534

> <CNNscore>
0.8243075609

> <CNNaffinity>
6.2850103378

> <CNN_VS>
5.1807813644

$$$$
HIPS5846


 28 29  0  0  0  0  0  0  0  0999 V2000
   67.4498   78.6426   89.1839 C   0  0  0  0  0  0  0  0  0  0  0  0
   66.6351   78.6209   90.3356 C   0  0  0  0  0  0  0  0  0  0  0  0
   66.7879   79.5749   91.3470 C   0  0  0  0  0  0  0  0  0  0  0  0
   67.7445   80.5855   91.2089 C   0  0  0  0  0  0  0  0  0  0  0  0
   68.5848   80.6486   90.0807 C   0  0  0  0  0  0  0  0  0  0  0  0
   68.4200   79.6645   89.0786 C   0  0  0  0  0  0  0  0  0  0  0  0
   66.0248   77.7474   87.2252 C   0  0  0  0  0  0  0  0  0  0  0  0
   67.3223   77.5944   88.0561 C   0  0  0  0  0  0  0  0  0  0  0  0
   67.3187   76.1765   88.6686 C   0  0  0  0  0  0  0  0  0  0  0  0
   68.5159   77.7320   87.0853 C   0  0  0  0  0  0  0  0  0  0  0  0
   69.6440   81.7689   89.9874 C   0  0  0  0  0  0  0  0  0  0  0  0
   69.4671   82.7454   91.1708 C   0  0  0  0  0  0  0  0  0  0  0  0
   71.0566   81.1464   90.0424 C   0  0  0  0  0  0  0  0  0  0  0  0
   69.5480   82.5948   88.6815 C   0  0  0  0  0  0  0  0  0  0  0  0
   65.9170   79.5119   92.5762 C   0  0  0  0  0  0  0  0  0  0  0  0
   66.5730   78.7988   93.6258 O   0  0  0  0  0  0  0  0  0  0  0  0
   66.8542   77.4223   93.6206 C   0  0  0  0  0  0  0  0  0  0  0  0
   65.8241   76.5386   93.9478 C   0  0  0  0  0  0  0  0  0  0  0  0
   66.0406   75.1609   93.9320 C   0  0  0  0  0  0  0  0  0  0  0  0
   67.2917   74.6387   93.5878 C   0  0  0  0  0  0  0  0  0  0  0  0
   67.4167   73.2497   93.5118 O   0  0  0  0  0  0  0  0  0  0  0  0
   68.3629   75.5210   93.2994 C   0  0  0  0  0  0  0  0  0  0  0  0
   68.1253   76.9074   93.3047 C   0  0  0  0  0  0  0  0  0  0  0  0
   66.6832   72.7017   93.7109 H   0  0  0  0  0  0  0  0  0  0  0  0
   69.7365   75.0471   93.0196 C   0  0  0  0  0  0  0  0  0  0  0  0
   70.1215   73.9149   93.4161 O   0  0  0  0  0  0  0  0  0  0  0  0
   70.6365   75.8828   92.3636 O   0  0  0  0  0  0  0  0  0  0  0  0
   70.3599   76.7267   92.0648 H   0  0  0  0  0  0  0  0  0  0  0  0
  7  8  1  0  0  0
  8  9  1  0  0  0
  8 10  1  0  0  0
  8  1  1  0  0  0
  1  2  2  0  0  0
  2  3  1  0  0  0
  3 15  1  0  0  0
 15 16  1  0  0  0
 16 17  1  0  0  0
 17 18  2  0  0  0
 18 19  1  0  0  0
 19 20  2  0  0  0
 20 21  1  0  0  0
 20 22  1  0  0  0
 22 25  1  0  0  0
 25 26  2  0  0  0
 25 27  1  0  0  0
 22 23  2  0  0  0
  3  4  2  0  0  0
  4  5  1  0  0  0
  5 11  1  0  0  0
 11 12  1  0  0  0
 11 13  1  0  0  0
 11 14  1  0  0  0
  5  6  2  0  0  0
  6  1  1  0  0  0
 23 17  1  0  0  0
 21 24  1  0  0  0
 27 28  1  0  0  0
M  END
> <score>
-0.89061

> <minimizedAffinity>
-6.70936

> <CNNscore>
0.7132765055

> <CNNaffinity>
6.3583126068

> <CNN_VS>
4.5352349281

$$$$
HIPS5846


 28 29  0  0  0  0  0  0  0  0999 V2000
   67.7277   82.3171   92.5408 C   0  0  0  0  0  0  0  0  0  0  0  0
   67.1080   81.3964   93.4120 C   0  0  0  0  0  0  0  0  0  0  0  0
   66.6486   80.1594   92.9483 C   0  0  0  0  0  0  0  0  0  0  0  0
   66.8265   79.8120   91.6055 C   0  0  0  0  0  0  0  0  0  0  0  0
   67.4352   80.6972   90.6950 C   0  0  0  0  0  0  0  0  0  0  0  0
   67.8787   81.9472   91.1854 C   0  0  0  0  0  0  0  0  0  0  0  0
   68.0284   83.9358   94.5302 C   0  0  0  0  0  0  0  0  0  0  0  0
   68.2300   83.6996   93.0134 C   0  0  0  0  0  0  0  0  0  0  0  0
   67.4630   84.8106   92.2630 C   0  0  0  0  0  0  0  0  0  0  0  0
   69.7408   83.8288   92.7187 C   0  0  0  0  0  0  0  0  0  0  0  0
   67.5846   80.2775   89.2161 C   0  0  0  0  0  0  0  0  0  0  0  0
   68.1492   81.4604   88.3991 C   0  0  0  0  0  0  0  0  0  0  0  0
   68.5521   79.0776   89.1176 C   0  0  0  0  0  0  0  0  0  0  0  0
   66.2469   79.8540   88.5619 C   0  0  0  0  0  0  0  0  0  0  0  0
   65.9704   79.2060   93.8994 C   0  0  0  0  0  0  0  0  0  0  0  0
   65.7711   77.9325   93.2837 O   0  0  0  0  0  0  0  0  0  0  0  0
   66.4221   76.7425   93.6495 C   0  0  0  0  0  0  0  0  0  0  0  0
   65.8465   75.9581   94.6508 C   0  0  0  0  0  0  0  0  0  0  0  0
   66.4361   74.7536   95.0341 C   0  0  0  0  0  0  0  0  0  0  0  0
   67.6130   74.3086   94.4231 C   0  0  0  0  0  0  0  0  0  0  0  0
   68.1042   73.0555   94.7962 O   0  0  0  0  0  0  0  0  0  0  0  0
   68.2382   75.1141   93.4386 C   0  0  0  0  0  0  0  0  0  0  0  0
   67.6238   76.3190   93.0518 C   0  0  0  0  0  0  0  0  0  0  0  0
   67.6604   72.5546   95.4520 H   0  0  0  0  0  0  0  0  0  0  0  0
   69.5320   74.7566   92.8159 C   0  0  0  0  0  0  0  0  0  0  0  0
   70.2488   73.8399   93.2987 O   0  0  0  0  0  0  0  0  0  0  0  0
   69.9953   75.4793   91.7196 O   0  0  0  0  0  0  0  0  0  0  0  0
   69.4697   76.1630   91.3531 H   0  0  0  0  0  0  0  0  0  0  0  0
  7  8  1  0  0  0
  8  9  1  0  0  0
  8 10  1  0  0  0
  8  1  1  0  0  0
  1  2  2  0  0  0
  2  3  1  0  0  0
  3 15  1  0  0  0
 15 16  1  0  0  0
 16 17  1  0  0  0
 17 18  2  0  0  0
 18 19  1  0  0  0
 19 20  2  0  0  0
 20 21  1  0  0  0
 20 22  1  0  0  0
 22 25  1  0  0  0
 25 26  2  0  0  0
 25 27  1  0  0  0
 22 23  2  0  0  0
  3  4  2  0  0  0
  4  5  1  0  0  0
  5 11  1  0  0  0
 11 12  1  0  0  0
 11 13  1  0  0  0
 11 14  1  0  0  0
  5  6  2  0  0  0
  6  1  1  0  0  0
 23 17  1  0  0  0
 21 24  1  0  0  0
 27 28  1  0  0  0
M  END
> <score>
-0.89061

> <minimizedAffinity>
-6.62321

> <CNNscore>
0.6738096476

> <CNNaffinity>
6.1158199310

> <CNN_VS>
4.1208982468

$$$$
HIPS5895


 26 28  0  0  0  0  0  0  0  0999 V2000
   68.6643   79.7540   89.0913 N   0  0  0  0  0  0  0  0  0  0  0  0
   68.6999   81.0810   89.6404 C   0  0  0  0  0  0  0  0  0  0  0  0
   68.2094   81.3098   90.7796 O   0  0  0  0  0  0  0  0  0  0  0  0
   68.7805   79.6528   88.1189 H   0  0  0  0  0  0  0  0  0  0  0  0
   69.2124   82.2101   88.8325 C   0  0  0  0  0  0  0  0  0  0  0  0
   68.3489   82.7888   87.8876 C   0  0  0  0  0  0  0  0  0  0  0  0
   68.7901   83.8109   87.0480 C   0  0  0  0  0  0  0  0  0  0  0  0
   70.0989   84.2793   87.1386 C   0  0  0  0  0  0  0  0  0  0  0  0
   70.9772   83.7425   88.0898 C   0  0  0  0  0  0  0  0  0  0  0  0
   72.2866   84.2386   88.1917 C   0  0  0  0  0  0  0  0  0  0  0  0
   73.1564   83.7353   89.1591 C   0  0  0  0  0  0  0  0  0  0  0  0
   72.7259   82.7436   90.0396 C   0  0  0  0  0  0  0  0  0  0  0  0
   71.4275   82.2360   89.9503 C   0  0  0  0  0  0  0  0  0  0  0  0
   70.5377   82.7074   88.9602 C   0  0  0  0  0  0  0  0  0  0  0  0
   69.3272   76.8128   91.3534 C   0  0  0  0  0  0  0  0  0  0  0  0
   69.5195   77.9965   90.6168 C   0  0  0  0  0  0  0  0  0  0  0  0
   68.4694   78.5648   89.8755 C   0  0  0  0  0  0  0  0  0  0  0  0
   67.2287   77.9186   89.8443 C   0  0  0  0  0  0  0  0  0  0  0  0
   67.0186   76.7563   90.5866 C   0  0  0  0  0  0  0  0  0  0  0  0
   68.0461   76.2093   91.3623 C   0  0  0  0  0  0  0  0  0  0  0  0
   67.7465   75.0933   92.1463 O   0  0  0  0  0  0  0  0  0  0  0  0
   66.8862   74.7227   92.1245 H   0  0  0  0  0  0  0  0  0  0  0  0
   70.4428   75.0174   92.4371 O   0  0  0  0  0  0  0  0  0  0  0  0
   70.4866   76.2176   92.0534 C   0  0  0  0  0  0  0  0  0  0  0  0
   71.6081   76.9874   92.3484 O   0  0  0  0  0  0  0  0  0  0  0  0
   71.6504   77.8804   92.0677 H   0  0  0  0  0  0  0  0  0  0  0  0
 23 24  2  0  0  0
 24 25  1  0  0  0
 24 15  1  0  0  0
 15 16  2  0  0  0
 16 17  1  0  0  0
 17  1  1  0  0  0
  1  2  1  0  0  0
  2  3  2  0  0  0
  2  5  1  0  0  0
  5  6  2  0  0  0
  6  7  1  0  0  0
  7  8  2  0  0  0
  8  9  1  0  0  0
  9 10  2  0  0  0
 10 11  1  0  0  0
 11 12  2  0  0  0
 12 13  1  0  0  0
 13 14  2  0  0  0
 17 18  2  0  0  0
 18 19  1  0  0  0
 19 20  2  0  0  0
 20 21  1  0  0  0
 20 15  1  0  0  0
 14  5  1  0  0  0
 14  9  1  0  0  0
 25 26  1  0  0  0
  1  4  1  0  0  0
 21 22  1  0  0  0
M  END
> <score>
1.153769

> <minimizedAffinity>
-8.04607

> <CNNscore>
0.7305216789

> <CNNaffinity>
5.3807659149

> <CNN_VS>
3.9307661057

$$$$
HIPS5895


 26 28  0  0  0  0  0  0  0  0999 V2000
   69.9785   79.8314   89.5242 N   0  0  0  0  0  0  0  0  0  0  0  0
   69.9647   81.1664   90.0546 C   0  0  0  0  0  0  0  0  0  0  0  0
   69.0752   81.5127   90.8788 O   0  0  0  0  0  0  0  0  0  0  0  0
   70.4804   79.6693   88.6930 H   0  0  0  0  0  0  0  0  0  0  0  0
   70.9252   82.1770   89.5584 C   0  0  0  0  0  0  0  0  0  0  0  0
   72.2014   82.2159   90.1443 C   0  0  0  0  0  0  0  0  0  0  0  0
   73.1302   83.1861   89.7702 C   0  0  0  0  0  0  0  0  0  0  0  0
   72.8063   84.1326   88.8007 C   0  0  0  0  0  0  0  0  0  0  0  0
   71.5517   84.1039   88.1766 C   0  0  0  0  0  0  0  0  0  0  0  0
   71.2433   85.0454   87.1819 C   0  0  0  0  0  0  0  0  0  0  0  0
   70.0107   85.0023   86.5303 C   0  0  0  0  0  0  0  0  0  0  0  0
   69.0812   84.0151   86.8552 C   0  0  0  0  0  0  0  0  0  0  0  0
   69.3700   83.0724   87.8448 C   0  0  0  0  0  0  0  0  0  0  0  0
   70.5985   83.1132   88.5401 C   0  0  0  0  0  0  0  0  0  0  0  0
   69.2747   76.8187   91.6772 C   0  0  0  0  0  0  0  0  0  0  0  0
   69.9313   77.9277   91.1120 C   0  0  0  0  0  0  0  0  0  0  0  0
   69.3037   78.7177   90.1336 C   0  0  0  0  0  0  0  0  0  0  0  0
   68.0222   78.3680   89.6936 C   0  0  0  0  0  0  0  0  0  0  0  0
   67.3518   77.2839   90.2604 C   0  0  0  0  0  0  0  0  0  0  0  0
   67.9526   76.5199   91.2664 C   0  0  0  0  0  0  0  0  0  0  0  0
   67.1965   75.5011   91.8496 O   0  0  0  0  0  0  0  0  0  0  0  0
   66.3247   75.3342   91.5495 H   0  0  0  0  0  0  0  0  0  0  0  0
   70.3476   74.8038   92.3343 O   0  0  0  0  0  0  0  0  0  0  0  0
   70.0105   75.9778   92.6468 C   0  0  0  0  0  0  0  0  0  0  0  0
   70.2843   76.4478   93.9280 O   0  0  0  0  0  0  0  0  0  0  0  0
   70.0378   77.3188   94.1701 H   0  0  0  0  0  0  0  0  0  0  0  0
 23 24  2  0  0  0
 24 25  1  0  0  0
 24 15  1  0  0  0
 15 16  2  0  0  0
 16 17  1  0  0  0
 17  1  1  0  0  0
  1  2  1  0  0  0
  2  3  2  0  0  0
  2  5  1  0  0  0
  5  6  2  0  0  0
  6  7  1  0  0  0
  7  8  2  0  0  0
  8  9  1  0  0  0
  9 10  2  0  0  0
 10 11  1  0  0  0
 11 12  2  0  0  0
 12 13  1  0  0  0
 13 14  2  0  0  0
 17 18  2  0  0  0
 18 19  1  0  0  0
 19 20  2  0  0  0
 20 21  1  0  0  0
 20 15  1  0  0  0
 14  5  1  0  0  0
 14  9  1  0  0  0
 25 26  1  0  0  0
  1  4  1  0  0  0
 21 22  1  0  0  0
M  END
> <score>
1.153769

> <minimizedAffinity>
-7.95583

> <CNNscore>
0.6443901658

> <CNNaffinity>
5.2569561005

> <CNN_VS>
3.3875308037

$$$$
HIPS5895


 26 28  0  0  0  0  0  0  0  0999 V2000
   67.2870   76.5877   91.9739 N   0  0  0  0  0  0  0  0  0  0  0  0
   67.5885   76.1601   90.6360 C   0  0  0  0  0  0  0  0  0  0  0  0
   68.1804   75.0641   90.4382 O   0  0  0  0  0  0  0  0  0  0  0  0
   67.0973   77.5423   92.1225 H   0  0  0  0  0  0  0  0  0  0  0  0
   67.3064   77.0485   89.4866 C   0  0  0  0  0  0  0  0  0  0  0  0
   66.7598   76.4724   88.3278 C   0  0  0  0  0  0  0  0  0  0  0  0
   66.5327   77.2406   87.1866 C   0  0  0  0  0  0  0  0  0  0  0  0
   66.8409   78.5992   87.1810 C   0  0  0  0  0  0  0  0  0  0  0  0
   67.3610   79.2104   88.3299 C   0  0  0  0  0  0  0  0  0  0  0  0
   67.6442   80.5855   88.3237 C   0  0  0  0  0  0  0  0  0  0  0  0
   68.1285   81.2093   89.4736 C   0  0  0  0  0  0  0  0  0  0  0  0
   68.3229   80.4720   90.6409 C   0  0  0  0  0  0  0  0  0  0  0  0
   68.0497   79.1023   90.6640 C   0  0  0  0  0  0  0  0  0  0  0  0
   67.5874   78.4416   89.5047 C   0  0  0  0  0  0  0  0  0  0  0  0
   68.3199   74.0991   94.6096 C   0  0  0  0  0  0  0  0  0  0  0  0
   68.3804   74.9856   93.5183 C   0  0  0  0  0  0  0  0  0  0  0  0
   67.2454   75.7063   93.1091 C   0  0  0  0  0  0  0  0  0  0  0  0
   66.0326   75.5062   93.7777 C   0  0  0  0  0  0  0  0  0  0  0  0
   65.9638   74.6464   94.8741 C   0  0  0  0  0  0  0  0  0  0  0  0
   67.0998   73.9595   95.3150 C   0  0  0  0  0  0  0  0  0  0  0  0
   66.9829   73.1799   96.4675 O   0  0  0  0  0  0  0  0  0  0  0  0
   66.1575   73.1128   96.9060 H   0  0  0  0  0  0  0  0  0  0  0  0
   70.4848   73.2442   94.1350 O   0  0  0  0  0  0  0  0  0  0  0  0
   69.5242   73.3097   94.9490 C   0  0  0  0  0  0  0  0  0  0  0  0
   69.5857   72.5858   96.1363 O   0  0  0  0  0  0  0  0  0  0  0  0
   68.8770   72.6278   96.7478 H   0  0  0  0  0  0  0  0  0  0  0  0
 23 24  2  0  0  0
 24 25  1  0  0  0
 24 15  1  0  0  0
 15 16  2  0  0  0
 16 17  1  0  0  0
 17  1  1  0  0  0
  1  2  1  0  0  0
  2  3  2  0  0  0
  2  5  1  0  0  0
  5  6  2  0  0  0
  6  7  1  0  0  0
  7  8  2  0  0  0
  8  9  1  0  0  0
  9 10  2  0  0  0
 10 11  1  0  0  0
 11 12  2  0  0  0
 12 13  1  0  0  0
 13 14  2  0  0  0
 17 18  2  0  0  0
 18 19  1  0  0  0
 19 20  2  0  0  0
 20 21  1  0  0  0
 20 15  1  0  0  0
 14  5  1  0  0  0
 14  9  1  0  0  0
 25 26  1  0  0  0
  1  4  1  0  0  0
 21 22  1  0  0  0
M  END
> <score>
1.153769

> <minimizedAffinity>
-7.80881

> <CNNscore>
0.6154695749

> <CNNaffinity>
5.3390798569

> <CNN_VS>
3.2860412598

$$$$
HIPS5896


 27 29  0  0  0  0  0  0  0  0999 V2000
   67.9799   79.1060   89.4101 N   0  0  0  0  0  0  0  0  0  0  0  0
   67.7304   78.7446   88.5290 H   0  0  0  0  0  0  0  0  0  0  0  0
   70.0465   76.8570   91.6181 C   0  0  0  0  0  0  0  0  0  0  0  0
   68.9381   77.4470   90.9849 C   0  0  0  0  0  0  0  0  0  0  0  0
   69.0997   78.5240   90.0971 C   0  0  0  0  0  0  0  0  0  0  0  0
   70.3823   79.0368   89.8740 C   0  0  0  0  0  0  0  0  0  0  0  0
   71.4877   78.4803   90.5172 C   0  0  0  0  0  0  0  0  0  0  0  0
   71.3349   77.4066   91.4003 C   0  0  0  0  0  0  0  0  0  0  0  0
   72.4744   76.9444   92.0627 O   0  0  0  0  0  0  0  0  0  0  0  0
   73.3080   77.3357   91.8896 H   0  0  0  0  0  0  0  0  0  0  0  0
   70.4881   74.6098   92.2823 O   0  0  0  0  0  0  0  0  0  0  0  0
   69.8173   75.6615   92.4598 C   0  0  0  0  0  0  0  0  0  0  0  0
   68.8058   75.6714   93.4167 O   0  0  0  0  0  0  0  0  0  0  0  0
   68.3009   76.4482   93.5568 H   0  0  0  0  0  0  0  0  0  0  0  0
   67.0462   80.4168   90.0616 S   0  0  0  0  0  0  0  0  0  0  0  0
   65.8251   80.6123   89.2069 O   0  0  0  0  0  0  0  0  0  0  0  0
   66.6065   80.0745   91.4573 O   0  0  0  0  0  0  0  0  0  0  0  0
   68.0235   81.8972   90.1179 C   0  0  0  0  0  0  0  0  0  0  0  0
   68.6678   82.2242   91.3220 C   0  0  0  0  0  0  0  0  0  0  0  0
   69.4016   83.4029   91.4435 C   0  0  0  0  0  0  0  0  0  0  0  0
   69.5075   84.2790   90.3663 C   0  0  0  0  0  0  0  0  0  0  0  0
   68.8841   83.9785   89.1481 C   0  0  0  0  0  0  0  0  0  0  0  0
   68.9965   84.8677   88.0676 C   0  0  0  0  0  0  0  0  0  0  0  0
   68.3824   84.5762   86.8497 C   0  0  0  0  0  0  0  0  0  0  0  0
   67.6569   83.3957   86.6969 C   0  0  0  0  0  0  0  0  0  0  0  0
   67.5357   82.4991   87.7611 C   0  0  0  0  0  0  0  0  0  0  0  0
   68.1384   82.7756   89.0073 C   0  0  0  0  0  0  0  0  0  0  0  0
 11 12  2  0  0  0
 12 13  1  0  0  0
 12  3  1  0  0  0
  3  4  2  0  0  0
  4  5  1  0  0  0
  5  1  1  0  0  0
  1 15  1  0  0  0
 15 16  2  0  0  0
 15 17  2  0  0  0
 15 18  1  0  0  0
 18 19  2  0  0  0
 19 20  1  0  0  0
 20 21  2  0  0  0
 21 22  1  0  0  0
 22 23  2  0  0  0
 23 24  1  0  0  0
 24 25  2  0  0  0
 25 26  1  0  0  0
 26 27  2  0  0  0
  5  6  2  0  0  0
  6  7  1  0  0  0
  7  8  2  0  0  0
  8  9  1  0  0  0
  8  3  1  0  0  0
 27 18  1  0  0  0
 27 22  1  0  0  0
 13 14  1  0  0  0
  1  2  1  0  0  0
  9 10  1  0  0  0
M  END
> <score>
1.153769

> <minimizedAffinity>
-6.95497

> <CNNscore>
0.6472018361

> <CNNaffinity>
5.7099437714

> <CNN_VS>
3.6954860687

$$$$
HIPS5896


 27 29  0  0  0  0  0  0  0  0999 V2000
   70.7748   80.2205   89.5927 N   0  0  0  0  0  0  0  0  0  0  0  0
   70.8410   80.1918   88.6109 H   0  0  0  0  0  0  0  0  0  0  0  0
   69.2509   77.1957   91.2458 C   0  0  0  0  0  0  0  0  0  0  0  0
   69.3735   78.4311   90.5851 C   0  0  0  0  0  0  0  0  0  0  0  0
   70.6361   78.9811   90.3064 C   0  0  0  0  0  0  0  0  0  0  0  0
   71.7838   78.3021   90.7299 C   0  0  0  0  0  0  0  0  0  0  0  0
   71.6770   77.0901   91.4116 C   0  0  0  0  0  0  0  0  0  0  0  0
   70.4237   76.5352   91.6904 C   0  0  0  0  0  0  0  0  0  0  0  0
   70.3884   75.3555   92.4372 O   0  0  0  0  0  0  0  0  0  0  0  0
   71.1876   74.9505   92.7116 H   0  0  0  0  0  0  0  0  0  0  0  0
   67.5507   76.0984   92.5073 O   0  0  0  0  0  0  0  0  0  0  0  0
   67.8963   76.6244   91.4157 C   0  0  0  0  0  0  0  0  0  0  0  0
   67.0119   76.6064   90.3403 O   0  0  0  0  0  0  0  0  0  0  0  0
   67.2589   76.9946   89.5241 H   0  0  0  0  0  0  0  0  0  0  0  0
   70.8309   81.7663   90.3812 S   0  0  0  0  0  0  0  0  0  0  0  0
   69.5333   81.9859   91.1078 O   0  0  0  0  0  0  0  0  0  0  0  0
   71.9509   81.7782   91.3831 O   0  0  0  0  0  0  0  0  0  0  0  0
   71.1158   83.0518   89.1912 C   0  0  0  0  0  0  0  0  0  0  0  0
   72.3746   83.6739   89.1717 C   0  0  0  0  0  0  0  0  0  0  0  0
   72.6382   84.7280   88.2988 C   0  0  0  0  0  0  0  0  0  0  0  0
   71.6514   85.1827   87.4278 C   0  0  0  0  0  0  0  0  0  0  0  0
   70.3874   84.5783   87.4158 C   0  0  0  0  0  0  0  0  0  0  0  0
   69.3989   85.0434   86.5341 C   0  0  0  0  0  0  0  0  0  0  0  0
   68.1385   84.4465   86.5120 C   0  0  0  0  0  0  0  0  0  0  0  0
   67.8549   83.3794   87.3630 C   0  0  0  0  0  0  0  0  0  0  0  0
   68.8269   82.9031   88.2459 C   0  0  0  0  0  0  0  0  0  0  0  0
   70.1067   83.4967   88.2956 C   0  0  0  0  0  0  0  0  0  0  0  0
 11 12  2  0  0  0
 12 13  1  0  0  0
 12  3  1  0  0  0
  3  4  2  0  0  0
  4  5  1  0  0  0
  5  1  1  0  0  0
  1 15  1  0  0  0
 15 16  2  0  0  0
 15 17  2  0  0  0
 15 18  1  0  0  0
 18 19  2  0  0  0
 19 20  1  0  0  0
 20 21  2  0  0  0
 21 22  1  0  0  0
 22 23  2  0  0  0
 23 24  1  0  0  0
 24 25  2  0  0  0
 25 26  1  0  0  0
 26 27  2  0  0  0
  5  6  2  0  0  0
  6  7  1  0  0  0
  7  8  2  0  0  0
  8  9  1  0  0  0
  8  3  1  0  0  0
 27 18  1  0  0  0
 27 22  1  0  0  0
 13 14  1  0  0  0
  1  2  1  0  0  0
  9 10  1  0  0  0
M  END
> <score>
1.153769

> <minimizedAffinity>
-7.40791

> <CNNscore>
0.6326074600

> <CNNaffinity>
5.5324316025

> <CNN_VS>
3.4998574257

$$$$
HIPS5896


 27 29  0  0  0  0  0  0  0  0999 V2000
   68.3855   79.7562   89.1732 N   0  0  0  0  0  0  0  0  0  0  0  0
   68.1806   79.4982   88.2455 H   0  0  0  0  0  0  0  0  0  0  0  0
   70.9183   77.5324   90.8595 C   0  0  0  0  0  0  0  0  0  0  0  0
   70.3431   78.4615   89.9743 C   0  0  0  0  0  0  0  0  0  0  0  0
   68.9754   78.7759   90.0426 C   0  0  0  0  0  0  0  0  0  0  0  0
   68.1719   78.1221   90.9830 C   0  0  0  0  0  0  0  0  0  0  0  0
   68.7228   77.1772   91.8483 C   0  0  0  0  0  0  0  0  0  0  0  0
   70.0838   76.8607   91.7880 C   0  0  0  0  0  0  0  0  0  0  0  0
   70.5543   75.8556   92.6359 O   0  0  0  0  0  0  0  0  0  0  0  0
   69.9689   75.4365   93.2356 H   0  0  0  0  0  0  0  0  0  0  0  0
   73.0268   76.9873   91.8307 O   0  0  0  0  0  0  0  0  0  0  0  0
   72.3824   77.3244   90.8018 C   0  0  0  0  0  0  0  0  0  0  0  0
   73.0704   77.5660   89.6155 O   0  0  0  0  0  0  0  0  0  0  0  0
   72.6010   77.8173   88.8445 H   0  0  0  0  0  0  0  0  0  0  0  0
   68.0173   81.3746   89.6827 S   0  0  0  0  0  0  0  0  0  0  0  0
   66.5417   81.6097   89.5176 O   0  0  0  0  0  0  0  0  0  0  0  0
   68.3705   81.5363   91.1344 O   0  0  0  0  0  0  0  0  0  0  0  0
   68.9550   82.5448   88.7334 C   0  0  0  0  0  0  0  0  0  0  0  0
   68.3160   83.2051   87.6715 C   0  0  0  0  0  0  0  0  0  0  0  0
   69.0164   84.0914   86.8551 C   0  0  0  0  0  0  0  0  0  0  0  0
   70.3682   84.3370   87.0817 C   0  0  0  0  0  0  0  0  0  0  0  0
   71.0338   83.7011   88.1380 C   0  0  0  0  0  0  0  0  0  0  0  0
   72.3967   83.9550   88.3588 C   0  0  0  0  0  0  0  0  0  0  0  0
   73.0677   83.3296   89.4096 C   0  0  0  0  0  0  0  0  0  0  0  0
   72.3859   82.4518   90.2510 C   0  0  0  0  0  0  0  0  0  0  0  0
   71.0295   82.1886   90.0466 C   0  0  0  0  0  0  0  0  0  0  0  0
   70.3299   82.8000   88.9838 C   0  0  0  0  0  0  0  0  0  0  0  0
 11 12  2  0  0  0
 12 13  1  0  0  0
 12  3  1  0  0  0
  3  4  2  0  0  0
  4  5  1  0  0  0
  5  1  1  0  0  0
  1 15  1  0  0  0
 15 16  2  0  0  0
 15 17  2  0  0  0
 15 18  1  0  0  0
 18 19  2  0  0  0
 19 20  1  0  0  0
 20 21  2  0  0  0
 21 22  1  0  0  0
 22 23  2  0  0  0
 23 24  1  0  0  0
 24 25  2  0  0  0
 25 26  1  0  0  0
 26 27  2  0  0  0
  5  6  2  0  0  0
  6  7  1  0  0  0
  7  8  2  0  0  0
  8  9  1  0  0  0
  8  3  1  0  0  0
 27 18  1  0  0  0
 27 22  1  0  0  0
 13 14  1  0  0  0
  1  2  1  0  0  0
  9 10  1  0  0  0
M  END
> <score>
1.153769

> <minimizedAffinity>
-8.10833

> <CNNscore>
0.6259052157

> <CNNaffinity>
5.7541189194

> <CNN_VS>
3.6015329361

$$$$
HIPS5897


 25 27  0  0  0  0  0  0  0  0999 V2000
   68.6452   80.2227   89.2431 N   0  0  0  0  0  0  0  0  0  0  0  0
   68.2460   80.4512   88.3727 H   0  0  0  0  0  0  0  0  0  0  0  0
   69.5767   76.9589   90.9025 C   0  0  0  0  0  0  0  0  0  0  0  0
   69.6092   78.3091   90.5105 C   0  0  0  0  0  0  0  0  0  0  0  0
   68.6355   78.8382   89.6443 C   0  0  0  0  0  0  0  0  0  0  0  0
   67.6351   77.9915   89.1515 C   0  0  0  0  0  0  0  0  0  0  0  0
   67.5833   76.6533   89.5417 C   0  0  0  0  0  0  0  0  0  0  0  0
   68.5272   76.1314   90.4317 C   0  0  0  0  0  0  0  0  0  0  0  0
   68.3670   74.8070   90.8451 O   0  0  0  0  0  0  0  0  0  0  0  0
   67.6588   74.2937   90.5091 H   0  0  0  0  0  0  0  0  0  0  0  0
   70.4691   75.4912   92.5567 O   0  0  0  0  0  0  0  0  0  0  0  0
   70.6643   76.4572   91.7716 C   0  0  0  0  0  0  0  0  0  0  0  0
   71.9365   77.0163   91.6803 O   0  0  0  0  0  0  0  0  0  0  0  0
   72.0919   77.7349   91.0994 H   0  0  0  0  0  0  0  0  0  0  0  0
   69.2087   81.3121   90.0430 C   0  0  0  0  0  0  0  0  0  0  0  0
   69.8283   82.3595   89.1544 C   0  0  0  0  0  0  0  0  0  0  0  0
   69.0728   82.9820   88.1341 C   0  0  0  0  0  0  0  0  0  0  0  0
   69.6545   83.9689   87.3066 C   0  0  0  0  0  0  0  0  0  0  0  0
   70.9984   84.3438   87.4806 C   0  0  0  0  0  0  0  0  0  0  0  0
   71.7195   83.7056   88.4855 C   0  0  0  0  0  0  0  0  0  0  0  0
   72.9986   83.8899   88.8328 N   0  0  0  0  0  0  0  0  0  0  0  0
   73.1898   83.0231   89.8551 C   0  0  0  0  0  0  0  0  0  0  0  0
   72.0826   82.2998   90.1657 N   0  0  0  0  0  0  0  0  0  0  0  0
   71.1671   82.7510   89.2870 C   0  0  0  0  0  0  0  0  0  0  0  0
   73.6503   84.5122   88.4363 H   0  0  0  0  0  0  0  0  0  0  0  0
 11 12  2  0  0  0
 12 13  1  0  0  0
 12  3  1  0  0  0
  3  4  2  0  0  0
  4  5  1  0  0  0
  5  1  1  0  0  0
  1 15  1  0  0  0
 15 16  1  0  0  0
 16 17  2  0  0  0
 17 18  1  0  0  0
 18 19  2  0  0  0
 19 20  1  0  0  0
 20 21  1  0  0  0
 21 22  1  0  0  0
 22 23  2  0  0  0
 23 24  2  0  0  0
  5  6  2  0  0  0
  6  7  1  0  0  0
  7  8  2  0  0  0
  8  9  1  0  0  0
  8  3  1  0  0  0
 24 16  1  0  0  0
 24 20  2  0  0  0
 13 14  1  0  0  0
  1  2  1  0  0  0
 21 25  1  0  0  0
  9 10  1  0  0  0
M  END
> <score>
0.948641

> <minimizedAffinity>
-6.49944

> <CNNscore>
0.7479678988

> <CNNaffinity>
5.1925735474

> <CNN_VS>
3.8838782310

$$$$
HIPS5897


 25 27  0  0  0  0  0  0  0  0999 V2000
   69.2243   80.4744   89.4313 N   0  0  0  0  0  0  0  0  0  0  0  0
   68.9640   80.7792   88.5321 H   0  0  0  0  0  0  0  0  0  0  0  0
   69.7963   77.0640   90.9529 C   0  0  0  0  0  0  0  0  0  0  0  0
   69.9341   78.4345   90.6692 C   0  0  0  0  0  0  0  0  0  0  0  0
   69.1065   79.0680   89.7245 C   0  0  0  0  0  0  0  0  0  0  0  0
   68.1485   78.3065   89.0442 C   0  0  0  0  0  0  0  0  0  0  0  0
   67.9924   76.9490   89.3245 C   0  0  0  0  0  0  0  0  0  0  0  0
   68.7875   76.3226   90.2893 C   0  0  0  0  0  0  0  0  0  0  0  0
   68.5215   74.9825   90.5794 O   0  0  0  0  0  0  0  0  0  0  0  0
   67.8449   74.5284   90.1168 H   0  0  0  0  0  0  0  0  0  0  0  0
   70.4313   75.3987   92.5374 O   0  0  0  0  0  0  0  0  0  0  0  0
   70.7373   76.4520   91.9172 C   0  0  0  0  0  0  0  0  0  0  0  0
   72.0007   77.0088   92.0994 O   0  0  0  0  0  0  0  0  0  0  0  0
   72.2379   77.7919   91.6428 H   0  0  0  0  0  0  0  0  0  0  0  0
   69.7049   81.4804   90.3807 C   0  0  0  0  0  0  0  0  0  0  0  0
   70.7634   82.3464   89.7483 C   0  0  0  0  0  0  0  0  0  0  0  0
   72.0699   82.4015   90.2862 C   0  0  0  0  0  0  0  0  0  0  0  0
   73.0627   83.2093   89.6870 C   0  0  0  0  0  0  0  0  0  0  0  0
   72.7648   83.9779   88.5479 C   0  0  0  0  0  0  0  0  0  0  0  0
   71.4675   83.9117   88.0482 C   0  0  0  0  0  0  0  0  0  0  0  0
   70.9534   84.5488   86.9897 N   0  0  0  0  0  0  0  0  0  0  0  0
   69.6650   84.1346   86.9506 C   0  0  0  0  0  0  0  0  0  0  0  0
   69.3465   83.2625   87.9423 N   0  0  0  0  0  0  0  0  0  0  0  0
   70.5030   83.1368   88.6211 C   0  0  0  0  0  0  0  0  0  0  0  0
   71.4074   85.1743   86.3800 H   0  0  0  0  0  0  0  0  0  0  0  0
 11 12  2  0  0  0
 12 13  1  0  0  0
 12  3  1  0  0  0
  3  4  2  0  0  0
  4  5  1  0  0  0
  5  1  1  0  0  0
  1 15  1  0  0  0
 15 16  1  0  0  0
 16 17  2  0  0  0
 17 18  1  0  0  0
 18 19  2  0  0  0
 19 20  1  0  0  0
 20 21  1  0  0  0
 21 22  1  0  0  0
 22 23  2  0  0  0
 23 24  2  0  0  0
  5  6  2  0  0  0
  6  7  1  0  0  0
  7  8  2  0  0  0
  8  9  1  0  0  0
  8  3  1  0  0  0
 24 16  1  0  0  0
 24 20  2  0  0  0
 13 14  1  0  0  0
  1  2  1  0  0  0
 21 25  1  0  0  0
  9 10  1  0  0  0
M  END
> <score>
0.948641

> <minimizedAffinity>
-6.95433

> <CNNscore>
0.7170119882

> <CNNaffinity>
5.2469491959

> <CNN_VS>
3.7621254921

$$$$
HIPS5897


 25 27  0  0  0  0  0  0  0  0999 V2000
   69.6659   80.1305   89.5850 N   0  0  0  0  0  0  0  0  0  0  0  0
   69.5208   80.0962   88.6119 H   0  0  0  0  0  0  0  0  0  0  0  0
   69.0259   76.8650   91.3738 C   0  0  0  0  0  0  0  0  0  0  0  0
   68.8025   78.0853   90.7114 C   0  0  0  0  0  0  0  0  0  0  0  0
   69.8760   78.8840   90.2777 C   0  0  0  0  0  0  0  0  0  0  0  0
   71.1847   78.4584   90.5358 C   0  0  0  0  0  0  0  0  0  0  0  0
   71.4212   77.2444   91.1807 C   0  0  0  0  0  0  0  0  0  0  0  0
   70.3581   76.4289   91.5809 C   0  0  0  0  0  0  0  0  0  0  0  0
   70.6674   75.1892   92.1450 O   0  0  0  0  0  0  0  0  0  0  0  0
   71.5624   74.9392   92.2647 H   0  0  0  0  0  0  0  0  0  0  0  0
   67.8193   74.8464   91.7695 O   0  0  0  0  0  0  0  0  0  0  0  0
   67.8502   76.1034   91.8509 C   0  0  0  0  0  0  0  0  0  0  0  0
   66.7890   76.7747   92.4533 O   0  0  0  0  0  0  0  0  0  0  0  0
   66.8025   77.7094   92.5187 H   0  0  0  0  0  0  0  0  0  0  0  0
   69.6537   81.4445   90.2312 C   0  0  0  0  0  0  0  0  0  0  0  0
   70.7584   82.3144   89.6894 C   0  0  0  0  0  0  0  0  0  0  0  0
   72.0508   82.2834   90.2622 C   0  0  0  0  0  0  0  0  0  0  0  0
   73.0869   83.0952   89.7478 C   0  0  0  0  0  0  0  0  0  0  0  0
   72.8470   83.9534   88.6602 C   0  0  0  0  0  0  0  0  0  0  0  0
   71.5623   83.9703   88.1249 C   0  0  0  0  0  0  0  0  0  0  0  0
   71.0998   84.6994   87.1027 N   0  0  0  0  0  0  0  0  0  0  0  0
   69.7994   84.3363   87.0018 C   0  0  0  0  0  0  0  0  0  0  0  0
   69.4240   83.4078   87.9197 N   0  0  0  0  0  0  0  0  0  0  0  0
   70.5564   83.1921   88.6162 C   0  0  0  0  0  0  0  0  0  0  0  0
   71.5916   85.3500   86.5512 H   0  0  0  0  0  0  0  0  0  0  0  0
 11 12  2  0  0  0
 12 13  1  0  0  0
 12  3  1  0  0  0
  3  4  2  0  0  0
  4  5  1  0  0  0
  5  1  1  0  0  0
  1 15  1  0  0  0
 15 16  1  0  0  0
 16 17  2  0  0  0
 17 18  1  0  0  0
 18 19  2  0  0  0
 19 20  1  0  0  0
 20 21  1  0  0  0
 21 22  1  0  0  0
 22 23  2  0  0  0
 23 24  2  0  0  0
  5  6  2  0  0  0
  6  7  1  0  0  0
  7  8  2  0  0  0
  8  9  1  0  0  0
  8  3  1  0  0  0
 24 16  1  0  0  0
 24 20  2  0  0  0
 13 14  1  0  0  0
  1  2  1  0  0  0
 21 25  1  0  0  0
  9 10  1  0  0  0
M  END
> <score>
0.948641

> <minimizedAffinity>
-6.96376

> <CNNscore>
0.5326512456

> <CNNaffinity>
4.9786577225

> <CNN_VS>
2.6518881321

$$$$
HIPS5910


 22 23  0  0  0  0  0  0  0  0999 V2000
   71.0020   77.5458   90.8167 C   0  0  0  0  0  0  0  0  0  0  0  0
   70.4704   78.6102   90.0658 C   0  0  0  0  0  0  0  0  0  0  0  0
   69.1194   78.9826   90.1947 C   0  0  0  0  0  0  0  0  0  0  0  0
   68.2978   78.2705   91.0707 C   0  0  0  0  0  0  0  0  0  0  0  0
   68.8046   77.1978   91.8038 C   0  0  0  0  0  0  0  0  0  0  0  0
   70.1428   76.8126   91.6733 C   0  0  0  0  0  0  0  0  0  0  0  0
   70.5647   75.6838   92.3795 O   0  0  0  0  0  0  0  0  0  0  0  0
   69.9643   75.2276   92.9356 H   0  0  0  0  0  0  0  0  0  0  0  0
   73.1176   76.8971   91.7054 O   0  0  0  0  0  0  0  0  0  0  0  0
   72.4497   77.2608   90.7008 C   0  0  0  0  0  0  0  0  0  0  0  0
   73.0991   77.4561   89.4847 O   0  0  0  0  0  0  0  0  0  0  0  0
   72.6118   77.7266   88.7315 H   0  0  0  0  0  0  0  0  0  0  0  0
   68.5548   80.0514   89.4790 O   0  0  0  0  0  0  0  0  0  0  0  0
   68.4413   81.3947   89.9511 C   0  0  0  0  0  0  0  0  0  0  0  0
   69.4894   82.2742   89.3217 C   0  0  0  0  0  0  0  0  0  0  0  0
   69.1602   83.1257   88.2541 C   0  0  0  0  0  0  0  0  0  0  0  0
   70.1389   83.9407   87.6748 C   0  0  0  0  0  0  0  0  0  0  0  0
   69.7233   84.9906   86.3324 Cl  0  0  0  0  0  0  0  0  0  0  0  0
   71.4485   83.9181   88.1651 C   0  0  0  0  0  0  0  0  0  0  0  0
   71.7807   83.0832   89.2368 C   0  0  0  0  0  0  0  0  0  0  0  0
   73.4224   83.0596   89.8540 Cl  0  0  0  0  0  0  0  0  0  0  0  0
   70.8037   82.2665   89.8166 C   0  0  0  0  0  0  0  0  0  0  0  0
  9 10  2  0  0  0
 10 11  1  0  0  0
 10  1  1  0  0  0
  1  2  2  0  0  0
  2  3  1  0  0  0
  3 13  1  0  0  0
 13 14  1  0  0  0
 14 15  1  0  0  0
 15 16  2  0  0  0
 16 17  1  0  0  0
 17 18  1  0  0  0
 17 19  2  0  0  0
 19 20  1  0  0  0
 20 21  1  0  0  0
 20 22  2  0  0  0
  3  4  2  0  0  0
  4  5  1  0  0  0
  5  6  2  0  0  0
  6  7  1  0  0  0
  6  1  1  0  0  0
 22 15  1  0  0  0
 11 12  1  0  0  0
  7  8  1  0  0  0
M  END
> <score>
0.237597

> <minimizedAffinity>
-6.77296

> <CNNscore>
0.9069665670

> <CNNaffinity>
5.6640014648

> <CNN_VS>
5.1370601654

$$$$
HIPS5910


 22 23  0  0  0  0  0  0  0  0999 V2000
   70.9456   77.5354   90.8932 C   0  0  0  0  0  0  0  0  0  0  0  0
   70.3987   78.6472   90.2267 C   0  0  0  0  0  0  0  0  0  0  0  0
   69.0322   78.9619   90.3460 C   0  0  0  0  0  0  0  0  0  0  0  0
   68.2114   78.1453   91.1262 C   0  0  0  0  0  0  0  0  0  0  0  0
   68.7343   77.0261   91.7734 C   0  0  0  0  0  0  0  0  0  0  0  0
   70.0885   76.6982   91.6509 C   0  0  0  0  0  0  0  0  0  0  0  0
   70.5294   75.5230   92.2634 O   0  0  0  0  0  0  0  0  0  0  0  0
   69.9296   74.9978   92.7558 H   0  0  0  0  0  0  0  0  0  0  0  0
   73.0692   76.9506   91.8068 O   0  0  0  0  0  0  0  0  0  0  0  0
   72.4052   77.3095   90.7979 C   0  0  0  0  0  0  0  0  0  0  0  0
   73.0676   77.5559   89.5982 O   0  0  0  0  0  0  0  0  0  0  0  0
   72.5832   77.8232   88.8419 H   0  0  0  0  0  0  0  0  0  0  0  0
   68.4512   80.0738   89.7139 O   0  0  0  0  0  0  0  0  0  0  0  0
   68.4213   81.4018   90.2391 C   0  0  0  0  0  0  0  0  0  0  0  0
   69.4091   82.2839   89.5217 C   0  0  0  0  0  0  0  0  0  0  0  0
   70.7571   82.3143   89.9156 C   0  0  0  0  0  0  0  0  0  0  0  0
   71.6693   83.1355   89.2440 C   0  0  0  0  0  0  0  0  0  0  0  0
   73.3480   83.1790   89.7512 Cl  0  0  0  0  0  0  0  0  0  0  0  0
   71.2433   83.9221   88.1689 C   0  0  0  0  0  0  0  0  0  0  0  0
   69.9057   83.8866   87.7622 C   0  0  0  0  0  0  0  0  0  0  0  0
   69.3738   84.8699   86.4105 Cl  0  0  0  0  0  0  0  0  0  0  0  0
   68.9917   83.0671   88.4333 C   0  0  0  0  0  0  0  0  0  0  0  0
  9 10  2  0  0  0
 10 11  1  0  0  0
 10  1  1  0  0  0
  1  2  2  0  0  0
  2  3  1  0  0  0
  3 13  1  0  0  0
 13 14  1  0  0  0
 14 15  1  0  0  0
 15 16  2  0  0  0
 16 17  1  0  0  0
 17 18  1  0  0  0
 17 19  2  0  0  0
 19 20  1  0  0  0
 20 21  1  0  0  0
 20 22  2  0  0  0
  3  4  2  0  0  0
  4  5  1  0  0  0
  5  6  2  0  0  0
  6  7  1  0  0  0
  6  1  1  0  0  0
 22 15  1  0  0  0
 11 12  1  0  0  0
  7  8  1  0  0  0
M  END
> <score>
0.237597

> <minimizedAffinity>
-6.67532

> <CNNscore>
0.8925821781

> <CNNaffinity>
5.6295232773

> <CNN_VS>
5.0248122215

$$$$
HIPS5910


 22 23  0  0  0  0  0  0  0  0999 V2000
   68.3632   75.8183   93.2673 C   0  0  0  0  0  0  0  0  0  0  0  0
   68.2836   77.1301   92.7649 C   0  0  0  0  0  0  0  0  0  0  0  0
   67.1149   77.8972   92.9273 C   0  0  0  0  0  0  0  0  0  0  0  0
   66.0180   77.3357   93.5837 C   0  0  0  0  0  0  0  0  0  0  0  0
   66.0736   76.0283   94.0660 C   0  0  0  0  0  0  0  0  0  0  0  0
   67.2262   75.2539   93.8986 C   0  0  0  0  0  0  0  0  0  0  0  0
   67.1871   73.9289   94.3386 O   0  0  0  0  0  0  0  0  0  0  0  0
   66.4151   73.5949   94.7514 H   0  0  0  0  0  0  0  0  0  0  0  0
   69.8811   74.0678   93.8309 O   0  0  0  0  0  0  0  0  0  0  0  0
   69.6491   75.0965   93.1414 C   0  0  0  0  0  0  0  0  0  0  0  0
   70.6419   75.5915   92.2999 O   0  0  0  0  0  0  0  0  0  0  0  0
   70.4797   76.3559   91.7829 H   0  0  0  0  0  0  0  0  0  0  0  0
   67.0017   79.2168   92.4590 O   0  0  0  0  0  0  0  0  0  0  0  0
   65.9573   79.7093   91.6182 C   0  0  0  0  0  0  0  0  0  0  0  0
   66.3645   79.6530   90.1693 C   0  0  0  0  0  0  0  0  0  0  0  0
   66.4419   78.4224   89.4963 C   0  0  0  0  0  0  0  0  0  0  0  0
   66.8200   78.3778   88.1500 C   0  0  0  0  0  0  0  0  0  0  0  0
   66.9286   76.8358   87.3207 Cl  0  0  0  0  0  0  0  0  0  0  0  0
   67.1120   79.5618   87.4654 C   0  0  0  0  0  0  0  0  0  0  0  0
   67.0237   80.7919   88.1248 C   0  0  0  0  0  0  0  0  0  0  0  0
   67.3853   82.2766   87.2635 Cl  0  0  0  0  0  0  0  0  0  0  0  0
   66.6471   80.8386   89.4715 C   0  0  0  0  0  0  0  0  0  0  0  0
  9 10  2  0  0  0
 10 11  1  0  0  0
 10  1  1  0  0  0
  1  2  2  0  0  0
  2  3  1  0  0  0
  3 13  1  0  0  0
 13 14  1  0  0  0
 14 15  1  0  0  0
 15 16  2  0  0  0
 16 17  1  0  0  0
 17 18  1  0  0  0
 17 19  2  0  0  0
 19 20  1  0  0  0
 20 21  1  0  0  0
 20 22  2  0  0  0
  3  4  2  0  0  0
  4  5  1  0  0  0
  5  6  2  0  0  0
  6  7  1  0  0  0
  6  1  1  0  0  0
 22 15  1  0  0  0
 11 12  1  0  0  0
  7  8  1  0  0  0
M  END
> <score>
0.237597

> <minimizedAffinity>
-5.99333

> <CNNscore>
0.8859062195

> <CNNaffinity>
5.5421056747

> <CNN_VS>
4.9097857475

$$$$
HIPS5920


 27 30  0  0  0  0  0  0  0  0999 V2000
   68.4025   74.0901   90.5048 N   0  0  0  0  0  0  0  0  0  0  0  0
   68.4661   75.4356   90.5468 C   0  0  0  0  0  0  0  0  0  0  0  0
   67.6956   75.8949   89.4988 C   0  0  0  0  0  0  0  0  0  0  0  0
   67.1618   74.8283   88.8710 N   0  0  0  0  0  0  0  0  0  0  0  0
   67.6140   73.7505   89.4952 N   0  0  0  0  0  0  0  0  0  0  0  0
   67.3643   77.3013   89.1795 C   0  0  0  0  0  0  0  0  0  0  0  0
   67.4449   77.6995   87.8347 C   0  0  0  0  0  0  0  0  0  0  0  0
   67.0752   78.9862   87.4460 C   0  0  0  0  0  0  0  0  0  0  0  0
   66.6239   79.9035   88.3917 C   0  0  0  0  0  0  0  0  0  0  0  0
   66.5617   79.5492   89.7462 C   0  0  0  0  0  0  0  0  0  0  0  0
   66.1328   80.4904   90.6955 C   0  0  0  0  0  0  0  0  0  0  0  0
   66.1051   80.1607   92.0505 C   0  0  0  0  0  0  0  0  0  0  0  0
   66.5172   78.8971   92.4715 C   0  0  0  0  0  0  0  0  0  0  0  0
   66.9433   77.9471   91.5401 C   0  0  0  0  0  0  0  0  0  0  0  0
   66.9482   78.2441   90.1596 C   0  0  0  0  0  0  0  0  0  0  0  0
   70.2496   71.3045   93.1666 C   0  0  0  0  0  0  0  0  0  0  0  0
   69.8340   70.9014   91.8867 C   0  0  0  0  0  0  0  0  0  0  0  0
   69.2333   71.8072   91.0106 C   0  0  0  0  0  0  0  0  0  0  0  0
   69.0345   73.1446   91.3921 C   0  0  0  0  0  0  0  0  0  0  0  0
   69.4631   73.5542   92.6656 C   0  0  0  0  0  0  0  0  0  0  0  0
   70.0869   72.6592   93.5432 C   0  0  0  0  0  0  0  0  0  0  0  0
   70.5597   73.1626   94.7570 O   0  0  0  0  0  0  0  0  0  0  0  0
   70.4327   74.0660   94.9708 H   0  0  0  0  0  0  0  0  0  0  0  0
   71.9218   70.4777   94.6371 O   0  0  0  0  0  0  0  0  0  0  0  0
   70.8042   70.2866   94.0855 C   0  0  0  0  0  0  0  0  0  0  0  0
   70.1328   69.0869   94.3027 O   0  0  0  0  0  0  0  0  0  0  0  0
   69.3017   68.9351   93.8975 H   0  0  0  0  0  0  0  0  0  0  0  0
 24 25  2  0  0  0
 25 26  1  0  0  0
 25 16  1  0  0  0
 16 17  2  0  0  0
 17 18  1  0  0  0
 18 19  2  0  0  0
 19  1  1  0  0  0
  1  2  1  0  0  0
  2  3  2  0  0  0
  3  6  1  0  0  0
  6  7  2  0  0  0
  7  8  1  0  0  0
  8  9  2  0  0  0
  9 10  1  0  0  0
 10 11  2  0  0  0
 11 12  1  0  0  0
 12 13  2  0  0  0
 13 14  1  0  0  0
 14 15  2  0  0  0
  3  4  2  0  0  0
  4  5  2  0  0  0
 19 20  1  0  0  0
 20 21  2  0  0  0
 21 22  1  0  0  0
 21 16  1  0  0  0
  5  1  1  0  0  0
 15  6  1  0  0  0
 15 10  1  0  0  0
 26 27  1  0  0  0
 22 23  1  0  0  0
M  END
> <score>
0.633223

> <minimizedAffinity>
-7.87427

> <CNNscore>
0.5571303964

> <CNNaffinity>
5.5086603165

> <CNN_VS>
3.0690422058

$$$$
HIPS5920


 27 30  0  0  0  0  0  0  0  0999 V2000
   66.8647   78.9224   92.0124 N   0  0  0  0  0  0  0  0  0  0  0  0
   67.5497   79.9757   91.5250 C   0  0  0  0  0  0  0  0  0  0  0  0
   66.6101   80.9233   91.1753 C   0  0  0  0  0  0  0  0  0  0  0  0
   65.3907   80.4400   91.4853 N   0  0  0  0  0  0  0  0  0  0  0  0
   65.5748   79.2251   91.9809 N   0  0  0  0  0  0  0  0  0  0  0  0
   66.8622   82.2972   90.6868 C   0  0  0  0  0  0  0  0  0  0  0  0
   66.7526   83.3474   91.6133 C   0  0  0  0  0  0  0  0  0  0  0  0
   67.0492   84.6592   91.2464 C   0  0  0  0  0  0  0  0  0  0  0  0
   67.4549   84.9507   89.9464 C   0  0  0  0  0  0  0  0  0  0  0  0
   67.5439   83.9314   88.9888 C   0  0  0  0  0  0  0  0  0  0  0  0
   67.9260   84.2399   87.6736 C   0  0  0  0  0  0  0  0  0  0  0  0
   67.9792   83.2394   86.7032 C   0  0  0  0  0  0  0  0  0  0  0  0
   67.6392   81.9277   87.0314 C   0  0  0  0  0  0  0  0  0  0  0  0
   67.2605   81.6023   88.3362 C   0  0  0  0  0  0  0  0  0  0  0  0
   67.2317   82.5900   89.3450 C   0  0  0  0  0  0  0  0  0  0  0  0
   68.4645   75.2600   93.5235 C   0  0  0  0  0  0  0  0  0  0  0  0
   67.1189   75.5968   93.7452 C   0  0  0  0  0  0  0  0  0  0  0  0
   66.5887   76.7901   93.2511 C   0  0  0  0  0  0  0  0  0  0  0  0
   67.3925   77.6788   92.5178 C   0  0  0  0  0  0  0  0  0  0  0  0
   68.7344   77.3372   92.2814 C   0  0  0  0  0  0  0  0  0  0  0  0
   69.2698   76.1326   92.7533 C   0  0  0  0  0  0  0  0  0  0  0  0
   70.5873   75.8268   92.4054 O   0  0  0  0  0  0  0  0  0  0  0  0
   71.0890   76.4306   91.8939 H   0  0  0  0  0  0  0  0  0  0  0  0
   70.0513   74.0686   94.8291 O   0  0  0  0  0  0  0  0  0  0  0  0
   68.9970   74.0248   94.1391 C   0  0  0  0  0  0  0  0  0  0  0  0
   68.3794   72.7978   93.9146 O   0  0  0  0  0  0  0  0  0  0  0  0
   67.5955   72.7545   93.4032 H   0  0  0  0  0  0  0  0  0  0  0  0
 24 25  2  0  0  0
 25 26  1  0  0  0
 25 16  1  0  0  0
 16 17  2  0  0  0
 17 18  1  0  0  0
 18 19  2  0  0  0
 19  1  1  0  0  0
  1  2  1  0  0  0
  2  3  2  0  0  0
  3  6  1  0  0  0
  6  7  2  0  0  0
  7  8  1  0  0  0
  8  9  2  0  0  0
  9 10  1  0  0  0
 10 11  2  0  0  0
 11 12  1  0  0  0
 12 13  2  0  0  0
 13 14  1  0  0  0
 14 15  2  0  0  0
  3  4  2  0  0  0
  4  5  2  0  0  0
 19 20  1  0  0  0
 20 21  2  0  0  0
 21 22  1  0  0  0
 21 16  1  0  0  0
  5  1  1  0  0  0
 15  6  1  0  0  0
 15 10  1  0  0  0
 26 27  1  0  0  0
 22 23  1  0  0  0
M  END
> <score>
0.633223

> <minimizedAffinity>
-7.05244

> <CNNscore>
0.5416451097

> <CNNaffinity>
5.6266040802

> <CNN_VS>
3.0476226807

$$$$
HIPS5920


 27 30  0  0  0  0  0  0  0  0999 V2000
   69.1894   78.8112   90.3976 N   0  0  0  0  0  0  0  0  0  0  0  0
   70.2523   79.4621   89.8848 C   0  0  0  0  0  0  0  0  0  0  0  0
   69.9518   80.8071   89.9452 C   0  0  0  0  0  0  0  0  0  0  0  0
   68.7387   80.9411   90.5172 N   0  0  0  0  0  0  0  0  0  0  0  0
   68.2978   79.7178   90.7715 N   0  0  0  0  0  0  0  0  0  0  0  0
   70.8382   81.9395   89.5966 C   0  0  0  0  0  0  0  0  0  0  0  0
   72.0747   82.0254   90.2578 C   0  0  0  0  0  0  0  0  0  0  0  0
   72.9947   83.0197   89.9284 C   0  0  0  0  0  0  0  0  0  0  0  0
   72.6973   83.9520   88.9376 C   0  0  0  0  0  0  0  0  0  0  0  0
   71.4600   83.9144   88.2806 C   0  0  0  0  0  0  0  0  0  0  0  0
   71.1583   84.8763   87.3035 C   0  0  0  0  0  0  0  0  0  0  0  0
   69.9146   84.8719   86.6721 C   0  0  0  0  0  0  0  0  0  0  0  0
   68.9576   83.9191   87.0185 C   0  0  0  0  0  0  0  0  0  0  0  0
   69.2423   82.9522   87.9859 C   0  0  0  0  0  0  0  0  0  0  0  0
   70.5058   82.9137   88.6152 C   0  0  0  0  0  0  0  0  0  0  0  0
   68.6703   74.6031   90.9248 C   0  0  0  0  0  0  0  0  0  0  0  0
   67.9699   75.2885   89.9184 C   0  0  0  0  0  0  0  0  0  0  0  0
   68.1376   76.6627   89.7382 C   0  0  0  0  0  0  0  0  0  0  0  0
   69.0150   77.3887   90.5608 C   0  0  0  0  0  0  0  0  0  0  0  0
   69.7284   76.7031   91.5579 C   0  0  0  0  0  0  0  0  0  0  0  0
   69.5844   75.3214   91.7322 C   0  0  0  0  0  0  0  0  0  0  0  0
   70.3902   74.6997   92.6885 O   0  0  0  0  0  0  0  0  0  0  0  0
   70.9836   75.2096   93.2041 H   0  0  0  0  0  0  0  0  0  0  0  0
   69.3433   72.3345   91.1318 O   0  0  0  0  0  0  0  0  0  0  0  0
   68.3939   73.1641   91.1271 C   0  0  0  0  0  0  0  0  0  0  0  0
   67.0861   72.7043   91.2519 O   0  0  0  0  0  0  0  0  0  0  0  0
   66.3733   73.3126   91.2496 H   0  0  0  0  0  0  0  0  0  0  0  0
 24 25  2  0  0  0
 25 26  1  0  0  0
 25 16  1  0  0  0
 16 17  2  0  0  0
 17 18  1  0  0  0
 18 19  2  0  0  0
 19  1  1  0  0  0
  1  2  1  0  0  0
  2  3  2  0  0  0
  3  6  1  0  0  0
  6  7  2  0  0  0
  7  8  1  0  0  0
  8  9  2  0  0  0
  9 10  1  0  0  0
 10 11  2  0  0  0
 11 12  1  0  0  0
 12 13  2  0  0  0
 13 14  1  0  0  0
 14 15  2  0  0  0
  3  4  2  0  0  0
  4  5  2  0  0  0
 19 20  1  0  0  0
 20 21  2  0  0  0
 21 22  1  0  0  0
 21 16  1  0  0  0
  5  1  1  0  0  0
 15  6  1  0  0  0
 15 10  1  0  0  0
 26 27  1  0  0  0
 22 23  1  0  0  0
M  END
> <score>
0.633223

> <minimizedAffinity>
-9.01972

> <CNNscore>
0.5056645870

> <CNNaffinity>
5.5665769577

> <CNN_VS>
2.8148207664

$$$$
HIPS5921


 25 27  0  0  0  0  0  0  0  0999 V2000
   66.5740   78.6091   92.6583 N   0  0  0  0  0  0  0  0  0  0  0  0
   67.3013   79.2752   91.7392 C   0  0  0  0  0  0  0  0  0  0  0  0
   66.5645   80.3915   91.3894 C   0  0  0  0  0  0  0  0  0  0  0  0
   65.4202   80.3723   92.1031 N   0  0  0  0  0  0  0  0  0  0  0  0
   65.4537   79.2865   92.8609 N   0  0  0  0  0  0  0  0  0  0  0  0
   67.5402   74.9829   94.7034 C   0  0  0  0  0  0  0  0  0  0  0  0
   66.2059   75.3340   94.4427 C   0  0  0  0  0  0  0  0  0  0  0  0
   65.8961   76.5172   93.7704 C   0  0  0  0  0  0  0  0  0  0  0  0
   66.9124   77.3842   93.3415 C   0  0  0  0  0  0  0  0  0  0  0  0
   68.2514   77.0235   93.5764 C   0  0  0  0  0  0  0  0  0  0  0  0
   68.5744   75.8279   94.2305 C   0  0  0  0  0  0  0  0  0  0  0  0
   69.9274   75.5036   94.3560 O   0  0  0  0  0  0  0  0  0  0  0  0
   70.5818   76.0896   94.0301 H   0  0  0  0  0  0  0  0  0  0  0  0
   68.9079   73.1591   95.4023 O   0  0  0  0  0  0  0  0  0  0  0  0
   67.8021   73.7569   95.4894 C   0  0  0  0  0  0  0  0  0  0  0  0
   66.8425   73.2892   96.3834 O   0  0  0  0  0  0  0  0  0  0  0  0
   66.0170   73.7265   96.4558 H   0  0  0  0  0  0  0  0  0  0  0  0
   66.9249   81.4520   90.4183 C   0  0  0  0  0  0  0  0  0  0  0  0
   67.0131   82.7905   90.8432 C   0  0  0  0  0  0  0  0  0  0  0  0
   67.3520   83.8024   89.9383 C   0  0  0  0  0  0  0  0  0  0  0  0
   67.4585   85.4667   90.4828 Cl  0  0  0  0  0  0  0  0  0  0  0  0
   67.6057   83.4885   88.6005 C   0  0  0  0  0  0  0  0  0  0  0  0
   67.5210   82.1634   88.1653 C   0  0  0  0  0  0  0  0  0  0  0  0
   67.8394   81.7722   86.4850 Cl  0  0  0  0  0  0  0  0  0  0  0  0
   67.1824   81.1487   89.0676 C   0  0  0  0  0  0  0  0  0  0  0  0
 14 15  2  0  0  0
 15 16  1  0  0  0
 15  6  1  0  0  0
  6  7  2  0  0  0
  7  8  1  0  0  0
  8  9  2  0  0  0
  9  1  1  0  0  0
  1  2  1  0  0  0
  2  3  2  0  0  0
  3 18  1  0  0  0
 18 19  2  0  0  0
 19 20  1  0  0  0
 20 21  1  0  0  0
 20 22  2  0  0  0
 22 23  1  0  0  0
 23 24  1  0  0  0
 23 25  2  0  0  0
  3  4  2  0  0  0
  4  5  2  0  0  0
  9 10  1  0  0  0
 10 11  2  0  0  0
 11 12  1  0  0  0
 11  6  1  0  0  0
  5  1  1  0  0  0
 25 18  1  0  0  0
 16 17  1  0  0  0
 12 13  1  0  0  0
M  END
> <score>
-0.190436

> <minimizedAffinity>
-6.83275

> <CNNscore>
0.6374973059

> <CNNaffinity>
5.6489830017

> <CNN_VS>
3.6012115479

$$$$
HIPS5921


 25 27  0  0  0  0  0  0  0  0999 V2000
   68.7592   74.5009   91.5871 N   0  0  0  0  0  0  0  0  0  0  0  0
   68.4088   74.8421   90.3309 C   0  0  0  0  0  0  0  0  0  0  0  0
   68.0754   76.1834   90.3670 C   0  0  0  0  0  0  0  0  0  0  0  0
   68.2341   76.6152   91.6349 N   0  0  0  0  0  0  0  0  0  0  0  0
   68.6485   75.5792   92.3486 N   0  0  0  0  0  0  0  0  0  0  0  0
   70.0339   70.6682   92.9840 C   0  0  0  0  0  0  0  0  0  0  0  0
   69.6768   70.8675   91.6408 C   0  0  0  0  0  0  0  0  0  0  0  0
   69.2656   72.1223   91.1888 C   0  0  0  0  0  0  0  0  0  0  0  0
   69.1977   73.2133   92.0684 C   0  0  0  0  0  0  0  0  0  0  0  0
   69.5803   73.0249   93.4087 C   0  0  0  0  0  0  0  0  0  0  0  0
   70.0157   71.7754   93.8678 C   0  0  0  0  0  0  0  0  0  0  0  0
   70.4525   71.6884   95.1918 O   0  0  0  0  0  0  0  0  0  0  0  0
   70.4245   72.4441   95.7451 H   0  0  0  0  0  0  0  0  0  0  0  0
   70.2431   68.3176   92.6428 O   0  0  0  0  0  0  0  0  0  0  0  0
   70.3847   69.2986   93.4208 C   0  0  0  0  0  0  0  0  0  0  0  0
   70.9359   69.0940   94.6829 O   0  0  0  0  0  0  0  0  0  0  0  0
   71.0454   69.8168   95.2690 H   0  0  0  0  0  0  0  0  0  0  0  0
   67.6270   77.0401   89.2434 C   0  0  0  0  0  0  0  0  0  0  0  0
   67.4379   76.4794   87.9668 C   0  0  0  0  0  0  0  0  0  0  0  0
   67.0152   77.2753   86.8966 C   0  0  0  0  0  0  0  0  0  0  0  0
   66.7835   76.5619   85.3107 Cl  0  0  0  0  0  0  0  0  0  0  0  0
   66.7774   78.6386   87.0898 C   0  0  0  0  0  0  0  0  0  0  0  0
   66.9618   79.2082   88.3523 C   0  0  0  0  0  0  0  0  0  0  0  0
   66.6631   80.9204   88.5919 Cl  0  0  0  0  0  0  0  0  0  0  0  0
   67.3845   78.4152   89.4250 C   0  0  0  0  0  0  0  0  0  0  0  0
 14 15  2  0  0  0
 15 16  1  0  0  0
 15  6  1  0  0  0
  6  7  2  0  0  0
  7  8  1  0  0  0
  8  9  2  0  0  0
  9  1  1  0  0  0
  1  2  1  0  0  0
  2  3  2  0  0  0
  3 18  1  0  0  0
 18 19  2  0  0  0
 19 20  1  0  0  0
 20 21  1  0  0  0
 20 22  2  0  0  0
 22 23  1  0  0  0
 23 24  1  0  0  0
 23 25  2  0  0  0
  3  4  2  0  0  0
  4  5  2  0  0  0
  9 10  1  0  0  0
 10 11  2  0  0  0
 11 12  1  0  0  0
 11  6  1  0  0  0
  5  1  1  0  0  0
 25 18  1  0  0  0
 16 17  1  0  0  0
 12 13  1  0  0  0
M  END
> <score>
-0.190436

> <minimizedAffinity>
-6.77669

> <CNNscore>
0.5711864829

> <CNNaffinity>
5.4170999527

> <CNN_VS>
3.0941743851

$$$$
HIPS5921


 25 27  0  0  0  0  0  0  0  0999 V2000
   68.9000   74.4153   90.9891 N   0  0  0  0  0  0  0  0  0  0  0  0
   69.2457   75.7141   91.0927 C   0  0  0  0  0  0  0  0  0  0  0  0
   68.5313   76.3892   90.1204 C   0  0  0  0  0  0  0  0  0  0  0  0
   67.7760   75.4872   89.4608 N   0  0  0  0  0  0  0  0  0  0  0  0
   68.0178   74.3051   90.0069 N   0  0  0  0  0  0  0  0  0  0  0  0
   70.2996   71.1559   93.3730 C   0  0  0  0  0  0  0  0  0  0  0  0
   70.2405   72.4594   93.8914 C   0  0  0  0  0  0  0  0  0  0  0  0
   69.7783   73.5195   93.1102 C   0  0  0  0  0  0  0  0  0  0  0  0
   69.3640   73.3061   91.7867 C   0  0  0  0  0  0  0  0  0  0  0  0
   69.3959   71.9976   91.2719 C   0  0  0  0  0  0  0  0  0  0  0  0
   69.8370   70.9230   92.0543 C   0  0  0  0  0  0  0  0  0  0  0  0
   69.7647   69.6439   91.4973 O   0  0  0  0  0  0  0  0  0  0  0  0
   69.4529   69.5315   90.6210 H   0  0  0  0  0  0  0  0  0  0  0  0
   70.6443   70.0574   95.4611 O   0  0  0  0  0  0  0  0  0  0  0  0
   70.8731   70.0886   94.2224 C   0  0  0  0  0  0  0  0  0  0  0  0
   71.6238   69.0697   93.6417 O   0  0  0  0  0  0  0  0  0  0  0  0
   71.7996   69.0835   92.7215 H   0  0  0  0  0  0  0  0  0  0  0  0
   68.5494   77.8410   89.8212 C   0  0  0  0  0  0  0  0  0  0  0  0
   67.4690   78.4291   89.1380 C   0  0  0  0  0  0  0  0  0  0  0  0
   67.4719   79.7979   88.8483 C   0  0  0  0  0  0  0  0  0  0  0  0
   66.1176   80.5171   87.9961 Cl  0  0  0  0  0  0  0  0  0  0  0  0
   68.5530   80.5931   89.2372 C   0  0  0  0  0  0  0  0  0  0  0  0
   69.6325   80.0217   89.9159 C   0  0  0  0  0  0  0  0  0  0  0  0
   70.9891   81.0223   90.4025 Cl  0  0  0  0  0  0  0  0  0  0  0  0
   69.6331   78.6529   90.2074 C   0  0  0  0  0  0  0  0  0  0  0  0
 14 15  2  0  0  0
 15 16  1  0  0  0
 15  6  1  0  0  0
  6  7  2  0  0  0
  7  8  1  0  0  0
  8  9  2  0  0  0
  9  1  1  0  0  0
  1  2  1  0  0  0
  2  3  2  0  0  0
  3 18  1  0  0  0
 18 19  2  0  0  0
 19 20  1  0  0  0
 20 21  1  0  0  0
 20 22  2  0  0  0
 22 23  1  0  0  0
 23 24  1  0  0  0
 23 25  2  0  0  0
  3  4  2  0  0  0
  4  5  2  0  0  0
  9 10  1  0  0  0
 10 11  2  0  0  0
 11 12  1  0  0  0
 11  6  1  0  0  0
  5  1  1  0  0  0
 25 18  1  0  0  0
 16 17  1  0  0  0
 12 13  1  0  0  0
M  END
> <score>
-0.190436

> <minimizedAffinity>
-6.96657

> <CNNscore>
0.4835093617

> <CNNaffinity>
5.2184543610

> <CNN_VS>
2.5231714249

$$$$
HIPS5963


 21 21  0  0  0  0  0  0  0  0999 V2000
   68.6564   77.8898   90.6931 N   0  0  0  0  0  0  0  0  0  0  0  0
   68.0233   76.8380   91.4352 C   0  0  0  0  0  0  0  0  0  0  0  0
   67.4917   75.8653   90.8323 O   0  0  0  0  0  0  0  0  0  0  0  0
   68.0188   76.8853   92.8685 N   0  0  0  0  0  0  0  0  0  0  0  0
   69.0496   78.6429   91.1906 H   0  0  0  0  0  0  0  0  0  0  0  0
   68.4548   77.6444   93.3189 H   0  0  0  0  0  0  0  0  0  0  0  0
   67.4035   75.8689   93.6698 C   0  0  0  0  0  0  0  0  0  0  0  0
   66.0325   75.8894   93.9625 C   0  0  0  0  0  0  0  0  0  0  0  0
   65.6219   74.8425   94.7761 C   0  0  0  0  0  0  0  0  0  0  0  0
   66.9597   73.8808   95.1093 S   0  0  0  0  0  0  0  0  0  0  0  0
   68.0790   74.7792   94.2314 C   0  0  0  0  0  0  0  0  0  0  0  0
   69.4813   74.3772   94.0325 C   0  0  0  0  0  0  0  0  0  0  0  0
   70.0876   74.6606   92.9654 O   0  0  0  0  0  0  0  0  0  0  0  0
   70.1346   73.6479   95.0211 O   0  0  0  0  0  0  0  0  0  0  0  0
   69.6890   73.4339   95.8171 H   0  0  0  0  0  0  0  0  0  0  0  0
   68.7463   77.8979   89.2325 C   0  0  0  0  0  0  0  0  0  0  0  0
   67.7414   78.8907   88.6314 C   0  0  0  0  0  0  0  0  0  0  0  0
   66.7509   78.2350   87.6443 C   0  0  0  0  0  0  0  0  0  0  0  0
   67.0984   76.7784   87.2939 C   0  0  0  0  0  0  0  0  0  0  0  0
   68.3550   77.3312   85.1755 C   0  0  0  0  0  0  0  0  0  0  0  0
   67.2028   76.5358   85.7825 C   0  0  0  0  0  0  0  0  0  0  0  0
 20 21  1  0  0  0
 21 19  1  0  0  0
 19 18  1  0  0  0
 18 17  1  0  0  0
 17 16  1  0  0  0
 16  1  1  0  0  0
  1  2  1  0  0  0
  2  3  2  0  0  0
  2  4  1  0  0  0
  4  7  1  0  0  0
  7  8  1  0  0  0
  8  9  2  0  0  0
  9 10  1  0  0  0
 10 11  1  0  0  0
 11 12  1  0  0  0
 12 13  2  0  0  0
 12 14  1  0  0  0
 11  7  2  0  0  0
  1  5  1  0  0  0
  4  6  1  0  0  0
 14 15  1  0  0  0
M  END
> <score>
0.640496

> <minimizedAffinity>
-5.32986

> <CNNscore>
0.8656404018

> <CNNaffinity>
5.1880092621

> <CNN_VS>
4.4909505844

$$$$
HIPS5963


 21 21  0  0  0  0  0  0  0  0999 V2000
   68.4816   78.1301   91.3636 N   0  0  0  0  0  0  0  0  0  0  0  0
   68.0706   76.9289   92.0314 C   0  0  0  0  0  0  0  0  0  0  0  0
   68.2141   75.8082   91.4697 O   0  0  0  0  0  0  0  0  0  0  0  0
   67.5175   77.0061   93.3523 N   0  0  0  0  0  0  0  0  0  0  0  0
   68.3436   78.9909   91.8210 H   0  0  0  0  0  0  0  0  0  0  0  0
   67.4309   77.8891   93.7789 H   0  0  0  0  0  0  0  0  0  0  0  0
   67.0862   75.8459   94.0746 C   0  0  0  0  0  0  0  0  0  0  0  0
   65.7584   75.3983   94.0264 C   0  0  0  0  0  0  0  0  0  0  0  0
   65.5199   74.2796   94.8126 C   0  0  0  0  0  0  0  0  0  0  0  0
   66.9657   73.8357   95.5463 S   0  0  0  0  0  0  0  0  0  0  0  0
   67.9135   75.0568   94.8821 C   0  0  0  0  0  0  0  0  0  0  0  0
   69.3708   75.1574   95.0644 C   0  0  0  0  0  0  0  0  0  0  0  0
   70.0774   74.1221   95.1895 O   0  0  0  0  0  0  0  0  0  0  0  0
   69.9707   76.4110   95.1317 O   0  0  0  0  0  0  0  0  0  0  0  0
   69.4506   77.1849   95.0394 H   0  0  0  0  0  0  0  0  0  0  0  0
   69.0961   78.1384   90.0355 C   0  0  0  0  0  0  0  0  0  0  0  0
   70.6165   77.9523   90.1386 C   0  0  0  0  0  0  0  0  0  0  0  0
   71.3848   79.2819   90.3040 C   0  0  0  0  0  0  0  0  0  0  0  0
   70.5146   80.5313   90.0872 C   0  0  0  0  0  0  0  0  0  0  0  0
   70.8195   82.8452   91.0490 C   0  0  0  0  0  0  0  0  0  0  0  0
   71.3332   81.8279   90.0341 C   0  0  0  0  0  0  0  0  0  0  0  0
 20 21  1  0  0  0
 21 19  1  0  0  0
 19 18  1  0  0  0
 18 17  1  0  0  0
 17 16  1  0  0  0
 16  1  1  0  0  0
  1  2  1  0  0  0
  2  3  2  0  0  0
  2  4  1  0  0  0
  4  7  1  0  0  0
  7  8  1  0  0  0
  8  9  2  0  0  0
  9 10  1  0  0  0
 10 11  1  0  0  0
 11 12  1  0  0  0
 12 13  2  0  0  0
 12 14  1  0  0  0
 11  7  2  0  0  0
  1  5  1  0  0  0
  4  6  1  0  0  0
 14 15  1  0  0  0
M  END
> <score>
0.640496

> <minimizedAffinity>
-5.41926

> <CNNscore>
0.7867473364

> <CNNaffinity>
4.8761281967

> <CNN_VS>
3.8362808228

$$$$
HIPS5963


 21 21  0  0  0  0  0  0  0  0999 V2000
   67.3523   77.8503   90.7906 N   0  0  0  0  0  0  0  0  0  0  0  0
   67.2581   76.6921   91.6317 C   0  0  0  0  0  0  0  0  0  0  0  0
   67.4306   75.5394   91.1482 O   0  0  0  0  0  0  0  0  0  0  0  0
   66.9906   76.8525   93.0315 N   0  0  0  0  0  0  0  0  0  0  0  0
   67.1982   78.7353   91.1934 H   0  0  0  0  0  0  0  0  0  0  0  0
   66.8769   77.7619   93.3910 H   0  0  0  0  0  0  0  0  0  0  0  0
   66.8827   75.7385   93.9266 C   0  0  0  0  0  0  0  0  0  0  0  0
   65.6451   75.1548   94.2320 C   0  0  0  0  0  0  0  0  0  0  0  0
   65.7327   74.1085   95.1398 C   0  0  0  0  0  0  0  0  0  0  0  0
   67.3511   73.8962   95.5414 S   0  0  0  0  0  0  0  0  0  0  0  0
   67.9635   75.1295   94.5747 C   0  0  0  0  0  0  0  0  0  0  0  0
   69.4000   75.3977   94.3962 C   0  0  0  0  0  0  0  0  0  0  0  0
   70.0682   74.7768   93.5275 O   0  0  0  0  0  0  0  0  0  0  0  0
   70.0341   76.3243   95.2180 O   0  0  0  0  0  0  0  0  0  0  0  0
   69.5425   76.7894   95.8661 H   0  0  0  0  0  0  0  0  0  0  0  0
   67.6661   77.7804   89.3629 C   0  0  0  0  0  0  0  0  0  0  0  0
   69.1155   78.2143   89.1029 C   0  0  0  0  0  0  0  0  0  0  0  0
   69.6213   79.2818   90.0979 C   0  0  0  0  0  0  0  0  0  0  0  0
   71.1521   79.3198   90.2404 C   0  0  0  0  0  0  0  0  0  0  0  0
   71.6846   77.2848   91.6360 C   0  0  0  0  0  0  0  0  0  0  0  0
   71.7862   77.9227   90.2535 C   0  0  0  0  0  0  0  0  0  0  0  0
 20 21  1  0  0  0
 21 19  1  0  0  0
 19 18  1  0  0  0
 18 17  1  0  0  0
 17 16  1  0  0  0
 16  1  1  0  0  0
  1  2  1  0  0  0
  2  3  2  0  0  0
  2  4  1  0  0  0
  4  7  1  0  0  0
  7  8  1  0  0  0
  8  9  2  0  0  0
  9 10  1  0  0  0
 10 11  1  0  0  0
 11 12  1  0  0  0
 12 13  2  0  0  0
 12 14  1  0  0  0
 11  7  2  0  0  0
  1  5  1  0  0  0
  4  6  1  0  0  0
 14 15  1  0  0  0
M  END
> <score>
0.640496

> <minimizedAffinity>
-5.49521

> <CNNscore>
0.7826318145

> <CNNaffinity>
5.0785446167

> <CNN_VS>
3.9746305943

$$$$
HIPS5964


 13 13  0  0  0  0  0  0  0  0999 V2000
   68.6289   74.1450   93.1947 C   0  0  0  0  0  0  0  0  0  0  0  0
   67.3136   73.2260   92.6868 S   0  0  0  0  0  0  0  0  0  0  0  0
   66.3163   73.5432   93.9980 C   0  0  0  0  0  0  0  0  0  0  0  0
   66.9985   74.3837   94.8659 C   0  0  0  0  0  0  0  0  0  0  0  0
   66.2038   75.0043   96.4915 Br  0  0  0  0  0  0  0  0  0  0  0  0
   68.2909   74.7304   94.4247 C   0  0  0  0  0  0  0  0  0  0  0  0
   69.1410   75.6178   95.1623 N   0  0  0  0  0  0  0  0  0  0  0  0
   68.8363   75.9912   96.0207 H   0  0  0  0  0  0  0  0  0  0  0  0
   70.0297   75.8539   94.8105 H   0  0  0  0  0  0  0  0  0  0  0  0
   69.8886   74.2372   92.4333 C   0  0  0  0  0  0  0  0  0  0  0  0
   70.3542   73.2353   91.8274 O   0  0  0  0  0  0  0  0  0  0  0  0
   70.1362   76.5228   91.5158 C   0  0  0  0  0  0  0  0  0  0  0  0
   70.5544   75.4653   92.3706 O   0  0  0  0  0  0  0  0  0  0  0  0
 12 13  1  0  0  0
 13 10  1  0  0  0
 10 11  2  0  0  0
 10  1  1  0  0  0
  1  2  1  0  0  0
  2  3  1  0  0  0
  3  4  2  0  0  0
  4  5  1  0  0  0
  4  6  1  0  0  0
  6  7  1  0  0  0
  6  1  2  0  0  0
  7  8  1  0  0  0
  7  9  1  0  0  0
M  END
> <score>
0.407769

> <minimizedAffinity>
-3.87578

> <CNNscore>
0.8984999061

> <CNNaffinity>
4.6103687286

> <CNN_VS>
4.1424160004

$$$$
HIPS5964


 13 13  0  0  0  0  0  0  0  0999 V2000
   68.5906   76.3624   92.8523 C   0  0  0  0  0  0  0  0  0  0  0  0
   67.1524   77.2168   92.6683 S   0  0  0  0  0  0  0  0  0  0  0  0
   66.2313   76.3118   93.7393 C   0  0  0  0  0  0  0  0  0  0  0  0
   67.0391   75.3153   94.2681 C   0  0  0  0  0  0  0  0  0  0  0  0
   66.3748   74.0635   95.5530 Br  0  0  0  0  0  0  0  0  0  0  0  0
   68.3616   75.3368   93.7827 C   0  0  0  0  0  0  0  0  0  0  0  0
   69.3595   74.4123   94.2338 N   0  0  0  0  0  0  0  0  0  0  0  0
   69.1254   73.7168   94.8901 H   0  0  0  0  0  0  0  0  0  0  0  0
   70.2791   74.4728   93.8875 H   0  0  0  0  0  0  0  0  0  0  0  0
   69.8197   76.6842   92.1034 C   0  0  0  0  0  0  0  0  0  0  0  0
   70.9251   76.1691   92.4202 O   0  0  0  0  0  0  0  0  0  0  0  0
   70.8920   78.0936   90.3740 C   0  0  0  0  0  0  0  0  0  0  0  0
   69.7403   77.5564   91.0132 O   0  0  0  0  0  0  0  0  0  0  0  0
 12 13  1  0  0  0
 13 10  1  0  0  0
 10 11  2  0  0  0
 10  1  1  0  0  0
  1  2  1  0  0  0
  2  3  1  0  0  0
  3  4  2  0  0  0
  4  5  1  0  0  0
  4  6  1  0  0  0
  6  7  1  0  0  0
  6  1  2  0  0  0
  7  8  1  0  0  0
  7  9  1  0  0  0
M  END
> <score>
0.407769

> <minimizedAffinity>
-3.90890

> <CNNscore>
0.8350770473

> <CNNaffinity>
4.4287538528

> <CNN_VS>
3.6983506680

$$$$
HIPS5964


 13 13  0  0  0  0  0  0  0  0999 V2000
   68.0050   75.2791   92.7770 C   0  0  0  0  0  0  0  0  0  0  0  0
   66.9089   74.3369   93.6392 S   0  0  0  0  0  0  0  0  0  0  0  0
   65.8735   75.5776   94.0898 C   0  0  0  0  0  0  0  0  0  0  0  0
   66.3687   76.7640   93.5680 C   0  0  0  0  0  0  0  0  0  0  0  0
   65.4694   78.4304   93.8391 Br  0  0  0  0  0  0  0  0  0  0  0  0
   67.5577   76.6084   92.8283 C   0  0  0  0  0  0  0  0  0  0  0  0
   68.2066   77.7089   92.1787 N   0  0  0  0  0  0  0  0  0  0  0  0
   67.8345   78.6168   92.2590 H   0  0  0  0  0  0  0  0  0  0  0  0
   69.0245   77.5569   91.6522 H   0  0  0  0  0  0  0  0  0  0  0  0
   69.2139   74.7263   92.1382 C   0  0  0  0  0  0  0  0  0  0  0  0
   70.3634   75.0984   92.4957 O   0  0  0  0  0  0  0  0  0  0  0  0
   68.1574   73.9009   90.0574 C   0  0  0  0  0  0  0  0  0  0  0  0
   69.0702   73.7584   91.1392 O   0  0  0  0  0  0  0  0  0  0  0  0
 12 13  1  0  0  0
 13 10  1  0  0  0
 10 11  2  0  0  0
 10  1  1  0  0  0
  1  2  1  0  0  0
  2  3  1  0  0  0
  3  4  2  0  0  0
  4  5  1  0  0  0
  4  6  1  0  0  0
  6  7  1  0  0  0
  6  1  2  0  0  0
  7  8  1  0  0  0
  7  9  1  0  0  0
M  END
> <score>
0.407769

> <minimizedAffinity>
-3.76758

> <CNNscore>
0.8204033375

> <CNNaffinity>
4.4157228470

> <CNN_VS>
3.6226737499

$$$$
HIPS5965


 20 21  0  0  0  0  0  0  0  0999 V2000
   67.8953   81.1247   88.9941 C   0  0  0  0  0  0  0  0  0  0  0  0
   67.2596   81.4202   87.4657 S   0  0  0  0  0  0  0  0  0  0  0  0
   68.2612   82.7043   87.0660 C   0  0  0  0  0  0  0  0  0  0  0  0
   69.1189   82.9423   88.1366 C   0  0  0  0  0  0  0  0  0  0  0  0
   68.9229   82.0531   89.2200 C   0  0  0  0  0  0  0  0  0  0  0  0
   69.7294   82.0816   90.4050 N   0  0  0  0  0  0  0  0  0  0  0  0
   70.4362   82.7598   90.5032 H   0  0  0  0  0  0  0  0  0  0  0  0
   69.5764   81.4230   91.1205 H   0  0  0  0  0  0  0  0  0  0  0  0
   70.0966   84.0527   88.1194 C   0  0  0  0  0  0  0  0  0  0  0  0
   71.4570   83.8041   87.8765 C   0  0  0  0  0  0  0  0  0  0  0  0
   72.3787   84.8541   87.8842 C   0  0  0  0  0  0  0  0  0  0  0  0
   71.9567   86.1621   88.1443 C   0  0  0  0  0  0  0  0  0  0  0  0
   73.1465   87.4569   88.1459 Cl  0  0  0  0  0  0  0  0  0  0  0  0
   70.6000   86.4183   88.4042 C   0  0  0  0  0  0  0  0  0  0  0  0
   70.0286   88.0464   88.7435 Cl  0  0  0  0  0  0  0  0  0  0  0  0
   69.6782   85.3646   88.3962 C   0  0  0  0  0  0  0  0  0  0  0  0
   67.4376   80.0185   89.8555 C   0  0  0  0  0  0  0  0  0  0  0  0
   68.2591   79.3365   90.5247 O   0  0  0  0  0  0  0  0  0  0  0  0
   65.1255   80.5516   90.5601 C   0  0  0  0  0  0  0  0  0  0  0  0
   66.0730   79.7173   89.9046 O   0  0  0  0  0  0  0  0  0  0  0  0
 19 20  1  0  0  0
 20 17  1  0  0  0
 17 18  2  0  0  0
 17  1  1  0  0  0
  1  2  1  0  0  0
  2  3  1  0  0  0
  3  4  2  0  0  0
  4  9  1  0  0  0
  9 10  2  0  0  0
 10 11  1  0  0  0
 11 12  2  0  0  0
 12 13  1  0  0  0
 12 14  1  0  0  0
 14 15  1  0  0  0
 14 16  2  0  0  0
  4  5  1  0  0  0
  5  6  1  0  0  0
  5  1  2  0  0  0
 16  9  1  0  0  0
  6  7  1  0  0  0
  6  8  1  0  0  0
M  END
> <score>
0.645785

> <minimizedAffinity>
-5.43138

> <CNNscore>
0.8402274847

> <CNNaffinity>
5.7145061493

> <CNN_VS>
4.8014850616

$$$$
HIPS5965


 20 21  0  0  0  0  0  0  0  0999 V2000
   67.0560   80.5002   89.1943 C   0  0  0  0  0  0  0  0  0  0  0  0
   66.5627   80.6282   87.5919 S   0  0  0  0  0  0  0  0  0  0  0  0
   67.6374   81.8320   87.1365 C   0  0  0  0  0  0  0  0  0  0  0  0
   68.4087   82.1744   88.2439 C   0  0  0  0  0  0  0  0  0  0  0  0
   68.0916   81.4242   89.4012 C   0  0  0  0  0  0  0  0  0  0  0  0
   68.7950   81.5733   90.6415 N   0  0  0  0  0  0  0  0  0  0  0  0
   69.5135   82.2415   90.7227 H   0  0  0  0  0  0  0  0  0  0  0  0
   68.5596   81.0075   91.4120 H   0  0  0  0  0  0  0  0  0  0  0  0
   69.4213   83.2516   88.1848 C   0  0  0  0  0  0  0  0  0  0  0  0
   69.1300   84.4734   87.5573 C   0  0  0  0  0  0  0  0  0  0  0  0
   70.0983   85.4781   87.4849 C   0  0  0  0  0  0  0  0  0  0  0  0
   71.3709   85.2726   88.0278 C   0  0  0  0  0  0  0  0  0  0  0  0
   72.5629   86.5606   87.9165 Cl  0  0  0  0  0  0  0  0  0  0  0  0
   71.6768   84.0474   88.6436 C   0  0  0  0  0  0  0  0  0  0  0  0
   73.2665   83.7450   89.3318 Cl  0  0  0  0  0  0  0  0  0  0  0  0
   70.7051   83.0420   88.7148 C   0  0  0  0  0  0  0  0  0  0  0  0
   66.4897   79.5145   90.1340 C   0  0  0  0  0  0  0  0  0  0  0  0
   66.2539   79.8238   91.3325 O   0  0  0  0  0  0  0  0  0  0  0  0
   67.2699   77.2618   89.4681 C   0  0  0  0  0  0  0  0  0  0  0  0
   66.2364   78.2154   89.6829 O   0  0  0  0  0  0  0  0  0  0  0  0
 19 20  1  0  0  0
 20 17  1  0  0  0
 17 18  2  0  0  0
 17  1  1  0  0  0
  1  2  1  0  0  0
  2  3  1  0  0  0
  3  4  2  0  0  0
  4  9  1  0  0  0
  9 10  2  0  0  0
 10 11  1  0  0  0
 11 12  2  0  0  0
 12 13  1  0  0  0
 12 14  1  0  0  0
 14 15  1  0  0  0
 14 16  2  0  0  0
  4  5  1  0  0  0
  5  6  1  0  0  0
  5  1  2  0  0  0
 16  9  1  0  0  0
  6  7  1  0  0  0
  6  8  1  0  0  0
M  END
> <score>
0.645785

> <minimizedAffinity>
-5.28920

> <CNNscore>
0.8204912543

> <CNNaffinity>
5.7053337097

> <CNN_VS>
4.6811761856

$$$$
HIPS5965


 20 21  0  0  0  0  0  0  0  0999 V2000
   69.6706   72.0725   93.3732 C   0  0  0  0  0  0  0  0  0  0  0  0
   68.9312   71.7187   91.9050 S   0  0  0  0  0  0  0  0  0  0  0  0
   67.9519   73.0777   91.8298 C   0  0  0  0  0  0  0  0  0  0  0  0
   68.1746   73.8435   92.9710 C   0  0  0  0  0  0  0  0  0  0  0  0
   69.1447   73.2874   93.8384 C   0  0  0  0  0  0  0  0  0  0  0  0
   69.5693   73.9330   95.0461 N   0  0  0  0  0  0  0  0  0  0  0  0
   69.1601   74.7860   95.3183 H   0  0  0  0  0  0  0  0  0  0  0  0
   70.2699   73.5232   95.6032 H   0  0  0  0  0  0  0  0  0  0  0  0
   67.4196   75.0887   93.2330 C   0  0  0  0  0  0  0  0  0  0  0  0
   66.3752   75.1079   94.1712 C   0  0  0  0  0  0  0  0  0  0  0  0
   65.6512   76.2813   94.3975 C   0  0  0  0  0  0  0  0  0  0  0  0
   65.9529   77.4458   93.6838 C   0  0  0  0  0  0  0  0  0  0  0  0
   65.0190   78.9026   93.9959 Cl  0  0  0  0  0  0  0  0  0  0  0  0
   66.9857   77.4320   92.7314 C   0  0  0  0  0  0  0  0  0  0  0  0
   67.3924   78.8716   91.8070 Cl  0  0  0  0  0  0  0  0  0  0  0  0
   67.7098   76.2551   92.5062 C   0  0  0  0  0  0  0  0  0  0  0  0
   70.7270   71.2307   93.9653 C   0  0  0  0  0  0  0  0  0  0  0  0
   71.9111   71.6505   94.0622 O   0  0  0  0  0  0  0  0  0  0  0  0
   71.3454   68.8770   94.4174 C   0  0  0  0  0  0  0  0  0  0  0  0
   70.4026   69.9422   94.4010 O   0  0  0  0  0  0  0  0  0  0  0  0
 19 20  1  0  0  0
 20 17  1  0  0  0
 17 18  2  0  0  0
 17  1  1  0  0  0
  1  2  1  0  0  0
  2  3  1  0  0  0
  3  4  2  0  0  0
  4  9  1  0  0  0
  9 10  2  0  0  0
 10 11  1  0  0  0
 11 12  2  0  0  0
 12 13  1  0  0  0
 12 14  1  0  0  0
 14 15  1  0  0  0
 14 16  2  0  0  0
  4  5  1  0  0  0
  5  6  1  0  0  0
  5  1  2  0  0  0
 16  9  1  0  0  0
  6  7  1  0  0  0
  6  8  1  0  0  0
M  END
> <score>
0.645785

> <minimizedAffinity>
-5.81476

> <CNNscore>
0.7471401095

> <CNNaffinity>
5.4785995483

> <CNN_VS>
4.0932812691

$$$$
HIPS5966


 23 24  0  0  0  0  0  0  0  0999 V2000
   68.5152   74.1103   91.7334 C   0  0  0  0  0  0  0  0  0  0  0  0
   67.9206   73.1641   90.4759 S   0  0  0  0  0  0  0  0  0  0  0  0
   67.5202   74.4206   89.4399 C   0  0  0  0  0  0  0  0  0  0  0  0
   67.8343   75.6239   90.0664 C   0  0  0  0  0  0  0  0  0  0  0  0
   68.3989   75.4545   91.3527 C   0  0  0  0  0  0  0  0  0  0  0  0
   68.8295   76.5538   92.1649 N   0  0  0  0  0  0  0  0  0  0  0  0
   68.7206   77.4772   91.8413 H   0  0  0  0  0  0  0  0  0  0  0  0
   69.2343   76.3857   93.0464 H   0  0  0  0  0  0  0  0  0  0  0  0
   67.5482   76.9302   89.4331 C   0  0  0  0  0  0  0  0  0  0  0  0
   68.1745   77.2949   88.2334 C   0  0  0  0  0  0  0  0  0  0  0  0
   67.9187   78.5377   87.6502 C   0  0  0  0  0  0  0  0  0  0  0  0
   67.0363   79.4501   88.2597 C   0  0  0  0  0  0  0  0  0  0  0  0
   66.4193   79.0877   89.4788 C   0  0  0  0  0  0  0  0  0  0  0  0
   65.3109   80.1694   90.3182 Cl  0  0  0  0  0  0  0  0  0  0  0  0
   66.6820   77.8398   90.0562 C   0  0  0  0  0  0  0  0  0  0  0  0
   66.7624   80.7961   87.6237 C   0  0  0  0  0  0  0  0  0  0  0  0
   67.0885   81.8048   88.5123 F   0  0  0  0  0  0  0  0  0  0  0  0
   65.4302   80.9394   87.2755 F   0  0  0  0  0  0  0  0  0  0  0  0
   67.5271   80.9328   86.4794 F   0  0  0  0  0  0  0  0  0  0  0  0
   69.1108   73.5492   92.9603 C   0  0  0  0  0  0  0  0  0  0  0  0
   70.3536   73.6592   93.1473 O   0  0  0  0  0  0  0  0  0  0  0  0
   67.3516   73.6416   94.6981 C   0  0  0  0  0  0  0  0  0  0  0  0
   68.3112   72.9311   93.9248 O   0  0  0  0  0  0  0  0  0  0  0  0
 22 23  1  0  0  0
 23 20  1  0  0  0
 20 21  2  0  0  0
 20  1  1  0  0  0
  1  2  1  0  0  0
  2  3  1  0  0  0
  3  4  2  0  0  0
  4  9  1  0  0  0
  9 10  2  0  0  0
 10 11  1  0  0  0
 11 12  2  0  0  0
 12 16  1  0  0  0
 16 17  1  0  0  0
 16 18  1  0  0  0
 16 19  1  0  0  0
 12 13  1  0  0  0
 13 14  1  0  0  0
 13 15  2  0  0  0
  4  5  1  0  0  0
  5  6  1  0  0  0
  5  1  2  0  0  0
 15  9  1  0  0  0
  6  7  1  0  0  0
  6  8  1  0  0  0
M  END
> <score>
0.645785

> <minimizedAffinity>
-6.22207

> <CNNscore>
0.7188135982

> <CNNaffinity>
5.8058004379

> <CNN_VS>
4.1732883453

$$$$
HIPS5966


 23 24  0  0  0  0  0  0  0  0999 V2000
   69.5392   72.2846   93.1894 C   0  0  0  0  0  0  0  0  0  0  0  0
   68.7693   71.9758   91.7258 S   0  0  0  0  0  0  0  0  0  0  0  0
   67.8610   73.3842   91.6659 C   0  0  0  0  0  0  0  0  0  0  0  0
   68.1326   74.1314   92.8091 C   0  0  0  0  0  0  0  0  0  0  0  0
   69.0791   73.5205   93.6652 C   0  0  0  0  0  0  0  0  0  0  0  0
   69.5342   74.1267   94.8814 N   0  0  0  0  0  0  0  0  0  0  0  0
   69.1722   74.9980   95.1626 H   0  0  0  0  0  0  0  0  0  0  0  0
   70.2088   73.6718   95.4357 H   0  0  0  0  0  0  0  0  0  0  0  0
   67.4440   75.4115   93.0853 C   0  0  0  0  0  0  0  0  0  0  0  0
   66.4199   75.4804   94.0398 C   0  0  0  0  0  0  0  0  0  0  0  0
   65.7574   76.6856   94.2822 C   0  0  0  0  0  0  0  0  0  0  0  0
   66.0978   77.8498   93.5671 C   0  0  0  0  0  0  0  0  0  0  0  0
   67.1187   77.7742   92.5921 C   0  0  0  0  0  0  0  0  0  0  0  0
   67.6029   79.1762   91.6417 Cl  0  0  0  0  0  0  0  0  0  0  0  0
   67.7771   76.5618   92.3559 C   0  0  0  0  0  0  0  0  0  0  0  0
   65.3766   79.1537   93.8332 C   0  0  0  0  0  0  0  0  0  0  0  0
   64.4942   78.9901   94.8858 F   0  0  0  0  0  0  0  0  0  0  0  0
   64.6591   79.5798   92.7286 F   0  0  0  0  0  0  0  0  0  0  0  0
   66.2961   80.1346   94.1583 F   0  0  0  0  0  0  0  0  0  0  0  0
   70.5658   71.3991   93.7697 C   0  0  0  0  0  0  0  0  0  0  0  0
   71.7013   71.8729   94.0483 O   0  0  0  0  0  0  0  0  0  0  0  0
   70.9989   69.3022   95.0101 C   0  0  0  0  0  0  0  0  0  0  0  0
   70.2821   70.0585   94.0417 O   0  0  0  0  0  0  0  0  0  0  0  0
 22 23  1  0  0  0
 23 20  1  0  0  0
 20 21  2  0  0  0
 20  1  1  0  0  0
  1  2  1  0  0  0
  2  3  1  0  0  0
  3  4  2  0  0  0
  4  9  1  0  0  0
  9 10  2  0  0  0
 10 11  1  0  0  0
 11 12  2  0  0  0
 12 16  1  0  0  0
 16 17  1  0  0  0
 16 18  1  0  0  0
 16 19  1  0  0  0
 12 13  1  0  0  0
 13 14  1  0  0  0
 13 15  2  0  0  0
  4  5  1  0  0  0
  5  6  1  0  0  0
  5  1  2  0  0  0
 15  9  1  0  0  0
  6  7  1  0  0  0
  6  8  1  0  0  0
M  END
> <score>
0.645785

> <minimizedAffinity>
-6.56429

> <CNNscore>
0.6853570342

> <CNNaffinity>
5.6265354156

> <CNN_VS>
3.8561856747

$$$$
HIPS5966


 23 24  0  0  0  0  0  0  0  0999 V2000
   68.3514   74.2804   94.5603 C   0  0  0  0  0  0  0  0  0  0  0  0
   66.7347   74.0253   94.9491 S   0  0  0  0  0  0  0  0  0  0  0  0
   66.1101   75.3440   94.1226 C   0  0  0  0  0  0  0  0  0  0  0  0
   67.1656   76.0296   93.5270 C   0  0  0  0  0  0  0  0  0  0  0  0
   68.4262   75.4327   93.7653 C   0  0  0  0  0  0  0  0  0  0  0  0
   69.6473   75.9485   93.2208 N   0  0  0  0  0  0  0  0  0  0  0  0
   69.6345   76.7636   92.6688 H   0  0  0  0  0  0  0  0  0  0  0  0
   70.4989   75.4878   93.3987 H   0  0  0  0  0  0  0  0  0  0  0  0
   66.9519   77.2804   92.7659 C   0  0  0  0  0  0  0  0  0  0  0  0
   66.5472   78.4532   93.4180 C   0  0  0  0  0  0  0  0  0  0  0  0
   66.3253   79.6261   92.6932 C   0  0  0  0  0  0  0  0  0  0  0  0
   66.4939   79.6505   91.2956 C   0  0  0  0  0  0  0  0  0  0  0  0
   66.8848   78.4621   90.6374 C   0  0  0  0  0  0  0  0  0  0  0  0
   67.1086   78.3961   88.8913 Cl  0  0  0  0  0  0  0  0  0  0  0  0
   67.1047   77.2911   91.3721 C   0  0  0  0  0  0  0  0  0  0  0  0
   66.2520   80.9243   90.5144 C   0  0  0  0  0  0  0  0  0  0  0  0
   65.2660   80.7090   89.5685 F   0  0  0  0  0  0  0  0  0  0  0  0
   67.3945   81.3515   89.8597 F   0  0  0  0  0  0  0  0  0  0  0  0
   65.8450   81.9268   91.3761 F   0  0  0  0  0  0  0  0  0  0  0  0
   69.4367   73.3646   94.9582 C   0  0  0  0  0  0  0  0  0  0  0  0
   69.3771   72.7899   96.0797 O   0  0  0  0  0  0  0  0  0  0  0  0
   71.0491   71.8031   93.9164 C   0  0  0  0  0  0  0  0  0  0  0  0
   70.5048   73.1051   94.0959 O   0  0  0  0  0  0  0  0  0  0  0  0
 22 23  1  0  0  0
 23 20  1  0  0  0
 20 21  2  0  0  0
 20  1  1  0  0  0
  1  2  1  0  0  0
  2  3  1  0  0  0
  3  4  2  0  0  0
  4  9  1  0  0  0
  9 10  2  0  0  0
 10 11  1  0  0  0
 11 12  2  0  0  0
 12 16  1  0  0  0
 16 17  1  0  0  0
 16 18  1  0  0  0
 16 19  1  0  0  0
 12 13  1  0  0  0
 13 14  1  0  0  0
 13 15  2  0  0  0
  4  5  1  0  0  0
  5  6  1  0  0  0
  5  1  2  0  0  0
 15  9  1  0  0  0
  6  7  1  0  0  0
  6  8  1  0  0  0
M  END
> <score>
0.645785

> <minimizedAffinity>
-6.06016

> <CNNscore>
0.6634370089

> <CNNaffinity>
5.6422262192

> <CNN_VS>
3.7432615757

$$$$
HIPS5967


 25 26  0  0  0  0  0  0  0  0999 V2000
   68.6406   75.2601   90.5976 C   0  0  0  0  0  0  0  0  0  0  0  0
   67.7078   75.5535   89.5796 C   0  0  0  0  0  0  0  0  0  0  0  0
   67.0806   74.4169   89.0725 C   0  0  0  0  0  0  0  0  0  0  0  0
   67.6990   73.0695   89.8639 S   0  0  0  0  0  0  0  0  0  0  0  0
   68.7615   73.8966   90.8698 C   0  0  0  0  0  0  0  0  0  0  0  0
   67.3970   76.9173   89.0952 C   0  0  0  0  0  0  0  0  0  0  0  0
   67.8624   77.3430   87.8407 C   0  0  0  0  0  0  0  0  0  0  0  0
   67.5431   78.6167   87.3639 C   0  0  0  0  0  0  0  0  0  0  0  0
   66.7619   79.4838   88.1346 C   0  0  0  0  0  0  0  0  0  0  0  0
   66.3723   81.0750   87.4960 Cl  0  0  0  0  0  0  0  0  0  0  0  0
   66.3054   79.0736   89.3980 C   0  0  0  0  0  0  0  0  0  0  0  0
   65.3250   80.1337   90.4014 Cl  0  0  0  0  0  0  0  0  0  0  0  0
   66.6294   77.7985   89.8754 C   0  0  0  0  0  0  0  0  0  0  0  0
   69.6447   73.2541   91.8560 C   0  0  0  0  0  0  0  0  0  0  0  0
   70.3943   73.9468   92.5945 O   0  0  0  0  0  0  0  0  0  0  0  0
   69.6584   71.8673   91.9689 O   0  0  0  0  0  0  0  0  0  0  0  0
   69.1030   71.3472   91.4222 H   0  0  0  0  0  0  0  0  0  0  0  0
   69.3480   76.2679   91.3283 N   0  0  0  0  0  0  0  0  0  0  0  0
   70.3135   76.3852   91.1754 H   0  0  0  0  0  0  0  0  0  0  0  0
   68.6680   77.1262   92.2958 C   0  0  0  0  0  0  0  0  0  0  0  0
   68.0359   76.2903   93.4163 C   0  0  0  0  0  0  0  0  0  0  0  0
   66.5023   76.1946   93.2799 C   0  0  0  0  0  0  0  0  0  0  0  0
   65.8590   75.2220   94.2827 C   0  0  0  0  0  0  0  0  0  0  0  0
   66.7132   73.6905   96.0980 C   0  0  0  0  0  0  0  0  0  0  0  0
   66.6326   75.1323   95.6050 C   0  0  0  0  0  0  0  0  0  0  0  0
 24 25  1  0  0  0
 25 23  1  0  0  0
 23 22  1  0  0  0
 22 21  1  0  0  0
 21 20  1  0  0  0
 20 18  1  0  0  0
 18  1  1  0  0  0
  1  2  1  0  0  0
  2  6  1  0  0  0
  6  7  2  0  0  0
  7  8  1  0  0  0
  8  9  2  0  0  0
  9 10  1  0  0  0
  9 11  1  0  0  0
 11 12  1  0  0  0
 11 13  2  0  0  0
  2  3  2  0  0  0
  3  4  1  0  0  0
  4  5  1  0  0  0
  5 14  1  0  0  0
 14 15  2  0  0  0
 14 16  1  0  0  0
  5  1  2  0  0  0
 13  6  1  0  0  0
 18 19  1  0  0  0
 16 17  1  0  0  0
M  END
> <score>
-0.855624

> <minimizedAffinity>
-6.28470

> <CNNscore>
0.9432576299

> <CNNaffinity>
6.7550640106

> <CNN_VS>
6.3717656136

$$$$
HIPS5967


 25 26  0  0  0  0  0  0  0  0999 V2000
   69.4439   77.8724   91.2477 C   0  0  0  0  0  0  0  0  0  0  0  0
   70.0911   78.8419   90.4516 C   0  0  0  0  0  0  0  0  0  0  0  0
   71.4514   78.5885   90.2845 C   0  0  0  0  0  0  0  0  0  0  0  0
   71.8419   77.1937   91.1368 S   0  0  0  0  0  0  0  0  0  0  0  0
   70.2989   76.8769   91.7228 C   0  0  0  0  0  0  0  0  0  0  0  0
   69.4161   80.0050   89.8330 C   0  0  0  0  0  0  0  0  0  0  0  0
   69.9587   81.2924   89.9743 C   0  0  0  0  0  0  0  0  0  0  0  0
   69.3446   82.3886   89.3638 C   0  0  0  0  0  0  0  0  0  0  0  0
   68.1787   82.2160   88.6108 C   0  0  0  0  0  0  0  0  0  0  0  0
   67.4408   83.6183   87.8490 Cl  0  0  0  0  0  0  0  0  0  0  0  0
   67.6188   80.9348   88.4772 C   0  0  0  0  0  0  0  0  0  0  0  0
   66.1517   80.6740   87.5438 Cl  0  0  0  0  0  0  0  0  0  0  0  0
   68.2335   79.8383   89.0926 C   0  0  0  0  0  0  0  0  0  0  0  0
   69.9532   75.7331   92.5816 C   0  0  0  0  0  0  0  0  0  0  0  0
   69.2105   75.8864   93.5875 O   0  0  0  0  0  0  0  0  0  0  0  0
   70.4580   74.4708   92.2848 O   0  0  0  0  0  0  0  0  0  0  0  0
   71.0109   74.3511   91.5379 H   0  0  0  0  0  0  0  0  0  0  0  0
   68.0330   77.8718   91.4916 N   0  0  0  0  0  0  0  0  0  0  0  0
   67.6420   78.5752   92.0586 H   0  0  0  0  0  0  0  0  0  0  0  0
   67.1610   76.8496   90.9171 C   0  0  0  0  0  0  0  0  0  0  0  0
   67.7490   76.3036   89.6095 C   0  0  0  0  0  0  0  0  0  0  0  0
   67.6894   74.7636   89.5401 C   0  0  0  0  0  0  0  0  0  0  0  0
   66.8143   74.2370   88.3903 C   0  0  0  0  0  0  0  0  0  0  0  0
   66.6746   72.1693   86.9498 C   0  0  0  0  0  0  0  0  0  0  0  0
   66.7056   72.7063   88.3776 C   0  0  0  0  0  0  0  0  0  0  0  0
 24 25  1  0  0  0
 25 23  1  0  0  0
 23 22  1  0  0  0
 22 21  1  0  0  0
 21 20  1  0  0  0
 20 18  1  0  0  0
 18  1  1  0  0  0
  1  2  1  0  0  0
  2  6  1  0  0  0
  6  7  2  0  0  0
  7  8  1  0  0  0
  8  9  2  0  0  0
  9 10  1  0  0  0
  9 11  1  0  0  0
 11 12  1  0  0  0
 11 13  2  0  0  0
  2  3  2  0  0  0
  3  4  1  0  0  0
  4  5  1  0  0  0
  5 14  1  0  0  0
 14 15  2  0  0  0
 14 16  1  0  0  0
  5  1  2  0  0  0
 13  6  1  0  0  0
 18 19  1  0  0  0
 16 17  1  0  0  0
M  END
> <score>
-0.855624

> <minimizedAffinity>
-6.12677

> <CNNscore>
0.8671967387

> <CNNaffinity>
6.4084510803

> <CNN_VS>
5.5573878288

$$$$
HIPS5967


 25 26  0  0  0  0  0  0  0  0999 V2000
   69.3851   77.6659   90.9523 C   0  0  0  0  0  0  0  0  0  0  0  0
   70.0463   78.7890   90.4101 C   0  0  0  0  0  0  0  0  0  0  0  0
   71.4322   78.6436   90.3829 C   0  0  0  0  0  0  0  0  0  0  0  0
   71.8242   77.1507   91.0475 S   0  0  0  0  0  0  0  0  0  0  0  0
   70.2513   76.6548   91.3710 C   0  0  0  0  0  0  0  0  0  0  0  0
   69.3626   79.9991   89.9007 C   0  0  0  0  0  0  0  0  0  0  0  0
   69.8575   81.2744   90.2174 C   0  0  0  0  0  0  0  0  0  0  0  0
   69.2363   82.4188   89.7111 C   0  0  0  0  0  0  0  0  0  0  0  0
   68.1106   82.3060   88.8888 C   0  0  0  0  0  0  0  0  0  0  0  0
   67.3628   83.7688   88.2624 Cl  0  0  0  0  0  0  0  0  0  0  0  0
   67.5979   81.0354   88.5798 C   0  0  0  0  0  0  0  0  0  0  0  0
   66.1822   80.8485   87.5538 Cl  0  0  0  0  0  0  0  0  0  0  0  0
   68.2195   79.8902   89.0908 C   0  0  0  0  0  0  0  0  0  0  0  0
   69.8946   75.3665   91.9862 C   0  0  0  0  0  0  0  0  0  0  0  0
   70.2649   75.0898   93.1581 O   0  0  0  0  0  0  0  0  0  0  0  0
   69.1476   74.4409   91.2640 O   0  0  0  0  0  0  0  0  0  0  0  0
   68.8696   74.6414   90.3919 H   0  0  0  0  0  0  0  0  0  0  0  0
   67.9595   77.5455   91.0080 N   0  0  0  0  0  0  0  0  0  0  0  0
   67.4881   77.0672   90.2882 H   0  0  0  0  0  0  0  0  0  0  0  0
   67.1892   78.1174   92.1102 C   0  0  0  0  0  0  0  0  0  0  0  0
   67.2902   77.2351   93.3613 C   0  0  0  0  0  0  0  0  0  0  0  0
   66.1823   76.1628   93.4112 C   0  0  0  0  0  0  0  0  0  0  0  0
   65.8950   75.6466   94.8312 C   0  0  0  0  0  0  0  0  0  0  0  0
   66.7159   73.5502   93.6903 C   0  0  0  0  0  0  0  0  0  0  0  0
   66.1872   74.1485   94.9906 C   0  0  0  0  0  0  0  0  0  0  0  0
 24 25  1  0  0  0
 25 23  1  0  0  0
 23 22  1  0  0  0
 22 21  1  0  0  0
 21 20  1  0  0  0
 20 18  1  0  0  0
 18  1  1  0  0  0
  1  2  1  0  0  0
  2  6  1  0  0  0
  6  7  2  0  0  0
  7  8  1  0  0  0
  8  9  2  0  0  0
  9 10  1  0  0  0
  9 11  1  0  0  0
 11 12  1  0  0  0
 11 13  2  0  0  0
  2  3  2  0  0  0
  3  4  1  0  0  0
  4  5  1  0  0  0
  5 14  1  0  0  0
 14 15  2  0  0  0
 14 16  1  0  0  0
  5  1  2  0  0  0
 13  6  1  0  0  0
 18 19  1  0  0  0
 16 17  1  0  0  0
M  END
> <score>
-0.855624

> <minimizedAffinity>
-5.98208

> <CNNscore>
0.8444308639

> <CNNaffinity>
6.3519506454

> <CNN_VS>
5.3637833595

$$$$
HIPS5968


 25 26  0  0  0  0  0  0  0  0999 V2000
   68.8633   82.5363   89.3160 C   0  0  0  0  0  0  0  0  0  0  0  0
   69.2187   83.2954   88.1746 C   0  0  0  0  0  0  0  0  0  0  0  0
   68.4834   82.9533   87.0415 C   0  0  0  0  0  0  0  0  0  0  0  0
   67.3880   81.7522   87.4598 S   0  0  0  0  0  0  0  0  0  0  0  0
   67.8260   81.6296   89.0787 C   0  0  0  0  0  0  0  0  0  0  0  0
   70.2188   84.3884   88.1618 C   0  0  0  0  0  0  0  0  0  0  0  0
   71.5721   84.1043   87.9159 C   0  0  0  0  0  0  0  0  0  0  0  0
   72.5199   85.1306   87.9114 C   0  0  0  0  0  0  0  0  0  0  0  0
   72.1298   86.4533   88.1449 C   0  0  0  0  0  0  0  0  0  0  0  0
   73.3528   87.7166   88.1370 Cl  0  0  0  0  0  0  0  0  0  0  0  0
   70.7767   86.7501   88.3774 C   0  0  0  0  0  0  0  0  0  0  0  0
   70.2421   88.3996   88.6689 Cl  0  0  0  0  0  0  0  0  0  0  0  0
   69.8281   85.7212   88.3777 C   0  0  0  0  0  0  0  0  0  0  0  0
   69.1092   83.6424   91.5646 C   0  0  0  0  0  0  0  0  0  0  0  0
   68.2300   84.5018   91.2836 O   0  0  0  0  0  0  0  0  0  0  0  0
   69.5091   82.6665   90.5908 N   0  0  0  0  0  0  0  0  0  0  0  0
   70.2561   82.0624   90.8062 H   0  0  0  0  0  0  0  0  0  0  0  0
   69.7611   83.6717   92.9142 C   0  0  0  0  0  0  0  0  0  0  0  0
   69.0204   84.5876   93.9007 C   0  0  0  0  0  0  0  0  0  0  0  0
   68.0568   84.1698   96.2296 C   0  0  0  0  0  0  0  0  0  0  0  0
   67.9517   83.8552   94.7371 C   0  0  0  0  0  0  0  0  0  0  0  0
   67.2240   80.6770   90.0281 C   0  0  0  0  0  0  0  0  0  0  0  0
   67.8302   80.3915   91.0950 O   0  0  0  0  0  0  0  0  0  0  0  0
   65.9910   80.0899   89.7645 O   0  0  0  0  0  0  0  0  0  0  0  0
   65.5332   80.2965   88.9735 H   0  0  0  0  0  0  0  0  0  0  0  0
 20 21  1  0  0  0
 21 19  1  0  0  0
 19 18  1  0  0  0
 18 14  1  0  0  0
 14 15  2  0  0  0
 14 16  1  0  0  0
 16  1  1  0  0  0
  1  2  1  0  0  0
  2  6  1  0  0  0
  6  7  2  0  0  0
  7  8  1  0  0  0
  8  9  2  0  0  0
  9 10  1  0  0  0
  9 11  1  0  0  0
 11 12  1  0  0  0
 11 13  2  0  0  0
  2  3  2  0  0  0
  3  4  1  0  0  0
  4  5  1  0  0  0
  5 22  1  0  0  0
 22 23  2  0  0  0
 22 24  1  0  0  0
  5  1  2  0  0  0
 13  6  1  0  0  0
 16 17  1  0  0  0
 24 25  1  0  0  0
M  END
> <score>
0.062742

> <minimizedAffinity>
-6.01669

> <CNNscore>
0.8017057180

> <CNNaffinity>
6.1968355179

> <CNN_VS>
4.9680385590

$$$$
HIPS5968


 25 26  0  0  0  0  0  0  0  0999 V2000
   69.1918   74.3154   91.6889 C   0  0  0  0  0  0  0  0  0  0  0  0
   67.9483   74.4705   91.0293 C   0  0  0  0  0  0  0  0  0  0  0  0
   67.0494   73.4440   91.3117 C   0  0  0  0  0  0  0  0  0  0  0  0
   67.7758   72.3808   92.3885 S   0  0  0  0  0  0  0  0  0  0  0  0
   69.2461   73.1873   92.5129 C   0  0  0  0  0  0  0  0  0  0  0  0
   67.5827   75.6209   90.1702 C   0  0  0  0  0  0  0  0  0  0  0  0
   67.3169   76.8747   90.7446 C   0  0  0  0  0  0  0  0  0  0  0  0
   66.9635   77.9601   89.9391 C   0  0  0  0  0  0  0  0  0  0  0  0
   66.8774   77.8110   88.5510 C   0  0  0  0  0  0  0  0  0  0  0  0
   66.4238   79.1990   87.5714 Cl  0  0  0  0  0  0  0  0  0  0  0  0
   67.1554   76.5651   87.9654 C   0  0  0  0  0  0  0  0  0  0  0  0
   67.0655   76.3355   86.2244 Cl  0  0  0  0  0  0  0  0  0  0  0  0
   67.5131   75.4799   88.7735 C   0  0  0  0  0  0  0  0  0  0  0  0
   70.4773   76.3809   92.3376 C   0  0  0  0  0  0  0  0  0  0  0  0
   69.5944   76.7178   93.1728 O   0  0  0  0  0  0  0  0  0  0  0  0
   70.2986   75.2133   91.5219 N   0  0  0  0  0  0  0  0  0  0  0  0
   70.9617   75.0210   90.8201 H   0  0  0  0  0  0  0  0  0  0  0  0
   71.7008   77.2324   92.1773 C   0  0  0  0  0  0  0  0  0  0  0  0
   71.9359   77.6477   90.7169 C   0  0  0  0  0  0  0  0  0  0  0  0
   70.8431   79.8960   90.1900 C   0  0  0  0  0  0  0  0  0  0  0  0
   70.7331   78.3749   90.0823 C   0  0  0  0  0  0  0  0  0  0  0  0
   70.3817   72.7153   93.3245 C   0  0  0  0  0  0  0  0  0  0  0  0
   71.2670   71.9902   92.7973 O   0  0  0  0  0  0  0  0  0  0  0  0
   70.4928   73.0626   94.6666 O   0  0  0  0  0  0  0  0  0  0  0  0
   69.8390   73.6015   95.0668 H   0  0  0  0  0  0  0  0  0  0  0  0
 20 21  1  0  0  0
 21 19  1  0  0  0
 19 18  1  0  0  0
 18 14  1  0  0  0
 14 15  2  0  0  0
 14 16  1  0  0  0
 16  1  1  0  0  0
  1  2  1  0  0  0
  2  6  1  0  0  0
  6  7  2  0  0  0
  7  8  1  0  0  0
  8  9  2  0  0  0
  9 10  1  0  0  0
  9 11  1  0  0  0
 11 12  1  0  0  0
 11 13  2  0  0  0
  2  3  2  0  0  0
  3  4  1  0  0  0
  4  5  1  0  0  0
  5 22  1  0  0  0
 22 23  2  0  0  0
 22 24  1  0  0  0
  5  1  2  0  0  0
 13  6  1  0  0  0
 16 17  1  0  0  0
 24 25  1  0  0  0
M  END
> <score>
0.062742

> <minimizedAffinity>
-6.48744

> <CNNscore>
0.7619080544

> <CNNaffinity>
6.2899484634

> <CNN_VS>
4.7923622131

$$$$
HIPS5968


 25 26  0  0  0  0  0  0  0  0999 V2000
   67.0708   78.3620   91.7124 C   0  0  0  0  0  0  0  0  0  0  0  0
   67.0773   77.3508   92.7038 C   0  0  0  0  0  0  0  0  0  0  0  0
   66.2269   77.6287   93.7720 C   0  0  0  0  0  0  0  0  0  0  0  0
   65.4556   79.0892   93.4729 S   0  0  0  0  0  0  0  0  0  0  0  0
   66.1873   79.4085   91.9929 C   0  0  0  0  0  0  0  0  0  0  0  0
   67.8474   76.0878   92.6206 C   0  0  0  0  0  0  0  0  0  0  0  0
   68.8054   75.7791   93.6001 C   0  0  0  0  0  0  0  0  0  0  0  0
   69.5400   74.5934   93.5209 C   0  0  0  0  0  0  0  0  0  0  0  0
   69.3239   73.6976   92.4687 C   0  0  0  0  0  0  0  0  0  0  0  0
   70.2722   72.2185   92.4003 Cl  0  0  0  0  0  0  0  0  0  0  0  0
   68.3578   73.9899   91.4919 C   0  0  0  0  0  0  0  0  0  0  0  0
   68.0495   72.8889   90.1562 Cl  0  0  0  0  0  0  0  0  0  0  0  0
   67.6202   75.1764   91.5750 C   0  0  0  0  0  0  0  0  0  0  0  0
   67.4234   77.8581   89.2708 C   0  0  0  0  0  0  0  0  0  0  0  0
   66.2758   77.3450   89.1689 O   0  0  0  0  0  0  0  0  0  0  0  0
   67.8976   78.3322   90.5400 N   0  0  0  0  0  0  0  0  0  0  0  0
   68.8270   78.6496   90.6088 H   0  0  0  0  0  0  0  0  0  0  0  0
   68.3043   77.9353   88.0602 C   0  0  0  0  0  0  0  0  0  0  0  0
   67.4976   78.0279   86.7559 C   0  0  0  0  0  0  0  0  0  0  0  0
   67.2840   76.1276   85.0618 C   0  0  0  0  0  0  0  0  0  0  0  0
   68.1484   77.2795   85.5750 C   0  0  0  0  0  0  0  0  0  0  0  0
   65.9427   80.6227   91.1947 C   0  0  0  0  0  0  0  0  0  0  0  0
   64.7668   81.0543   91.0592 O   0  0  0  0  0  0  0  0  0  0  0  0
   66.9944   81.3032   90.5905 O   0  0  0  0  0  0  0  0  0  0  0  0
   67.8720   80.9893   90.6861 H   0  0  0  0  0  0  0  0  0  0  0  0
 20 21  1  0  0  0
 21 19  1  0  0  0
 19 18  1  0  0  0
 18 14  1  0  0  0
 14 15  2  0  0  0
 14 16  1  0  0  0
 16  1  1  0  0  0
  1  2  1  0  0  0
  2  6  1  0  0  0
  6  7  2  0  0  0
  7  8  1  0  0  0
  8  9  2  0  0  0
  9 10  1  0  0  0
  9 11  1  0  0  0
 11 12  1  0  0  0
 11 13  2  0  0  0
  2  3  2  0  0  0
  3  4  1  0  0  0
  4  5  1  0  0  0
  5 22  1  0  0  0
 22 23  2  0  0  0
 22 24  1  0  0  0
  5  1  2  0  0  0
 13  6  1  0  0  0
 16 17  1  0  0  0
 24 25  1  0  0  0
M  END
> <score>
0.062742

> <minimizedAffinity>
-5.90181

> <CNNscore>
0.6638365984

> <CNNaffinity>
6.1985235214

> <CNN_VS>
4.1148066521

$$$$
HIPS5969


 30 31  0  0  0  0  0  0  0  0999 V2000
   67.7906   81.5150   89.7558 C   0  0  0  0  0  0  0  0  0  0  0  0
   66.7804   80.5170   89.7895 C   0  0  0  0  0  0  0  0  0  0  0  0
   66.2674   80.0252   88.5768 C   0  0  0  0  0  0  0  0  0  0  0  0
   66.7426   80.4983   87.3564 C   0  0  0  0  0  0  0  0  0  0  0  0
   67.7280   81.4803   87.3202 C   0  0  0  0  0  0  0  0  0  0  0  0
   68.2559   82.0091   88.5086 C   0  0  0  0  0  0  0  0  0  0  0  0
   69.2591   83.1036   88.4186 C   0  0  0  0  0  0  0  0  0  0  0  0
   68.9119   84.3545   87.8794 C   0  0  0  0  0  0  0  0  0  0  0  0
   69.8633   85.3729   87.7839 C   0  0  0  0  0  0  0  0  0  0  0  0
   71.1801   85.1503   88.1979 C   0  0  0  0  0  0  0  0  0  0  0  0
   72.3479   86.4575   88.0641 Cl  0  0  0  0  0  0  0  0  0  0  0  0
   71.5470   83.8951   88.7093 C   0  0  0  0  0  0  0  0  0  0  0  0
   73.2031   83.5597   89.1973 Cl  0  0  0  0  0  0  0  0  0  0  0  0
   70.5867   82.8830   88.8265 C   0  0  0  0  0  0  0  0  0  0  0  0
   68.1722   83.5148   92.9647 N   0  0  0  0  0  0  0  0  0  0  0  0
   67.7440   83.1742   91.6395 C   0  0  0  0  0  0  0  0  0  0  0  0
   66.8643   83.8648   91.0555 O   0  0  0  0  0  0  0  0  0  0  0  0
   68.3235   82.0434   90.9787 N   0  0  0  0  0  0  0  0  0  0  0  0
   68.8529   82.9495   93.3964 H   0  0  0  0  0  0  0  0  0  0  0  0
   69.1146   81.6138   91.3773 H   0  0  0  0  0  0  0  0  0  0  0  0
   67.6478   84.6604   93.7066 C   0  0  0  0  0  0  0  0  0  0  0  0
   68.4935   85.9175   93.4518 C   0  0  0  0  0  0  0  0  0  0  0  0
   67.8894   86.8729   92.4090 C   0  0  0  0  0  0  0  0  0  0  0  0
   68.7153   86.9307   91.1150 C   0  0  0  0  0  0  0  0  0  0  0  0
   69.8063   88.5346   89.5006 C   0  0  0  0  0  0  0  0  0  0  0  0
   69.3689   88.3052   90.9438 C   0  0  0  0  0  0  0  0  0  0  0  0
   66.2569   79.9506   91.0610 C   0  0  0  0  0  0  0  0  0  0  0  0
   65.4378   80.5923   91.7717 O   0  0  0  0  0  0  0  0  0  0  0  0
   66.6866   78.6983   91.4936 O   0  0  0  0  0  0  0  0  0  0  0  0
   67.2955   78.2078   90.9772 H   0  0  0  0  0  0  0  0  0  0  0  0
 25 26  1  0  0  0
 26 24  1  0  0  0
 24 23  1  0  0  0
 23 22  1  0  0  0
 22 21  1  0  0  0
 21 15  1  0  0  0
 15 16  1  0  0  0
 16 17  2  0  0  0
 16 18  1  0  0  0
 18  1  1  0  0  0
  1  2  2  0  0  0
  2 27  1  0  0  0
 27 28  2  0  0  0
 27 29  1  0  0  0
  2  3  1  0  0  0
  3  4  2  0  0  0
  4  5  1  0  0  0
  5  6  2  0  0  0
  6  7  1  0  0  0
  7  8  2  0  0  0
  8  9  1  0  0  0
  9 10  2  0  0  0
 10 11  1  0  0  0
 10 12  1  0  0  0
 12 13  1  0  0  0
 12 14  2  0  0  0
  6  1  1  0  0  0
 14  7  1  0  0  0
 15 19  1  0  0  0
 18 20  1  0  0  0
 29 30  1  0  0  0
M  END
> <score>
-0.465878

> <minimizedAffinity>
-6.00154

> <CNNscore>
0.6930066347

> <CNNaffinity>
6.4479808807

> <CNN_VS>
4.4684934616

$$$$
HIPS5969


 30 31  0  0  0  0  0  0  0  0999 V2000
   69.0186   82.3803   89.3065 C   0  0  0  0  0  0  0  0  0  0  0  0
   68.0437   81.3476   89.2772 C   0  0  0  0  0  0  0  0  0  0  0  0
   67.3576   81.0919   88.0775 C   0  0  0  0  0  0  0  0  0  0  0  0
   67.6292   81.8300   86.9283 C   0  0  0  0  0  0  0  0  0  0  0  0
   68.5795   82.8463   86.9555 C   0  0  0  0  0  0  0  0  0  0  0  0
   69.2759   83.1439   88.1375 C   0  0  0  0  0  0  0  0  0  0  0  0
   70.2335   84.2822   88.1339 C   0  0  0  0  0  0  0  0  0  0  0  0
   71.6129   84.0607   87.9788 C   0  0  0  0  0  0  0  0  0  0  0  0
   72.5080   85.1331   87.9917 C   0  0  0  0  0  0  0  0  0  0  0  0
   72.0443   86.4376   88.1875 C   0  0  0  0  0  0  0  0  0  0  0  0
   73.2013   87.7611   88.1949 Cl  0  0  0  0  0  0  0  0  0  0  0  0
   70.6719   86.6686   88.3748 C   0  0  0  0  0  0  0  0  0  0  0  0
   70.0536   88.2883   88.6706 Cl  0  0  0  0  0  0  0  0  0  0  0  0
   69.7736   85.5954   88.3379 C   0  0  0  0  0  0  0  0  0  0  0  0
   69.8491   83.6680   92.7842 N   0  0  0  0  0  0  0  0  0  0  0  0
   69.2221   83.5899   91.4971 C   0  0  0  0  0  0  0  0  0  0  0  0
   68.2348   84.3257   91.2222 O   0  0  0  0  0  0  0  0  0  0  0  0
   69.7254   82.6706   90.5210 N   0  0  0  0  0  0  0  0  0  0  0  0
   70.6108   83.0729   92.9706 H   0  0  0  0  0  0  0  0  0  0  0  0
   70.5857   82.2226   90.6890 H   0  0  0  0  0  0  0  0  0  0  0  0
   69.4128   84.5882   93.8334 C   0  0  0  0  0  0  0  0  0  0  0  0
   68.1686   84.0507   94.5570 C   0  0  0  0  0  0  0  0  0  0  0  0
   67.0304   85.0772   94.6832 C   0  0  0  0  0  0  0  0  0  0  0  0
   67.3951   86.4389   94.0729 C   0  0  0  0  0  0  0  0  0  0  0  0
   65.3092   85.8005   92.8039 C   0  0  0  0  0  0  0  0  0  0  0  0
   66.4861   86.7675   92.8849 C   0  0  0  0  0  0  0  0  0  0  0  0
   67.7341   80.5054   90.4631 C   0  0  0  0  0  0  0  0  0  0  0  0
   68.1008   79.3012   90.5207 O   0  0  0  0  0  0  0  0  0  0  0  0
   67.0105   81.0402   91.5263 O   0  0  0  0  0  0  0  0  0  0  0  0
   66.7301   81.9339   91.4997 H   0  0  0  0  0  0  0  0  0  0  0  0
 25 26  1  0  0  0
 26 24  1  0  0  0
 24 23  1  0  0  0
 23 22  1  0  0  0
 22 21  1  0  0  0
 21 15  1  0  0  0
 15 16  1  0  0  0
 16 17  2  0  0  0
 16 18  1  0  0  0
 18  1  1  0  0  0
  1  2  2  0  0  0
  2 27  1  0  0  0
 27 28  2  0  0  0
 27 29  1  0  0  0
  2  3  1  0  0  0
  3  4  2  0  0  0
  4  5  1  0  0  0
  5  6  2  0  0  0
  6  7  1  0  0  0
  7  8  2  0  0  0
  8  9  1  0  0  0
  9 10  2  0  0  0
 10 11  1  0  0  0
 10 12  1  0  0  0
 12 13  1  0  0  0
 12 14  2  0  0  0
  6  1  1  0  0  0
 14  7  1  0  0  0
 15 19  1  0  0  0
 18 20  1  0  0  0
 29 30  1  0  0  0
M  END
> <score>
-0.465878

> <minimizedAffinity>
-6.01450

> <CNNscore>
0.5629397035

> <CNNaffinity>
6.1763410568

> <CNN_VS>
3.4769074917

$$$$
HIPS5969


 30 31  0  0  0  0  0  0  0  0999 V2000
   67.6316   81.1007   89.6333 C   0  0  0  0  0  0  0  0  0  0  0  0
   67.8162   82.5089   89.6110 C   0  0  0  0  0  0  0  0  0  0  0  0
   67.7218   83.1895   88.3848 C   0  0  0  0  0  0  0  0  0  0  0  0
   67.4437   82.5018   87.2062 C   0  0  0  0  0  0  0  0  0  0  0  0
   67.2683   81.1215   87.2239 C   0  0  0  0  0  0  0  0  0  0  0  0
   67.3698   80.4022   88.4252 C   0  0  0  0  0  0  0  0  0  0  0  0
   67.2402   78.9209   88.3828 C   0  0  0  0  0  0  0  0  0  0  0  0
   67.1939   78.1691   89.5697 C   0  0  0  0  0  0  0  0  0  0  0  0
   67.0876   76.7771   89.5222 C   0  0  0  0  0  0  0  0  0  0  0  0
   67.0543   76.1129   88.2922 C   0  0  0  0  0  0  0  0  0  0  0  0
   66.9174   74.3604   88.2735 Cl  0  0  0  0  0  0  0  0  0  0  0  0
   67.1313   76.8504   87.0997 C   0  0  0  0  0  0  0  0  0  0  0  0
   67.1397   76.0503   85.5335 Cl  0  0  0  0  0  0  0  0  0  0  0  0
   67.2139   78.2472   87.1488 C   0  0  0  0  0  0  0  0  0  0  0  0
   66.7161   79.2439   92.8201 N   0  0  0  0  0  0  0  0  0  0  0  0
   66.6051   80.1591   91.7221 C   0  0  0  0  0  0  0  0  0  0  0  0
   65.5222   80.7696   91.5067 O   0  0  0  0  0  0  0  0  0  0  0  0
   67.7345   80.3793   90.8692 N   0  0  0  0  0  0  0  0  0  0  0  0
   67.5717   78.7757   92.9546 H   0  0  0  0  0  0  0  0  0  0  0  0
   68.6114   80.0234   91.1403 H   0  0  0  0  0  0  0  0  0  0  0  0
   65.6211   78.9714   93.7500 C   0  0  0  0  0  0  0  0  0  0  0  0
   65.5682   77.4811   94.1194 C   0  0  0  0  0  0  0  0  0  0  0  0
   66.4557   76.5891   93.2352 C   0  0  0  0  0  0  0  0  0  0  0  0
   67.5531   75.8720   94.0359 C   0  0  0  0  0  0  0  0  0  0  0  0
   69.6825   76.1130   92.7029 C   0  0  0  0  0  0  0  0  0  0  0  0
   68.8912   76.6065   93.9100 C   0  0  0  0  0  0  0  0  0  0  0  0
   68.0832   83.3007   90.8412 C   0  0  0  0  0  0  0  0  0  0  0  0
   69.0301   83.0006   91.6166 O   0  0  0  0  0  0  0  0  0  0  0  0
   67.2677   84.3833   91.1622 O   0  0  0  0  0  0  0  0  0  0  0  0
   66.5592   84.6201   90.5966 H   0  0  0  0  0  0  0  0  0  0  0  0
 25 26  1  0  0  0
 26 24  1  0  0  0
 24 23  1  0  0  0
 23 22  1  0  0  0
 22 21  1  0  0  0
 21 15  1  0  0  0
 15 16  1  0  0  0
 16 17  2  0  0  0
 16 18  1  0  0  0
 18  1  1  0  0  0
  1  2  2  0  0  0
  2 27  1  0  0  0
 27 28  2  0  0  0
 27 29  1  0  0  0
  2  3  1  0  0  0
  3  4  2  0  0  0
  4  5  1  0  0  0
  5  6  2  0  0  0
  6  7  1  0  0  0
  7  8  2  0  0  0
  8  9  1  0  0  0
  9 10  2  0  0  0
 10 11  1  0  0  0
 10 12  1  0  0  0
 12 13  1  0  0  0
 12 14  2  0  0  0
  6  1  1  0  0  0
 14  7  1  0  0  0
 15 19  1  0  0  0
 18 20  1  0  0  0
 29 30  1  0  0  0
M  END
> <score>
-0.465878

> <minimizedAffinity>
-6.33475

> <CNNscore>
0.5341429114

> <CNNaffinity>
6.5561246872

> <CNN_VS>
3.5019075871

$$$$
HIPS5993


 20 21  0  0  0  0  0  0  0  0999 V2000
   67.7856   77.9053   91.5952 N   0  0  0  0  0  0  0  0  0  0  0  0
   69.1942   77.8055   91.3470 C   0  0  0  0  0  0  0  0  0  0  0  0
   69.8918   78.7085   90.5098 C   0  0  0  0  0  0  0  0  0  0  0  0
   71.2401   78.3941   90.3627 C   0  0  0  0  0  0  0  0  0  0  0  0
   71.5671   77.0255   91.2747 S   0  0  0  0  0  0  0  0  0  0  0  0
   70.0107   76.7888   91.8654 C   0  0  0  0  0  0  0  0  0  0  0  0
   67.2675   78.6441   91.2015 H   0  0  0  0  0  0  0  0  0  0  0  0
   67.3364   77.2349   92.1592 H   0  0  0  0  0  0  0  0  0  0  0  0
   69.2958   79.9018   89.8697 C   0  0  0  0  0  0  0  0  0  0  0  0
   69.9148   81.1572   89.9806 C   0  0  0  0  0  0  0  0  0  0  0  0
   69.3591   82.2759   89.3546 C   0  0  0  0  0  0  0  0  0  0  0  0
   68.1862   82.1541   88.6022 C   0  0  0  0  0  0  0  0  0  0  0  0
   67.5176   83.5847   87.8287 Cl  0  0  0  0  0  0  0  0  0  0  0  0
   67.5686   80.8989   88.4722 C   0  0  0  0  0  0  0  0  0  0  0  0
   66.0976   80.7004   87.5293 Cl  0  0  0  0  0  0  0  0  0  0  0  0
   68.1272   79.7793   89.1002 C   0  0  0  0  0  0  0  0  0  0  0  0
   69.6405   75.6472   92.7226 C   0  0  0  0  0  0  0  0  0  0  0  0
   68.6821   75.7248   93.5350 O   0  0  0  0  0  0  0  0  0  0  0  0
   70.3501   74.4547   92.6166 O   0  0  0  0  0  0  0  0  0  0  0  0
   71.0651   74.3869   92.0148 H   0  0  0  0  0  0  0  0  0  0  0  0
  1  2  1  0  0  0
  2  3  1  0  0  0
  3  9  1  0  0  0
  9 10  2  0  0  0
 10 11  1  0  0  0
 11 12  2  0  0  0
 12 13  1  0  0  0
 12 14  1  0  0  0
 14 15  1  0  0  0
 14 16  2  0  0  0
  3  4  2  0  0  0
  4  5  1  0  0  0
  5  6  1  0  0  0
  6 17  1  0  0  0
 17 18  2  0  0  0
 17 19  1  0  0  0
  6  2  2  0  0  0
 16  9  1  0  0  0
  1  7  1  0  0  0
  1  8  1  0  0  0
 19 20  1  0  0  0
M  END
> <score>
0.255042

> <minimizedAffinity>
-5.25943

> <CNNscore>
0.8466384411

> <CNNaffinity>
5.3681793213

> <CNN_VS>
4.5449070930

$$$$
HIPS5993


 20 21  0  0  0  0  0  0  0  0999 V2000
   71.5067   78.3844   90.1499 N   0  0  0  0  0  0  0  0  0  0  0  0
   70.1158   78.4685   90.4873 C   0  0  0  0  0  0  0  0  0  0  0  0
   69.3646   79.6606   90.3550 C   0  0  0  0  0  0  0  0  0  0  0  0
   68.0490   79.5345   90.7927 C   0  0  0  0  0  0  0  0  0  0  0  0
   67.8147   77.9596   91.3185 S   0  0  0  0  0  0  0  0  0  0  0  0
   69.3732   77.4035   91.0197 C   0  0  0  0  0  0  0  0  0  0  0  0
   71.9716   79.1691   89.7792 H   0  0  0  0  0  0  0  0  0  0  0  0
   71.9969   77.5421   90.2889 H   0  0  0  0  0  0  0  0  0  0  0  0
   69.8757   80.9231   89.7770 C   0  0  0  0  0  0  0  0  0  0  0  0
   69.0444   81.7384   88.9922 C   0  0  0  0  0  0  0  0  0  0  0  0
   69.5262   82.9406   88.4681 C   0  0  0  0  0  0  0  0  0  0  0  0
   70.8383   83.3492   88.7292 C   0  0  0  0  0  0  0  0  0  0  0  0
   71.4081   84.8690   88.0527 Cl  0  0  0  0  0  0  0  0  0  0  0  0
   71.6723   82.5479   89.5269 C   0  0  0  0  0  0  0  0  0  0  0  0
   73.3254   83.0281   89.8858 Cl  0  0  0  0  0  0  0  0  0  0  0  0
   71.1874   81.3436   90.0510 C   0  0  0  0  0  0  0  0  0  0  0  0
   69.8168   76.0363   91.3502 C   0  0  0  0  0  0  0  0  0  0  0  0
   70.8572   75.8339   92.0292 O   0  0  0  0  0  0  0  0  0  0  0  0
   69.0598   74.9499   90.9217 O   0  0  0  0  0  0  0  0  0  0  0  0
   68.2837   75.0901   90.4157 H   0  0  0  0  0  0  0  0  0  0  0  0
  1  2  1  0  0  0
  2  3  1  0  0  0
  3  9  1  0  0  0
  9 10  2  0  0  0
 10 11  1  0  0  0
 11 12  2  0  0  0
 12 13  1  0  0  0
 12 14  1  0  0  0
 14 15  1  0  0  0
 14 16  2  0  0  0
  3  4  2  0  0  0
  4  5  1  0  0  0
  5  6  1  0  0  0
  6 17  1  0  0  0
 17 18  2  0  0  0
 17 19  1  0  0  0
  6  2  2  0  0  0
 16  9  1  0  0  0
  1  7  1  0  0  0
  1  8  1  0  0  0
 19 20  1  0  0  0
M  END
> <score>
0.255042

> <minimizedAffinity>
-5.78728

> <CNNscore>
0.8159221411

> <CNNaffinity>
5.4614772797

> <CNN_VS>
4.4561400414

$$$$
HIPS5993


 20 21  0  0  0  0  0  0  0  0999 V2000
   69.8868   82.0120   90.3381 N   0  0  0  0  0  0  0  0  0  0  0  0
   69.0723   82.0333   89.1583 C   0  0  0  0  0  0  0  0  0  0  0  0
   69.1673   83.0502   88.1785 C   0  0  0  0  0  0  0  0  0  0  0  0
   68.2453   82.9075   87.1451 C   0  0  0  0  0  0  0  0  0  0  0  0
   67.3374   81.5274   87.4325 S   0  0  0  0  0  0  0  0  0  0  0  0
   68.0771   81.0852   88.8763 C   0  0  0  0  0  0  0  0  0  0  0  0
   70.5694   82.7075   90.4777 H   0  0  0  0  0  0  0  0  0  0  0  0
   69.7634   81.3018   91.0086 H   0  0  0  0  0  0  0  0  0  0  0  0
   70.1588   84.1483   88.1918 C   0  0  0  0  0  0  0  0  0  0  0  0
   71.5153   83.8901   87.9371 C   0  0  0  0  0  0  0  0  0  0  0  0
   72.4430   84.9348   87.9286 C   0  0  0  0  0  0  0  0  0  0  0  0
   72.0277   86.2498   88.1631 C   0  0  0  0  0  0  0  0  0  0  0  0
   73.2248   87.5377   88.1435 Cl  0  0  0  0  0  0  0  0  0  0  0  0
   70.6700   86.5199   88.4028 C   0  0  0  0  0  0  0  0  0  0  0  0
   70.1047   88.1592   88.6945 Cl  0  0  0  0  0  0  0  0  0  0  0  0
   69.7421   85.4715   88.4108 C   0  0  0  0  0  0  0  0  0  0  0  0
   67.6484   79.9231   89.6770 C   0  0  0  0  0  0  0  0  0  0  0  0
   66.8358   79.0783   89.2183 O   0  0  0  0  0  0  0  0  0  0  0  0
   68.1680   79.7453   90.9558 O   0  0  0  0  0  0  0  0  0  0  0  0
   68.7736   80.3685   91.3063 H   0  0  0  0  0  0  0  0  0  0  0  0
  1  2  1  0  0  0
  2  3  1  0  0  0
  3  9  1  0  0  0
  9 10  2  0  0  0
 10 11  1  0  0  0
 11 12  2  0  0  0
 12 13  1  0  0  0
 12 14  1  0  0  0
 14 15  1  0  0  0
 14 16  2  0  0  0
  3  4  2  0  0  0
  4  5  1  0  0  0
  5  6  1  0  0  0
  6 17  1  0  0  0
 17 18  2  0  0  0
 17 19  1  0  0  0
  6  2  2  0  0  0
 16  9  1  0  0  0
  1  7  1  0  0  0
  1  8  1  0  0  0
 19 20  1  0  0  0
M  END
> <score>
0.255042

> <minimizedAffinity>
-5.43254

> <CNNscore>
0.8080419302

> <CNNaffinity>
5.4185085297

> <CNN_VS>
4.3783822060

$$$$
HIPS6025


 26 28  0  0  0  0  0  0  0  0999 V2000
   66.6629   78.7512   93.3026 C   0  0  0  0  0  0  0  0  0  0  0  0
   66.5794   78.9392   89.4849 C   0  0  0  0  0  0  0  0  0  0  0  0
   66.0766   80.2407   89.3000 C   0  0  0  0  0  0  0  0  0  0  0  0
   65.7752   81.0479   90.3992 C   0  0  0  0  0  0  0  0  0  0  0  0
   65.9644   80.5695   91.6961 C   0  0  0  0  0  0  0  0  0  0  0  0
   66.4507   79.2712   91.9046 C   0  0  0  0  0  0  0  0  0  0  0  0
   66.7685   78.4667   90.7980 C   0  0  0  0  0  0  0  0  0  0  0  0
   68.1930   77.3295   85.0144 C   0  0  0  0  0  0  0  0  0  0  0  0
   67.6407   77.3601   86.3615 N   0  0  0  0  0  0  0  0  0  0  0  0
   67.5551   78.4449   87.1518 C   0  0  0  0  0  0  0  0  0  0  0  0
   66.9030   78.0794   88.3171 C   0  0  0  0  0  0  0  0  0  0  0  0
   66.6101   76.7327   88.1461 C   0  0  0  0  0  0  0  0  0  0  0  0
   67.0630   76.3232   86.9454 N   0  0  0  0  0  0  0  0  0  0  0  0
   65.9475   77.5320   93.5063 O   0  0  0  0  0  0  0  0  0  0  0  0
   66.4450   76.4007   94.1737 C   0  0  0  0  0  0  0  0  0  0  0  0
   65.7048   75.7083   95.1467 C   0  0  0  0  0  0  0  0  0  0  0  0
   66.2504   74.5921   95.7815 C   0  0  0  0  0  0  0  0  0  0  0  0
   67.5389   74.1485   95.4663 C   0  0  0  0  0  0  0  0  0  0  0  0
   68.0536   73.0740   96.1948 O   0  0  0  0  0  0  0  0  0  0  0  0
   68.2823   74.8148   94.4619 C   0  0  0  0  0  0  0  0  0  0  0  0
   67.7280   75.9511   93.8447 C   0  0  0  0  0  0  0  0  0  0  0  0
   67.5296   72.6595   96.8517 H   0  0  0  0  0  0  0  0  0  0  0  0
   69.6069   74.3373   94.0087 C   0  0  0  0  0  0  0  0  0  0  0  0
   70.0963   74.7673   92.9293 O   0  0  0  0  0  0  0  0  0  0  0  0
   70.2963   73.3682   94.7318 O   0  0  0  0  0  0  0  0  0  0  0  0
   69.9411   73.0421   95.5351 H   0  0  0  0  0  0  0  0  0  0  0  0
  8  9  1  0  0  0
  9 10  1  0  0  0
 10 11  2  0  0  0
 11  2  1  0  0  0
  2  3  2  0  0  0
  3  4  1  0  0  0
  4  5  2  0  0  0
  5  6  1  0  0  0
  6  1  1  0  0  0
  1 14  1  0  0  0
 14 15  1  0  0  0
 15 16  2  0  0  0
 16 17  1  0  0  0
 17 18  2  0  0  0
 18 19  1  0  0  0
 18 20  1  0  0  0
 20 23  1  0  0  0
 23 24  2  0  0  0
 23 25  1  0  0  0
 20 21  2  0  0  0
  6  7  2  0  0  0
 11 12  1  0  0  0
 12 13  2  0  0  0
 13  9  1  0  0  0
  7  2  1  0  0  0
 21 15  1  0  0  0
 19 22  1  0  0  0
 25 26  1  0  0  0
M  END
> <score>
0.054326

> <minimizedAffinity>
-6.94029

> <CNNscore>
0.8855842948

> <CNNaffinity>
5.8188848495

> <CNN_VS>
5.1531128883

$$$$
HIPS6025


 26 28  0  0  0  0  0  0  0  0999 V2000
   66.6131   78.0754   88.9807 C   0  0  0  0  0  0  0  0  0  0  0  0
   67.3614   81.8246   88.9549 C   0  0  0  0  0  0  0  0  0  0  0  0
   66.8458   82.2008   90.2093 C   0  0  0  0  0  0  0  0  0  0  0  0
   66.2693   81.2496   91.0540 C   0  0  0  0  0  0  0  0  0  0  0  0
   66.1929   79.9134   90.6600 C   0  0  0  0  0  0  0  0  0  0  0  0
   66.6871   79.5179   89.4091 C   0  0  0  0  0  0  0  0  0  0  0  0
   67.2811   80.4730   88.5677 C   0  0  0  0  0  0  0  0  0  0  0  0
   70.6645   84.8318   86.6687 C   0  0  0  0  0  0  0  0  0  0  0  0
   69.4347   84.1379   87.0247 N   0  0  0  0  0  0  0  0  0  0  0  0
   69.3134   83.1860   87.9671 C   0  0  0  0  0  0  0  0  0  0  0  0
   67.9772   82.8343   88.0556 C   0  0  0  0  0  0  0  0  0  0  0  0
   67.3404   83.6431   87.1235 C   0  0  0  0  0  0  0  0  0  0  0  0
   68.2490   84.4312   86.5169 N   0  0  0  0  0  0  0  0  0  0  0  0
   67.9186   77.5477   88.7415 O   0  0  0  0  0  0  0  0  0  0  0  0
   68.9402   77.4435   89.6998 C   0  0  0  0  0  0  0  0  0  0  0  0
   70.0843   78.2587   89.6795 C   0  0  0  0  0  0  0  0  0  0  0  0
   71.0705   78.1090   90.6549 C   0  0  0  0  0  0  0  0  0  0  0  0
   70.9411   77.1464   91.6614 C   0  0  0  0  0  0  0  0  0  0  0  0
   72.0005   76.9965   92.5587 O   0  0  0  0  0  0  0  0  0  0  0  0
   69.7764   76.3425   91.7153 C   0  0  0  0  0  0  0  0  0  0  0  0
   68.7997   76.4900   90.7135 C   0  0  0  0  0  0  0  0  0  0  0  0
   72.7545   77.5485   92.4898 H   0  0  0  0  0  0  0  0  0  0  0  0
   69.5294   75.3783   92.8095 C   0  0  0  0  0  0  0  0  0  0  0  0
   70.2911   74.3846   92.9577 O   0  0  0  0  0  0  0  0  0  0  0  0
   68.4251   75.5216   93.6445 O   0  0  0  0  0  0  0  0  0  0  0  0
   67.8529   76.2566   93.5425 H   0  0  0  0  0  0  0  0  0  0  0  0
  8  9  1  0  0  0
  9 10  1  0  0  0
 10 11  2  0  0  0
 11  2  1  0  0  0
  2  3  2  0  0  0
  3  4  1  0  0  0
  4  5  2  0  0  0
  5  6  1  0  0  0
  6  1  1  0  0  0
  1 14  1  0  0  0
 14 15  1  0  0  0
 15 16  2  0  0  0
 16 17  1  0  0  0
 17 18  2  0  0  0
 18 19  1  0  0  0
 18 20  1  0  0  0
 20 23  1  0  0  0
 23 24  2  0  0  0
 23 25  1  0  0  0
 20 21  2  0  0  0
  6  7  2  0  0  0
 11 12  1  0  0  0
 12 13  2  0  0  0
 13  9  1  0  0  0
  7  2  1  0  0  0
 21 15  1  0  0  0
 19 22  1  0  0  0
 25 26  1  0  0  0
M  END
> <score>
0.054326

> <minimizedAffinity>
-6.74988

> <CNNscore>
0.8087167740

> <CNNaffinity>
5.7221212387

> <CNN_VS>
4.6275753975

$$$$
HIPS6025


 26 28  0  0  0  0  0  0  0  0999 V2000
   67.1427   78.0083   92.1341 C   0  0  0  0  0  0  0  0  0  0  0  0
   67.2290   79.8614   88.7911 C   0  0  0  0  0  0  0  0  0  0  0  0
   67.0318   78.7927   87.8968 C   0  0  0  0  0  0  0  0  0  0  0  0
   66.8668   77.4900   88.3728 C   0  0  0  0  0  0  0  0  0  0  0  0
   66.9013   77.2325   89.7436 C   0  0  0  0  0  0  0  0  0  0  0  0
   67.1106   78.2793   90.6525 C   0  0  0  0  0  0  0  0  0  0  0  0
   67.2602   79.5909   90.1729 C   0  0  0  0  0  0  0  0  0  0  0  0
   67.6311   84.8568   88.5357 C   0  0  0  0  0  0  0  0  0  0  0  0
   67.6114   83.4460   88.1749 N   0  0  0  0  0  0  0  0  0  0  0  0
   67.4341   82.4193   89.0253 C   0  0  0  0  0  0  0  0  0  0  0  0
   67.4024   81.2483   88.2872 C   0  0  0  0  0  0  0  0  0  0  0  0
   67.5588   81.6608   86.9704 C   0  0  0  0  0  0  0  0  0  0  0  0
   67.6757   83.0022   86.9305 N   0  0  0  0  0  0  0  0  0  0  0  0
   66.3297   76.8812   92.4633 O   0  0  0  0  0  0  0  0  0  0  0  0
   66.6237   75.9297   93.4538 C   0  0  0  0  0  0  0  0  0  0  0  0
   65.7869   75.7036   94.5596 C   0  0  0  0  0  0  0  0  0  0  0  0
   66.1304   74.7480   95.5163 C   0  0  0  0  0  0  0  0  0  0  0  0
   67.3101   74.0063   95.3952 C   0  0  0  0  0  0  0  0  0  0  0  0
   67.6325   73.1232   96.4278 O   0  0  0  0  0  0  0  0  0  0  0  0
   68.1447   74.1981   94.2673 C   0  0  0  0  0  0  0  0  0  0  0  0
   67.7966   75.1794   93.3211 C   0  0  0  0  0  0  0  0  0  0  0  0
   67.0535   73.0245   97.1578 H   0  0  0  0  0  0  0  0  0  0  0  0
   69.3512   73.3770   94.0257 C   0  0  0  0  0  0  0  0  0  0  0  0
   69.5349   72.3180   94.6847 O   0  0  0  0  0  0  0  0  0  0  0  0
   70.3214   73.7928   93.1186 O   0  0  0  0  0  0  0  0  0  0  0  0
   70.1943   74.5785   92.6240 H   0  0  0  0  0  0  0  0  0  0  0  0
  8  9  1  0  0  0
  9 10  1  0  0  0
 10 11  2  0  0  0
 11  2  1  0  0  0
  2  3  2  0  0  0
  3  4  1  0  0  0
  4  5  2  0  0  0
  5  6  1  0  0  0
  6  1  1  0  0  0
  1 14  1  0  0  0
 14 15  1  0  0  0
 15 16  2  0  0  0
 16 17  1  0  0  0
 17 18  2  0  0  0
 18 19  1  0  0  0
 18 20  1  0  0  0
 20 23  1  0  0  0
 23 24  2  0  0  0
 23 25  1  0  0  0
 20 21  2  0  0  0
  6  7  2  0  0  0
 11 12  1  0  0  0
 12 13  2  0  0  0
 13  9  1  0  0  0
  7  2  1  0  0  0
 21 15  1  0  0  0
 19 22  1  0  0  0
 25 26  1  0  0  0
M  END
> <score>
0.054326

> <minimizedAffinity>
-7.06665

> <CNNscore>
0.6964513063

> <CNNaffinity>
5.3778181076

> <CNN_VS>
3.7453885078

$$$$
HIPS6026


 26 28  0  0  0  0  0  0  0  0999 V2000
   67.0807   79.0992   92.5664 O   0  0  0  0  0  0  0  0  0  0  0  0
   68.2137   75.7240   93.5994 C   0  0  0  0  0  0  0  0  0  0  0  0
   68.1945   77.0284   93.0722 C   0  0  0  0  0  0  0  0  0  0  0  0
   67.0303   77.8030   93.1003 C   0  0  0  0  0  0  0  0  0  0  0  0
   65.8610   77.2647   93.6629 C   0  0  0  0  0  0  0  0  0  0  0  0
   65.8606   75.9650   94.1708 C   0  0  0  0  0  0  0  0  0  0  0  0
   67.0173   75.1793   94.1263 C   0  0  0  0  0  0  0  0  0  0  0  0
   66.9263   73.8613   94.5785 O   0  0  0  0  0  0  0  0  0  0  0  0
   66.1160   73.5382   94.9205 H   0  0  0  0  0  0  0  0  0  0  0  0
   69.7572   74.1999   94.5673 O   0  0  0  0  0  0  0  0  0  0  0  0
   69.4952   74.9854   93.6165 C   0  0  0  0  0  0  0  0  0  0  0  0
   70.3940   75.1009   92.5600 O   0  0  0  0  0  0  0  0  0  0  0  0
   70.2086   75.6818   91.8486 H   0  0  0  0  0  0  0  0  0  0  0  0
   66.0048   79.7310   91.8785 C   0  0  0  0  0  0  0  0  0  0  0  0
   66.4036   79.9653   90.4509 C   0  0  0  0  0  0  0  0  0  0  0  0
   66.2917   78.9333   89.5079 C   0  0  0  0  0  0  0  0  0  0  0  0
   66.6231   79.1639   88.1716 C   0  0  0  0  0  0  0  0  0  0  0  0
   67.0558   80.4275   87.7625 C   0  0  0  0  0  0  0  0  0  0  0  0
   67.1581   81.4807   88.6892 C   0  0  0  0  0  0  0  0  0  0  0  0
   66.8223   81.2393   90.0347 C   0  0  0  0  0  0  0  0  0  0  0  0
   67.6091   82.8277   88.2541 C   0  0  0  0  0  0  0  0  0  0  0  0
   67.6033   83.9102   89.1509 C   0  0  0  0  0  0  0  0  0  0  0  0
   68.0325   85.1681   88.7205 C   0  0  0  0  0  0  0  0  0  0  0  0
   68.4528   85.3450   87.4405 N   0  0  0  0  0  0  0  0  0  0  0  0
   68.4699   84.3196   86.5491 C   0  0  0  0  0  0  0  0  0  0  0  0
   68.0504   83.0451   86.9372 C   0  0  0  0  0  0  0  0  0  0  0  0
 10 11  2  0  0  0
 11 12  1  0  0  0
 11  2  1  0  0  0
  2  3  2  0  0  0
  3  4  1  0  0  0
  4  1  1  0  0  0
  1 14  1  0  0  0
 14 15  1  0  0  0
 15 16  2  0  0  0
 16 17  1  0  0  0
 17 18  2  0  0  0
 18 19  1  0  0  0
 19 21  1  0  0  0
 21 22  2  0  0  0
 22 23  1  0  0  0
 23 24  2  0  0  0
 24 25  2  0  0  0
 25 26  2  0  0  0
 19 20  2  0  0  0
  4  5  2  0  0  0
  5  6  1  0  0  0
  6  7  2  0  0  0
  7  8  1  0  0  0
  7  2  1  0  0  0
 20 15  1  0  0  0
 26 21  1  0  0  0
 12 13  1  0  0  0
  8  9  1  0  0  0
M  END
> <score>
0.179062

> <minimizedAffinity>
-6.79641

> <CNNscore>
0.8207662106

> <CNNaffinity>
5.5170717239

> <CNN_VS>
4.5282258987

$$$$
HIPS6026


 26 28  0  0  0  0  0  0  0  0999 V2000
   66.1041   78.1115   92.8252 O   0  0  0  0  0  0  0  0  0  0  0  0
   68.2481   75.2434   93.7847 C   0  0  0  0  0  0  0  0  0  0  0  0
   67.7735   76.4134   93.1637 C   0  0  0  0  0  0  0  0  0  0  0  0
   66.5139   76.9368   93.4731 C   0  0  0  0  0  0  0  0  0  0  0  0
   65.7104   76.2784   94.4189 C   0  0  0  0  0  0  0  0  0  0  0  0
   66.1603   75.1060   95.0273 C   0  0  0  0  0  0  0  0  0  0  0  0
   67.4109   74.5676   94.7057 C   0  0  0  0  0  0  0  0  0  0  0  0
   67.7652   73.3503   95.2911 O   0  0  0  0  0  0  0  0  0  0  0  0
   67.1832   72.9345   95.8963 H   0  0  0  0  0  0  0  0  0  0  0  0
   70.0518   73.7096   93.9750 O   0  0  0  0  0  0  0  0  0  0  0  0
   69.6207   74.7853   93.4783 C   0  0  0  0  0  0  0  0  0  0  0  0
   70.4257   75.4995   92.5955 O   0  0  0  0  0  0  0  0  0  0  0  0
   70.1147   76.3000   92.2208 H   0  0  0  0  0  0  0  0  0  0  0  0
   66.9491   79.2305   92.5725 C   0  0  0  0  0  0  0  0  0  0  0  0
   67.0912   79.4148   91.0899 C   0  0  0  0  0  0  0  0  0  0  0  0
   67.3568   80.6852   90.5585 C   0  0  0  0  0  0  0  0  0  0  0  0
   67.5305   80.8489   89.1831 C   0  0  0  0  0  0  0  0  0  0  0  0
   67.4539   79.7466   88.3286 C   0  0  0  0  0  0  0  0  0  0  0  0
   67.2059   78.4613   88.8435 C   0  0  0  0  0  0  0  0  0  0  0  0
   67.0316   78.3053   90.2315 C   0  0  0  0  0  0  0  0  0  0  0  0
   67.1335   77.2863   87.9372 C   0  0  0  0  0  0  0  0  0  0  0  0
   66.9591   75.9911   88.4549 C   0  0  0  0  0  0  0  0  0  0  0  0
   66.8928   74.9006   87.5842 C   0  0  0  0  0  0  0  0  0  0  0  0
   66.9975   75.0906   86.2428 N   0  0  0  0  0  0  0  0  0  0  0  0
   67.1672   76.3293   85.7108 C   0  0  0  0  0  0  0  0  0  0  0  0
   67.2377   77.4477   86.5447 C   0  0  0  0  0  0  0  0  0  0  0  0
 10 11  2  0  0  0
 11 12  1  0  0  0
 11  2  1  0  0  0
  2  3  2  0  0  0
  3  4  1  0  0  0
  4  1  1  0  0  0
  1 14  1  0  0  0
 14 15  1  0  0  0
 15 16  2  0  0  0
 16 17  1  0  0  0
 17 18  2  0  0  0
 18 19  1  0  0  0
 19 21  1  0  0  0
 21 22  2  0  0  0
 22 23  1  0  0  0
 23 24  2  0  0  0
 24 25  2  0  0  0
 25 26  2  0  0  0
 19 20  2  0  0  0
  4  5  2  0  0  0
  5  6  1  0  0  0
  6  7  2  0  0  0
  7  8  1  0  0  0
  7  2  1  0  0  0
 20 15  1  0  0  0
 26 21  1  0  0  0
 12 13  1  0  0  0
  8  9  1  0  0  0
M  END
> <score>
0.179062

> <minimizedAffinity>
-6.91244

> <CNNscore>
0.7663859725

> <CNNaffinity>
5.7664318085

> <CNN_VS>
4.4193124771

$$$$
HIPS6026


 26 28  0  0  0  0  0  0  0  0999 V2000
   67.1757   77.2707   92.4708 O   0  0  0  0  0  0  0  0  0  0  0  0
   68.1107   74.3727   94.5851 C   0  0  0  0  0  0  0  0  0  0  0  0
   68.1534   75.4016   93.6264 C   0  0  0  0  0  0  0  0  0  0  0  0
   67.0651   76.2594   93.4366 C   0  0  0  0  0  0  0  0  0  0  0  0
   65.9099   76.0856   94.2169 C   0  0  0  0  0  0  0  0  0  0  0  0
   65.8464   75.0564   95.1570 C   0  0  0  0  0  0  0  0  0  0  0  0
   66.9248   74.1834   95.3359 C   0  0  0  0  0  0  0  0  0  0  0  0
   66.7649   73.1275   96.2356 O   0  0  0  0  0  0  0  0  0  0  0  0
   65.9642   73.0367   96.7138 H   0  0  0  0  0  0  0  0  0  0  0  0
   69.4357   72.8537   95.8418 O   0  0  0  0  0  0  0  0  0  0  0  0
   69.3224   73.5513   94.7977 C   0  0  0  0  0  0  0  0  0  0  0  0
   70.3174   73.4914   93.8262 O   0  0  0  0  0  0  0  0  0  0  0  0
   70.2427   74.0059   93.0467 H   0  0  0  0  0  0  0  0  0  0  0  0
   67.5652   77.0550   91.1174 C   0  0  0  0  0  0  0  0  0  0  0  0
   68.8877   77.7211   90.8739 C   0  0  0  0  0  0  0  0  0  0  0  0
   70.0760   76.9798   90.9474 C   0  0  0  0  0  0  0  0  0  0  0  0
   71.3024   77.5904   90.6796 C   0  0  0  0  0  0  0  0  0  0  0  0
   71.3530   78.9403   90.3241 C   0  0  0  0  0  0  0  0  0  0  0  0
   70.1712   79.6970   90.2277 C   0  0  0  0  0  0  0  0  0  0  0  0
   68.9389   79.0735   90.4997 C   0  0  0  0  0  0  0  0  0  0  0  0
   70.2223   81.1304   89.8405 C   0  0  0  0  0  0  0  0  0  0  0  0
   71.4118   81.8674   89.9745 C   0  0  0  0  0  0  0  0  0  0  0  0
   71.4374   83.2140   89.6034 C   0  0  0  0  0  0  0  0  0  0  0  0
   70.3174   83.8094   89.1162 N   0  0  0  0  0  0  0  0  0  0  0  0
   69.1520   83.1252   88.9750 C   0  0  0  0  0  0  0  0  0  0  0  0
   69.0819   81.7767   89.3327 C   0  0  0  0  0  0  0  0  0  0  0  0
 10 11  2  0  0  0
 11 12  1  0  0  0
 11  2  1  0  0  0
  2  3  2  0  0  0
  3  4  1  0  0  0
  4  1  1  0  0  0
  1 14  1  0  0  0
 14 15  1  0  0  0
 15 16  2  0  0  0
 16 17  1  0  0  0
 17 18  2  0  0  0
 18 19  1  0  0  0
 19 21  1  0  0  0
 21 22  2  0  0  0
 22 23  1  0  0  0
 23 24  2  0  0  0
 24 25  2  0  0  0
 25 26  2  0  0  0
 19 20  2  0  0  0
  4  5  2  0  0  0
  5  6  1  0  0  0
  6  7  2  0  0  0
  7  8  1  0  0  0
  7  2  1  0  0  0
 20 15  1  0  0  0
 26 21  1  0  0  0
 12 13  1  0  0  0
  8  9  1  0  0  0
M  END
> <score>
0.179062

> <minimizedAffinity>
-8.08689

> <CNNscore>
0.6542791128

> <CNNaffinity>
5.3574285507

> <CNN_VS>
3.5052535534

$$$$
HIPS6037


 25 27  0  0  0  0  0  0  0  0999 V2000
   67.4932   79.4640   90.2166 O   0  0  0  0  0  0  0  0  0  0  0  0
   69.1953   76.2996   91.1317 C   0  0  0  0  0  0  0  0  0  0  0  0
   68.8555   77.6619   91.0414 C   0  0  0  0  0  0  0  0  0  0  0  0
   67.7775   78.0892   90.2593 C   0  0  0  0  0  0  0  0  0  0  0  0
   67.0200   77.1366   89.5576 C   0  0  0  0  0  0  0  0  0  0  0  0
   67.3584   75.7845   89.6219 C   0  0  0  0  0  0  0  0  0  0  0  0
   68.4512   75.3560   90.3825 C   0  0  0  0  0  0  0  0  0  0  0  0
   68.7832   74.0003   90.3386 O   0  0  0  0  0  0  0  0  0  0  0  0
   68.2652   73.4073   89.8306 H   0  0  0  0  0  0  0  0  0  0  0  0
   70.2135   74.8304   92.6959 O   0  0  0  0  0  0  0  0  0  0  0  0
   70.2958   75.9019   92.0366 C   0  0  0  0  0  0  0  0  0  0  0  0
   71.4536   76.6693   92.1243 O   0  0  0  0  0  0  0  0  0  0  0  0
   71.5247   77.4673   91.6384 H   0  0  0  0  0  0  0  0  0  0  0  0
   66.7884   80.1290   89.1672 C   0  0  0  0  0  0  0  0  0  0  0  0
   67.6402   81.2057   88.5470 C   0  0  0  0  0  0  0  0  0  0  0  0
   67.1651   81.9470   87.4559 C   0  0  0  0  0  0  0  0  0  0  0  0
   67.9565   82.9459   86.8883 C   0  0  0  0  0  0  0  0  0  0  0  0
   69.2236   83.2204   87.4078 C   0  0  0  0  0  0  0  0  0  0  0  0
   69.7157   82.4990   88.5116 C   0  0  0  0  0  0  0  0  0  0  0  0
   68.9082   81.4938   89.0781 C   0  0  0  0  0  0  0  0  0  0  0  0
   71.0625   82.7927   89.0671 C   0  0  0  0  0  0  0  0  0  0  0  0
   71.9501   83.7631   88.6349 C   0  0  0  0  0  0  0  0  0  0  0  0
   73.0583   83.6521   89.4474 C   0  0  0  0  0  0  0  0  0  0  0  0
   72.8744   82.6888   90.3197 O   0  0  0  0  0  0  0  0  0  0  0  0
   71.6924   82.1525   90.1226 C   0  0  0  0  0  0  0  0  0  0  0  0
 10 11  2  0  0  0
 11 12  1  0  0  0
 11  2  1  0  0  0
  2  3  2  0  0  0
  3  4  1  0  0  0
  4  1  1  0  0  0
  1 14  1  0  0  0
 14 15  1  0  0  0
 15 16  2  0  0  0
 16 17  1  0  0  0
 17 18  2  0  0  0
 18 19  1  0  0  0
 19 21  1  0  0  0
 21 22  1  0  0  0
 22 23  2  0  0  0
 23 24  1  0  0  0
 24 25  1  0  0  0
 19 20  2  0  0  0
  4  5  2  0  0  0
  5  6  1  0  0  0
  6  7  2  0  0  0
  7  8  1  0  0  0
  7  2  1  0  0  0
 20 15  1  0  0  0
 25 21  2  0  0  0
 12 13  1  0  0  0
  8  9  1  0  0  0
M  END
> <score>
0.033665

> <minimizedAffinity>
-7.01484

> <CNNscore>
0.7369838953

> <CNNaffinity>
5.4990158081

> <CNN_VS>
4.0526862144

$$$$
HIPS6037


 25 27  0  0  0  0  0  0  0  0999 V2000
   68.2213   79.6074   89.3194 O   0  0  0  0  0  0  0  0  0  0  0  0
   70.8221   77.4551   90.8529 C   0  0  0  0  0  0  0  0  0  0  0  0
   70.1799   78.4267   90.0636 C   0  0  0  0  0  0  0  0  0  0  0  0
   68.7962   78.6182   90.1341 C   0  0  0  0  0  0  0  0  0  0  0  0
   68.0390   77.8274   91.0146 C   0  0  0  0  0  0  0  0  0  0  0  0
   68.6602   76.8464   91.7881 C   0  0  0  0  0  0  0  0  0  0  0  0
   70.0400   76.6345   91.7016 C   0  0  0  0  0  0  0  0  0  0  0  0
   70.5849   75.5836   92.4424 O   0  0  0  0  0  0  0  0  0  0  0  0
   70.0335   75.0633   92.9930 H   0  0  0  0  0  0  0  0  0  0  0  0
   72.9430   76.9561   91.7989 O   0  0  0  0  0  0  0  0  0  0  0  0
   72.2966   77.3539   90.7920 C   0  0  0  0  0  0  0  0  0  0  0  0
   72.9783   77.6360   89.6119 O   0  0  0  0  0  0  0  0  0  0  0  0
   72.5072   77.9321   88.8580 H   0  0  0  0  0  0  0  0  0  0  0  0
   67.8343   80.9121   89.7534 C   0  0  0  0  0  0  0  0  0  0  0  0
   68.1552   81.9440   88.7037 C   0  0  0  0  0  0  0  0  0  0  0  0
   67.3219   82.1049   87.5877 C   0  0  0  0  0  0  0  0  0  0  0  0
   67.6215   83.0651   86.6210 C   0  0  0  0  0  0  0  0  0  0  0  0
   68.7484   83.8783   86.7620 C   0  0  0  0  0  0  0  0  0  0  0  0
   69.5915   83.7445   87.8811 C   0  0  0  0  0  0  0  0  0  0  0  0
   69.2791   82.7733   88.8519 C   0  0  0  0  0  0  0  0  0  0  0  0
   70.7888   84.6117   88.0335 C   0  0  0  0  0  0  0  0  0  0  0  0
   70.8299   85.9944   87.9820 C   0  0  0  0  0  0  0  0  0  0  0  0
   72.1506   86.3417   88.1711 C   0  0  0  0  0  0  0  0  0  0  0  0
   72.8756   85.2594   88.3305 O   0  0  0  0  0  0  0  0  0  0  0  0
   72.0954   84.2062   88.2544 C   0  0  0  0  0  0  0  0  0  0  0  0
 10 11  2  0  0  0
 11 12  1  0  0  0
 11  2  1  0  0  0
  2  3  2  0  0  0
  3  4  1  0  0  0
  4  1  1  0  0  0
  1 14  1  0  0  0
 14 15  1  0  0  0
 15 16  2  0  0  0
 16 17  1  0  0  0
 17 18  2  0  0  0
 18 19  1  0  0  0
 19 21  1  0  0  0
 21 22  1  0  0  0
 22 23  2  0  0  0
 23 24  1  0  0  0
 24 25  1  0  0  0
 19 20  2  0  0  0
  4  5  2  0  0  0
  5  6  1  0  0  0
  6  7  2  0  0  0
  7  8  1  0  0  0
  7  2  1  0  0  0
 20 15  1  0  0  0
 25 21  2  0  0  0
 12 13  1  0  0  0
  8  9  1  0  0  0
M  END
> <score>
0.033665

> <minimizedAffinity>
-6.81915

> <CNNscore>
0.7316541672

> <CNNaffinity>
5.5006332397

> <CNN_VS>
4.0245614052

$$$$
HIPS6037


 25 27  0  0  0  0  0  0  0  0999 V2000
   66.9900   76.5964   91.8875 O   0  0  0  0  0  0  0  0  0  0  0  0
   68.1428   74.1630   94.4366 C   0  0  0  0  0  0  0  0  0  0  0  0
   68.0922   74.9943   93.3027 C   0  0  0  0  0  0  0  0  0  0  0  0
   66.9720   75.7885   93.0363 C   0  0  0  0  0  0  0  0  0  0  0  0
   65.8827   75.7562   93.9230 C   0  0  0  0  0  0  0  0  0  0  0  0
   65.9113   74.9211   95.0403 C   0  0  0  0  0  0  0  0  0  0  0  0
   67.0190   74.1064   95.2963 C   0  0  0  0  0  0  0  0  0  0  0  0
   66.9487   73.2359   96.3860 O   0  0  0  0  0  0  0  0  0  0  0  0
   66.1869   73.2286   96.9315 H   0  0  0  0  0  0  0  0  0  0  0  0
   69.5207   72.7849   95.7947 O   0  0  0  0  0  0  0  0  0  0  0  0
   69.3854   73.4071   94.7065 C   0  0  0  0  0  0  0  0  0  0  0  0
   70.3875   73.3239   93.7442 O   0  0  0  0  0  0  0  0  0  0  0  0
   70.2965   73.7825   92.9321 H   0  0  0  0  0  0  0  0  0  0  0  0
   67.0757   78.0221   91.8822 C   0  0  0  0  0  0  0  0  0  0  0  0
   66.9530   78.5618   90.4810 C   0  0  0  0  0  0  0  0  0  0  0  0
   66.6809   79.9200   90.2643 C   0  0  0  0  0  0  0  0  0  0  0  0
   66.5727   80.4152   88.9645 C   0  0  0  0  0  0  0  0  0  0  0  0
   66.7430   79.5639   87.8704 C   0  0  0  0  0  0  0  0  0  0  0  0
   67.0309   78.1998   88.0635 C   0  0  0  0  0  0  0  0  0  0  0  0
   67.1396   77.7104   89.3796 C   0  0  0  0  0  0  0  0  0  0  0  0
   67.2156   77.2940   86.8998 C   0  0  0  0  0  0  0  0  0  0  0  0
   67.8583   77.5855   85.7089 C   0  0  0  0  0  0  0  0  0  0  0  0
   67.7717   76.4433   84.9419 C   0  0  0  0  0  0  0  0  0  0  0  0
   67.1271   75.5115   85.6045 O   0  0  0  0  0  0  0  0  0  0  0  0
   66.7794   75.9841   86.7790 C   0  0  0  0  0  0  0  0  0  0  0  0
 10 11  2  0  0  0
 11 12  1  0  0  0
 11  2  1  0  0  0
  2  3  2  0  0  0
  3  4  1  0  0  0
  4  1  1  0  0  0
  1 14  1  0  0  0
 14 15  1  0  0  0
 15 16  2  0  0  0
 16 17  1  0  0  0
 17 18  2  0  0  0
 18 19  1  0  0  0
 19 21  1  0  0  0
 21 22  1  0  0  0
 22 23  2  0  0  0
 23 24  1  0  0  0
 24 25  1  0  0  0
 19 20  2  0  0  0
  4  5  2  0  0  0
  5  6  1  0  0  0
  6  7  2  0  0  0
  7  8  1  0  0  0
  7  2  1  0  0  0
 20 15  1  0  0  0
 25 21  2  0  0  0
 12 13  1  0  0  0
  8  9  1  0  0  0
M  END
> <score>
0.033665

> <minimizedAffinity>
-7.51442

> <CNNscore>
0.7079125643

> <CNNaffinity>
5.3993358612

> <CNN_VS>
3.8222577572

$$$$
HIPS6063


 30 33  0  0  0  0  0  0  0  0999 V2000
   66.9761   80.0891   89.3427 C   0  0  0  0  0  0  0  0  0  0  0  0
   66.2231   80.5919   90.4155 C   0  0  0  0  0  0  0  0  0  0  0  0
   66.3826   81.9174   90.8290 C   0  0  0  0  0  0  0  0  0  0  0  0
   67.2749   82.7588   90.1598 C   0  0  0  0  0  0  0  0  0  0  0  0
   68.0126   82.2767   89.0694 C   0  0  0  0  0  0  0  0  0  0  0  0
   67.8773   80.9360   88.6788 C   0  0  0  0  0  0  0  0  0  0  0  0
   68.9228   83.1751   88.3291 C   0  0  0  0  0  0  0  0  0  0  0  0
   68.3992   83.9480   87.2833 C   0  0  0  0  0  0  0  0  0  0  0  0
   69.2234   84.8391   86.5966 C   0  0  0  0  0  0  0  0  0  0  0  0
   70.5333   84.9566   86.9326 N   0  0  0  0  0  0  0  0  0  0  0  0
   71.0881   84.2168   87.9290 C   0  0  0  0  0  0  0  0  0  0  0  0
   72.4478   84.3647   88.2261 C   0  0  0  0  0  0  0  0  0  0  0  0
   73.0359   83.5894   89.2276 C   0  0  0  0  0  0  0  0  0  0  0  0
   72.2712   82.6588   89.9331 C   0  0  0  0  0  0  0  0  0  0  0  0
   70.9098   82.5088   89.6549 C   0  0  0  0  0  0  0  0  0  0  0  0
   70.2960   83.2931   88.6556 C   0  0  0  0  0  0  0  0  0  0  0  0
   66.7539   78.6791   88.8658 C   0  0  0  0  0  0  0  0  0  0  0  0
   68.0084   78.0380   88.6293 O   0  0  0  0  0  0  0  0  0  0  0  0
   69.7116   76.4369   91.5614 C   0  0  0  0  0  0  0  0  0  0  0  0
   68.7472   76.7100   90.5731 C   0  0  0  0  0  0  0  0  0  0  0  0
   68.9569   77.7194   89.6153 C   0  0  0  0  0  0  0  0  0  0  0  0
   70.1573   78.4326   89.6297 C   0  0  0  0  0  0  0  0  0  0  0  0
   71.1236   78.1739   90.6016 C   0  0  0  0  0  0  0  0  0  0  0  0
   70.9093   77.1872   91.5732 C   0  0  0  0  0  0  0  0  0  0  0  0
   71.8843   76.9602   92.5446 O   0  0  0  0  0  0  0  0  0  0  0  0
   72.6744   77.4641   92.5421 H   0  0  0  0  0  0  0  0  0  0  0  0
   70.2996   74.4870   92.8149 O   0  0  0  0  0  0  0  0  0  0  0  0
   69.4410   75.3750   92.5643 C   0  0  0  0  0  0  0  0  0  0  0  0
   68.2285   75.3541   93.2495 O   0  0  0  0  0  0  0  0  0  0  0  0
   67.5801   76.0074   93.0744 H   0  0  0  0  0  0  0  0  0  0  0  0
 27 28  2  0  0  0
 28 29  1  0  0  0
 28 19  1  0  0  0
 19 20  2  0  0  0
 20 21  1  0  0  0
 21 18  1  0  0  0
 18 17  1  0  0  0
 17  1  1  0  0  0
  1  2  2  0  0  0
  2  3  1  0  0  0
  3  4  2  0  0  0
  4  5  1  0  0  0
  5  7  1  0  0  0
  7  8  2  0  0  0
  8  9  1  0  0  0
  9 10  2  0  0  0
 10 11  2  0  0  0
 11 12  2  0  0  0
 12 13  1  0  0  0
 13 14  2  0  0  0
 14 15  1  0  0  0
 15 16  2  0  0  0
  5  6  2  0  0  0
 21 22  2  0  0  0
 22 23  1  0  0  0
 23 24  2  0  0  0
 24 25  1  0  0  0
 24 19  1  0  0  0
  6  1  1  0  0  0
 16  7  1  0  0  0
 16 11  1  0  0  0
 29 30  1  0  0  0
 25 26  1  0  0  0
M  END
> <score>
0.202318

> <minimizedAffinity>
-8.80549

> <CNNscore>
0.8668252826

> <CNNaffinity>
6.4732923508

> <CNN_VS>
5.6112136841

$$$$
HIPS6063


 30 33  0  0  0  0  0  0  0  0999 V2000
   66.3417   80.1129   90.4424 C   0  0  0  0  0  0  0  0  0  0  0  0
   66.1359   79.0269   89.5772 C   0  0  0  0  0  0  0  0  0  0  0  0
   66.6272   79.0643   88.2693 C   0  0  0  0  0  0  0  0  0  0  0  0
   67.3498   80.1734   87.8225 C   0  0  0  0  0  0  0  0  0  0  0  0
   67.5860   81.2528   88.6855 C   0  0  0  0  0  0  0  0  0  0  0  0
   67.0612   81.2286   89.9864 C   0  0  0  0  0  0  0  0  0  0  0  0
   68.3892   82.4077   88.2327 C   0  0  0  0  0  0  0  0  0  0  0  0
   67.8179   83.3062   87.3208 C   0  0  0  0  0  0  0  0  0  0  0  0
   68.5340   84.4305   86.9106 C   0  0  0  0  0  0  0  0  0  0  0  0
   69.7855   84.6551   87.3859 N   0  0  0  0  0  0  0  0  0  0  0  0
   70.3853   83.8035   88.2593 C   0  0  0  0  0  0  0  0  0  0  0  0
   71.6836   84.0729   88.7077 C   0  0  0  0  0  0  0  0  0  0  0  0
   72.3215   83.1905   89.5820 C   0  0  0  0  0  0  0  0  0  0  0  0
   71.6691   82.0324   90.0082 C   0  0  0  0  0  0  0  0  0  0  0  0
   70.3683   81.7566   89.5777 C   0  0  0  0  0  0  0  0  0  0  0  0
   69.7035   82.6436   88.7048 C   0  0  0  0  0  0  0  0  0  0  0  0
   65.8619   80.0387   91.8669 C   0  0  0  0  0  0  0  0  0  0  0  0
   66.8662   79.4469   92.6926 O   0  0  0  0  0  0  0  0  0  0  0  0
   68.1785   75.9415   92.9195 C   0  0  0  0  0  0  0  0  0  0  0  0
   68.1138   77.3189   92.6371 C   0  0  0  0  0  0  0  0  0  0  0  0
   66.9784   78.0763   92.9798 C   0  0  0  0  0  0  0  0  0  0  0  0
   65.9187   77.4529   93.6417 C   0  0  0  0  0  0  0  0  0  0  0  0
   65.9672   76.0891   93.9297 C   0  0  0  0  0  0  0  0  0  0  0  0
   67.0847   75.3248   93.5682 C   0  0  0  0  0  0  0  0  0  0  0  0
   67.1005   73.9592   93.8522 O   0  0  0  0  0  0  0  0  0  0  0  0
   66.3693   73.5616   94.2826 H   0  0  0  0  0  0  0  0  0  0  0  0
   70.5386   75.6804   92.6351 O   0  0  0  0  0  0  0  0  0  0  0  0
   69.3887   75.1765   92.5236 C   0  0  0  0  0  0  0  0  0  0  0  0
   69.2648   73.8807   92.0280 O   0  0  0  0  0  0  0  0  0  0  0  0
   68.4168   73.4921   91.9391 H   0  0  0  0  0  0  0  0  0  0  0  0
 27 28  2  0  0  0
 28 29  1  0  0  0
 28 19  1  0  0  0
 19 20  2  0  0  0
 20 21  1  0  0  0
 21 18  1  0  0  0
 18 17  1  0  0  0
 17  1  1  0  0  0
  1  2  2  0  0  0
  2  3  1  0  0  0
  3  4  2  0  0  0
  4  5  1  0  0  0
  5  7  1  0  0  0
  7  8  2  0  0  0
  8  9  1  0  0  0
  9 10  2  0  0  0
 10 11  2  0  0  0
 11 12  2  0  0  0
 12 13  1  0  0  0
 13 14  2  0  0  0
 14 15  1  0  0  0
 15 16  2  0  0  0
  5  6  2  0  0  0
 21 22  2  0  0  0
 22 23  1  0  0  0
 23 24  2  0  0  0
 24 25  1  0  0  0
 24 19  1  0  0  0
  6  1  1  0  0  0
 16  7  1  0  0  0
 16 11  1  0  0  0
 29 30  1  0  0  0
 25 26  1  0  0  0
M  END
> <score>
0.202318

> <minimizedAffinity>
-8.06685

> <CNNscore>
0.7205697894

> <CNNaffinity>
6.1480722427

> <CNN_VS>
4.4301152229

$$$$
HIPS6063


 30 33  0  0  0  0  0  0  0  0999 V2000
   67.8447   79.9513   89.6707 C   0  0  0  0  0  0  0  0  0  0  0  0
   67.0976   80.3530   90.7892 C   0  0  0  0  0  0  0  0  0  0  0  0
   67.5125   81.4424   91.5601 C   0  0  0  0  0  0  0  0  0  0  0  0
   68.6608   82.1556   91.2068 C   0  0  0  0  0  0  0  0  0  0  0  0
   69.4004   81.7816   90.0760 C   0  0  0  0  0  0  0  0  0  0  0  0
   69.0022   80.6658   89.3244 C   0  0  0  0  0  0  0  0  0  0  0  0
   70.5891   82.5608   89.6713 C   0  0  0  0  0  0  0  0  0  0  0  0
   71.8311   82.2297   90.2308 C   0  0  0  0  0  0  0  0  0  0  0  0
   72.9782   82.9164   89.8340 C   0  0  0  0  0  0  0  0  0  0  0  0
   72.8962   83.9094   88.9122 N   0  0  0  0  0  0  0  0  0  0  0  0
   71.7118   84.2750   88.3542 C   0  0  0  0  0  0  0  0  0  0  0  0
   71.6791   85.3161   87.4192 C   0  0  0  0  0  0  0  0  0  0  0  0
   70.4647   85.7204   86.8610 C   0  0  0  0  0  0  0  0  0  0  0  0
   69.2766   85.0917   87.2376 C   0  0  0  0  0  0  0  0  0  0  0  0
   69.2957   84.0432   88.1614 C   0  0  0  0  0  0  0  0  0  0  0  0
   70.5151   83.6127   88.7256 C   0  0  0  0  0  0  0  0  0  0  0  0
   67.3579   78.8155   88.8117 C   0  0  0  0  0  0  0  0  0  0  0  0
   66.7798   77.7959   89.6283 O   0  0  0  0  0  0  0  0  0  0  0  0
   68.9775   75.2918   91.3491 C   0  0  0  0  0  0  0  0  0  0  0  0
   68.3519   76.5120   91.0311 C   0  0  0  0  0  0  0  0  0  0  0  0
   67.4069   76.5924   89.9915 C   0  0  0  0  0  0  0  0  0  0  0  0
   67.0633   75.4334   89.2927 C   0  0  0  0  0  0  0  0  0  0  0  0
   67.6732   74.2163   89.5957 C   0  0  0  0  0  0  0  0  0  0  0  0
   68.6334   74.1353   90.6131 C   0  0  0  0  0  0  0  0  0  0  0  0
   69.2411   72.9093   90.8845 O   0  0  0  0  0  0  0  0  0  0  0  0
   69.0046   72.1495   90.3897 H   0  0  0  0  0  0  0  0  0  0  0  0
   70.6996   76.2613   92.6958 O   0  0  0  0  0  0  0  0  0  0  0  0
   69.9830   75.2560   92.4419 C   0  0  0  0  0  0  0  0  0  0  0  0
   70.1402   74.1041   93.2090 O   0  0  0  0  0  0  0  0  0  0  0  0
   69.6149   73.3485   93.0326 H   0  0  0  0  0  0  0  0  0  0  0  0
 27 28  2  0  0  0
 28 29  1  0  0  0
 28 19  1  0  0  0
 19 20  2  0  0  0
 20 21  1  0  0  0
 21 18  1  0  0  0
 18 17  1  0  0  0
 17  1  1  0  0  0
  1  2  2  0  0  0
  2  3  1  0  0  0
  3  4  2  0  0  0
  4  5  1  0  0  0
  5  7  1  0  0  0
  7  8  2  0  0  0
  8  9  1  0  0  0
  9 10  2  0  0  0
 10 11  2  0  0  0
 11 12  2  0  0  0
 12 13  1  0  0  0
 13 14  2  0  0  0
 14 15  1  0  0  0
 15 16  2  0  0  0
  5  6  2  0  0  0
 21 22  2  0  0  0
 22 23  1  0  0  0
 23 24  2  0  0  0
 24 25  1  0  0  0
 24 19  1  0  0  0
  6  1  1  0  0  0
 16  7  1  0  0  0
 16 11  1  0  0  0
 29 30  1  0  0  0
 25 26  1  0  0  0
M  END
> <score>
0.202318

> <minimizedAffinity>
-8.43327

> <CNNscore>
0.6884279847

> <CNNaffinity>
6.0994329453

> <CNN_VS>
4.1990203857

$$$$
HIPS6066


 34 37  0  0  0  0  0  0  0  0999 V2000
   66.8999   75.8717   88.0505 C   0  0  0  0  0  0  0  0  0  0  0  0
   67.2121   75.9580   86.7150 C   0  0  0  0  0  0  0  0  0  0  0  0
   67.4075   77.1737   86.1024 C   0  0  0  0  0  0  0  0  0  0  0  0
   67.2806   78.3282   86.8710 C   0  0  0  0  0  0  0  0  0  0  0  0
   66.9670   78.2542   88.2098 C   0  0  0  0  0  0  0  0  0  0  0  0
   66.7843   77.0343   88.7710 C   0  0  0  0  0  0  0  0  0  0  0  0
   66.8221   79.5118   88.9760 C   0  0  0  0  0  0  0  0  0  0  0  0
   65.8669   79.5751   89.9533 C   0  0  0  0  0  0  0  0  0  0  0  0
   65.7052   80.7229   90.7178 C   0  0  0  0  0  0  0  0  0  0  0  0
   66.5145   81.8103   90.4919 C   0  0  0  0  0  0  0  0  0  0  0  0
   67.5126   81.7908   89.4963 C   0  0  0  0  0  0  0  0  0  0  0  0
   67.6058   80.6036   88.7772 C   0  0  0  0  0  0  0  0  0  0  0  0
   68.2519   82.8153   89.3098 O   0  0  0  0  0  0  0  0  0  0  0  0
   69.0023   83.8552   89.1204 C   0  0  0  0  0  0  0  0  0  0  0  0
   70.5013   83.6592   89.2539 C   0  0  0  0  0  0  0  0  0  0  0  0
   71.0023   82.7024   90.1133 C   0  0  0  0  0  0  0  0  0  0  0  0
   72.3536   82.4813   90.2752 C   0  0  0  0  0  0  0  0  0  0  0  0
   73.2247   83.2385   89.5578 C   0  0  0  0  0  0  0  0  0  0  0  0
   72.7434   84.2142   88.6805 C   0  0  0  0  0  0  0  0  0  0  0  0
   71.3895   84.4197   88.5328 C   0  0  0  0  0  0  0  0  0  0  0  0
   66.6611   74.5248   88.6280 C   0  0  0  0  0  0  0  0  0  0  0  0
   67.6847   73.8364   89.1394 O   0  0  0  0  0  0  0  0  0  0  0  0
   69.6084   74.6166   92.1285 C   0  0  0  0  0  0  0  0  0  0  0  0
   68.9170   74.7884   90.9501 C   0  0  0  0  0  0  0  0  0  0  0  0
   68.3638   73.7279   90.2861 C   0  0  0  0  0  0  0  0  0  0  0  0
   68.5409   72.4680   90.8728 C   0  0  0  0  0  0  0  0  0  0  0  0
   69.2274   72.3007   92.0442 C   0  0  0  0  0  0  0  0  0  0  0  0
   69.7835   73.3675   92.7107 C   0  0  0  0  0  0  0  0  0  0  0  0
   70.4891   73.2502   93.9011 O   0  0  0  0  0  0  0  0  0  0  0  0
   70.6076   72.4080   94.2944 H   0  0  0  0  0  0  0  0  0  0  0  0
   71.0890   76.4238   92.1782 O   0  0  0  0  0  0  0  0  0  0  0  0
   70.1815   75.7892   92.7720 C   0  0  0  0  0  0  0  0  0  0  0  0
   69.7703   76.2320   94.0000 O   0  0  0  0  0  0  0  0  0  0  0  0
   69.0950   75.7744   94.4610 H   0  0  0  0  0  0  0  0  0  0  0  0
 31 32  2  0  0  0
 32 33  1  0  0  0
 32 23  1  0  0  0
 23 24  2  0  0  0
 24 25  1  0  0  0
 25 22  1  0  0  0
 22 21  1  0  0  0
 21  1  1  0  0  0
  1  2  2  0  0  0
  2  3  1  0  0  0
  3  4  2  0  0  0
  4  5  1  0  0  0
  5  7  1  0  0  0
  7  8  2  0  0  0
  8  9  1  0  0  0
  9 10  2  0  0  0
 10 11  1  0  0  0
 11 13  1  0  0  0
 13 14  1  0  0  0
 14 15  1  0  0  0
 15 16  2  0  0  0
 16 17  1  0  0  0
 17 18  2  0  0  0
 18 19  1  0  0  0
 19 20  2  0  0  0
 11 12  2  0  0  0
  5  6  2  0  0  0
 25 26  2  0  0  0
 26 27  1  0  0  0
 27 28  2  0  0  0
 28 29  1  0  0  0
 28 23  1  0  0  0
  6  1  1  0  0  0
 12  7  1  0  0  0
 20 15  1  0  0  0
 33 34  1  0  0  0
 29 30  1  0  0  0
M  END
> <score>
-0.725974

> <minimizedAffinity>
-9.10015

> <CNNscore>
0.6860662699

> <CNNaffinity>
6.4885387421

> <CNN_VS>
4.4515676498

$$$$
HIPS6066


 34 37  0  0  0  0  0  0  0  0999 V2000
   66.8173   75.3718   87.2963 C   0  0  0  0  0  0  0  0  0  0  0  0
   67.2405   75.3687   85.9889 C   0  0  0  0  0  0  0  0  0  0  0  0
   67.5889   76.5337   85.3463 C   0  0  0  0  0  0  0  0  0  0  0  0
   67.5026   77.7297   86.0548 C   0  0  0  0  0  0  0  0  0  0  0  0
   67.0788   77.7452   87.3648 C   0  0  0  0  0  0  0  0  0  0  0  0
   66.7467   76.5726   87.9575 C   0  0  0  0  0  0  0  0  0  0  0  0
   66.9836   79.0452   88.0653 C   0  0  0  0  0  0  0  0  0  0  0  0
   66.7187   79.0464   89.4074 C   0  0  0  0  0  0  0  0  0  0  0  0
   66.6427   80.2373   90.1173 C   0  0  0  0  0  0  0  0  0  0  0  0
   66.8365   81.4314   89.4653 C   0  0  0  0  0  0  0  0  0  0  0  0
   67.1124   81.4792   88.0835 C   0  0  0  0  0  0  0  0  0  0  0  0
   67.1699   80.2421   87.4500 C   0  0  0  0  0  0  0  0  0  0  0  0
   67.2904   82.6032   87.5040 O   0  0  0  0  0  0  0  0  0  0  0  0
   67.4710   83.7441   86.9157 C   0  0  0  0  0  0  0  0  0  0  0  0
   68.2217   84.8106   87.6917 C   0  0  0  0  0  0  0  0  0  0  0  0
   69.1744   85.5859   87.0620 C   0  0  0  0  0  0  0  0  0  0  0  0
   69.8869   86.5679   87.7168 C   0  0  0  0  0  0  0  0  0  0  0  0
   69.6385   86.7781   89.0363 C   0  0  0  0  0  0  0  0  0  0  0  0
   68.6788   86.0068   89.6977 C   0  0  0  0  0  0  0  0  0  0  0  0
   67.9773   85.0305   89.0255 C   0  0  0  0  0  0  0  0  0  0  0  0
   66.4173   74.0782   87.9057 C   0  0  0  0  0  0  0  0  0  0  0  0
   67.2070   73.5080   88.8191 O   0  0  0  0  0  0  0  0  0  0  0  0
   69.3141   73.3694   91.7831 C   0  0  0  0  0  0  0  0  0  0  0  0
   68.5498   72.9553   90.7152 C   0  0  0  0  0  0  0  0  0  0  0  0
   67.9597   73.8537   89.8688 C   0  0  0  0  0  0  0  0  0  0  0  0
   68.1790   75.2083   90.1512 C   0  0  0  0  0  0  0  0  0  0  0  0
   68.9398   75.6166   91.2123 C   0  0  0  0  0  0  0  0  0  0  0  0
   69.5322   74.7126   92.0628 C   0  0  0  0  0  0  0  0  0  0  0  0
   70.3124   75.0760   93.1527 O   0  0  0  0  0  0  0  0  0  0  0  0
   70.4600   75.9818   93.3420 H   0  0  0  0  0  0  0  0  0  0  0  0
   69.1362   71.6199   93.3220 O   0  0  0  0  0  0  0  0  0  0  0  0
   69.8995   72.3571   92.6491 C   0  0  0  0  0  0  0  0  0  0  0  0
   71.2512   72.1729   92.7599 O   0  0  0  0  0  0  0  0  0  0  0  0
   71.8393   72.7111   92.2676 H   0  0  0  0  0  0  0  0  0  0  0  0
 31 32  2  0  0  0
 32 33  1  0  0  0
 32 23  1  0  0  0
 23 24  2  0  0  0
 24 25  1  0  0  0
 25 22  1  0  0  0
 22 21  1  0  0  0
 21  1  1  0  0  0
  1  2  2  0  0  0
  2  3  1  0  0  0
  3  4  2  0  0  0
  4  5  1  0  0  0
  5  7  1  0  0  0
  7  8  2  0  0  0
  8  9  1  0  0  0
  9 10  2  0  0  0
 10 11  1  0  0  0
 11 13  1  0  0  0
 13 14  1  0  0  0
 14 15  1  0  0  0
 15 16  2  0  0  0
 16 17  1  0  0  0
 17 18  2  0  0  0
 18 19  1  0  0  0
 19 20  2  0  0  0
 11 12  2  0  0  0
  5  6  2  0  0  0
 25 26  2  0  0  0
 26 27  1  0  0  0
 27 28  2  0  0  0
 28 29  1  0  0  0
 28 23  1  0  0  0
  6  1  1  0  0  0
 12  7  1  0  0  0
 20 15  1  0  0  0
 33 34  1  0  0  0
 29 30  1  0  0  0
M  END
> <score>
-0.725974

> <minimizedAffinity>
-8.93809

> <CNNscore>
0.5806342959

> <CNNaffinity>
6.2956209183

> <CNN_VS>
3.6554534435

$$$$
HIPS6066


 34 37  0  0  0  0  0  0  0  0999 V2000
   67.0342   78.8123   90.3622 C   0  0  0  0  0  0  0  0  0  0  0  0
   65.9403   79.5009   89.8958 C   0  0  0  0  0  0  0  0  0  0  0  0
   66.0578   80.7752   89.3920 C   0  0  0  0  0  0  0  0  0  0  0  0
   67.3213   81.3603   89.3645 C   0  0  0  0  0  0  0  0  0  0  0  0
   68.4245   80.6805   89.8302 C   0  0  0  0  0  0  0  0  0  0  0  0
   68.2610   79.4263   90.3169 C   0  0  0  0  0  0  0  0  0  0  0  0
   69.7407   81.3561   89.7991 C   0  0  0  0  0  0  0  0  0  0  0  0
   70.7389   80.8796   90.6041 C   0  0  0  0  0  0  0  0  0  0  0  0
   71.9995   81.4616   90.5956 C   0  0  0  0  0  0  0  0  0  0  0  0
   72.2500   82.5299   89.7683 C   0  0  0  0  0  0  0  0  0  0  0  0
   71.2526   83.0545   88.9211 C   0  0  0  0  0  0  0  0  0  0  0  0
   70.0201   82.4134   88.9930 C   0  0  0  0  0  0  0  0  0  0  0  0
   71.5142   84.0467   88.1609 O   0  0  0  0  0  0  0  0  0  0  0  0
   71.7796   85.0539   87.3892 C   0  0  0  0  0  0  0  0  0  0  0  0
   71.7925   86.4301   88.0290 C   0  0  0  0  0  0  0  0  0  0  0  0
   70.6130   87.0113   88.4489 C   0  0  0  0  0  0  0  0  0  0  0  0
   70.5649   88.2582   89.0353 C   0  0  0  0  0  0  0  0  0  0  0  0
   71.7282   88.9399   89.2051 C   0  0  0  0  0  0  0  0  0  0  0  0
   72.9363   88.3738   88.7887 C   0  0  0  0  0  0  0  0  0  0  0  0
   72.9634   87.1266   88.2049 C   0  0  0  0  0  0  0  0  0  0  0  0
   66.8184   77.4578   90.9310 C   0  0  0  0  0  0  0  0  0  0  0  0
   67.2966   77.1687   92.1438 O   0  0  0  0  0  0  0  0  0  0  0  0
   68.0345   74.4258   94.4189 C   0  0  0  0  0  0  0  0  0  0  0  0
   68.2068   75.3875   93.4486 C   0  0  0  0  0  0  0  0  0  0  0  0
   67.1859   76.2201   93.0796 C   0  0  0  0  0  0  0  0  0  0  0  0
   65.9658   76.0374   93.7436 C   0  0  0  0  0  0  0  0  0  0  0  0
   65.7980   75.0818   94.7079 C   0  0  0  0  0  0  0  0  0  0  0  0
   66.8249   74.2450   95.0778 C   0  0  0  0  0  0  0  0  0  0  0  0
   66.7053   73.2602   96.0497 O   0  0  0  0  0  0  0  0  0  0  0  0
   65.8898   73.1376   96.4946 H   0  0  0  0  0  0  0  0  0  0  0  0
   70.0621   74.0122   95.5045 O   0  0  0  0  0  0  0  0  0  0  0  0
   69.1615   73.5668   94.7499 C   0  0  0  0  0  0  0  0  0  0  0  0
   69.2804   72.2893   94.2735 O   0  0  0  0  0  0  0  0  0  0  0  0
   68.6208   71.9363   93.7093 H   0  0  0  0  0  0  0  0  0  0  0  0
 31 32  2  0  0  0
 32 33  1  0  0  0
 32 23  1  0  0  0
 23 24  2  0  0  0
 24 25  1  0  0  0
 25 22  1  0  0  0
 22 21  1  0  0  0
 21  1  1  0  0  0
  1  2  2  0  0  0
  2  3  1  0  0  0
  3  4  2  0  0  0
  4  5  1  0  0  0
  5  7  1  0  0  0
  7  8  2  0  0  0
  8  9  1  0  0  0
  9 10  2  0  0  0
 10 11  1  0  0  0
 11 13  1  0  0  0
 13 14  1  0  0  0
 14 15  1  0  0  0
 15 16  2  0  0  0
 16 17  1  0  0  0
 17 18  2  0  0  0
 18 19  1  0  0  0
 19 20  2  0  0  0
 11 12  2  0  0  0
  5  6  2  0  0  0
 25 26  2  0  0  0
 26 27  1  0  0  0
 27 28  2  0  0  0
 28 29  1  0  0  0
 28 23  1  0  0  0
  6  1  1  0  0  0
 12  7  1  0  0  0
 20 15  1  0  0  0
 33 34  1  0  0  0
 29 30  1  0  0  0
M  END
> <score>
-0.725974

> <minimizedAffinity>
-8.59380

> <CNNscore>
0.5754745603

> <CNNaffinity>
5.9808254242

> <CNN_VS>
3.4418129921

$$$$
HIPS6091


 22 23  0  0  0  0  0  0  0  0999 V2000
   69.3938   76.3602   91.0324 C   0  0  0  0  0  0  0  0  0  0  0  0
   69.4015   77.7160   90.6569 C   0  0  0  0  0  0  0  0  0  0  0  0
   68.5622   78.1870   89.6300 C   0  0  0  0  0  0  0  0  0  0  0  0
   67.7015   77.2927   88.9906 C   0  0  0  0  0  0  0  0  0  0  0  0
   67.6655   75.9506   89.3684 C   0  0  0  0  0  0  0  0  0  0  0  0
   68.4870   75.4759   90.3960 C   0  0  0  0  0  0  0  0  0  0  0  0
   68.3459   74.1387   90.7739 O   0  0  0  0  0  0  0  0  0  0  0  0
   67.7343   73.5875   90.3267 H   0  0  0  0  0  0  0  0  0  0  0  0
   70.3011   74.7482   92.5373 O   0  0  0  0  0  0  0  0  0  0  0  0
   70.3624   75.9118   92.0578 C   0  0  0  0  0  0  0  0  0  0  0  0
   71.3936   76.7592   92.4546 O   0  0  0  0  0  0  0  0  0  0  0  0
   71.4483   77.6264   92.1041 H   0  0  0  0  0  0  0  0  0  0  0  0
   68.5541   79.5278   89.2109 O   0  0  0  0  0  0  0  0  0  0  0  0
   68.6159   80.6644   90.0738 C   0  0  0  0  0  0  0  0  0  0  0  0
   69.5010   81.7333   89.4889 C   0  0  0  0  0  0  0  0  0  0  0  0
   70.8485   81.8198   89.8749 C   0  0  0  0  0  0  0  0  0  0  0  0
   71.6752   82.8103   89.3336 C   0  0  0  0  0  0  0  0  0  0  0  0
   73.3544   82.9183   89.8290 Cl  0  0  0  0  0  0  0  0  0  0  0  0
   71.1627   83.7148   88.3980 C   0  0  0  0  0  0  0  0  0  0  0  0
   69.8252   83.6274   87.9995 C   0  0  0  0  0  0  0  0  0  0  0  0
   69.1275   84.8619   86.7204 Br  0  0  0  0  0  0  0  0  0  0  0  0
   68.9974   82.6367   88.5383 C   0  0  0  0  0  0  0  0  0  0  0  0
  9 10  2  0  0  0
 10 11  1  0  0  0
 10  1  1  0  0  0
  1  2  2  0  0  0
  2  3  1  0  0  0
  3 13  1  0  0  0
 13 14  1  0  0  0
 14 15  1  0  0  0
 15 16  2  0  0  0
 16 17  1  0  0  0
 17 18  1  0  0  0
 17 19  2  0  0  0
 19 20  1  0  0  0
 20 21  1  0  0  0
 20 22  2  0  0  0
  3  4  2  0  0  0
  4  5  1  0  0  0
  5  6  2  0  0  0
  6  7  1  0  0  0
  6  1  1  0  0  0
 22 15  1  0  0  0
 11 12  1  0  0  0
  7  8  1  0  0  0
M  END
> <score>
-0.478443

> <minimizedAffinity>
-6.73556

> <CNNscore>
0.8686873317

> <CNNaffinity>
5.4568433762

> <CNN_VS>
4.7402906418

$$$$
HIPS6091


 22 23  0  0  0  0  0  0  0  0999 V2000
   68.1869   74.4842   94.7683 C   0  0  0  0  0  0  0  0  0  0  0  0
   68.2695   75.6889   94.0464 C   0  0  0  0  0  0  0  0  0  0  0  0
   67.1506   76.5327   93.9169 C   0  0  0  0  0  0  0  0  0  0  0  0
   65.9498   76.1696   94.5298 C   0  0  0  0  0  0  0  0  0  0  0  0
   65.8595   74.9902   95.2688 C   0  0  0  0  0  0  0  0  0  0  0  0
   66.9693   74.1514   95.4133 C   0  0  0  0  0  0  0  0  0  0  0  0
   66.8299   73.0257   96.2283 O   0  0  0  0  0  0  0  0  0  0  0  0
   66.0067   72.8418   96.6364 H   0  0  0  0  0  0  0  0  0  0  0  0
   70.2502   73.6719   93.8910 O   0  0  0  0  0  0  0  0  0  0  0  0
   69.3732   73.5994   94.7929 C   0  0  0  0  0  0  0  0  0  0  0  0
   69.5595   72.7194   95.8557 O   0  0  0  0  0  0  0  0  0  0  0  0
   68.9135   72.6577   96.5316 H   0  0  0  0  0  0  0  0  0  0  0  0
   67.1852   77.7331   93.1880 O   0  0  0  0  0  0  0  0  0  0  0  0
   66.0722   78.6017   92.9716 C   0  0  0  0  0  0  0  0  0  0  0  0
   66.4525   79.7446   92.0676 C   0  0  0  0  0  0  0  0  0  0  0  0
   66.9674   80.9318   92.6132 C   0  0  0  0  0  0  0  0  0  0  0  0
   67.3234   81.9960   91.7776 C   0  0  0  0  0  0  0  0  0  0  0  0
   67.9558   83.4794   92.4677 Cl  0  0  0  0  0  0  0  0  0  0  0  0
   67.1743   81.8774   90.3920 C   0  0  0  0  0  0  0  0  0  0  0  0
   66.6738   80.6939   89.8403 C   0  0  0  0  0  0  0  0  0  0  0  0
   66.4728   80.5329   87.9480 Br  0  0  0  0  0  0  0  0  0  0  0  0
   66.3190   79.6281   90.6741 C   0  0  0  0  0  0  0  0  0  0  0  0
  9 10  2  0  0  0
 10 11  1  0  0  0
 10  1  1  0  0  0
  1  2  2  0  0  0
  2  3  1  0  0  0
  3 13  1  0  0  0
 13 14  1  0  0  0
 14 15  1  0  0  0
 15 16  2  0  0  0
 16 17  1  0  0  0
 17 18  1  0  0  0
 17 19  2  0  0  0
 19 20  1  0  0  0
 20 21  1  0  0  0
 20 22  2  0  0  0
  3  4  2  0  0  0
  4  5  1  0  0  0
  5  6  2  0  0  0
  6  7  1  0  0  0
  6  1  1  0  0  0
 22 15  1  0  0  0
 11 12  1  0  0  0
  7  8  1  0  0  0
M  END
> <score>
-0.478443

> <minimizedAffinity>
-6.40999

> <CNNscore>
0.8426078558

> <CNNaffinity>
5.3569583893

> <CNN_VS>
4.5138154030

$$$$
HIPS6091


 22 23  0  0  0  0  0  0  0  0999 V2000
   69.6120   75.6517   91.4635 C   0  0  0  0  0  0  0  0  0  0  0  0
   68.6614   76.2213   90.5968 C   0  0  0  0  0  0  0  0  0  0  0  0
   67.7848   75.4109   89.8514 C   0  0  0  0  0  0  0  0  0  0  0  0
   67.8555   74.0235   89.9918 C   0  0  0  0  0  0  0  0  0  0  0  0
   68.7765   73.4454   90.8651 C   0  0  0  0  0  0  0  0  0  0  0  0
   69.6434   74.2431   91.6191 C   0  0  0  0  0  0  0  0  0  0  0  0
   70.4878   73.6029   92.5290 O   0  0  0  0  0  0  0  0  0  0  0  0
   70.4773   72.6687   92.6005 H   0  0  0  0  0  0  0  0  0  0  0  0
   70.6375   76.5741   93.4088 O   0  0  0  0  0  0  0  0  0  0  0  0
   70.5625   76.5541   92.1512 C   0  0  0  0  0  0  0  0  0  0  0  0
   71.4305   77.3460   91.4038 O   0  0  0  0  0  0  0  0  0  0  0  0
   71.3831   77.3385   90.4681 H   0  0  0  0  0  0  0  0  0  0  0  0
   66.8358   75.9385   88.9601 O   0  0  0  0  0  0  0  0  0  0  0  0
   67.1307   76.7550   87.8259 C   0  0  0  0  0  0  0  0  0  0  0  0
   66.9138   78.2111   88.1433 C   0  0  0  0  0  0  0  0  0  0  0  0
   67.4034   79.2008   87.2755 C   0  0  0  0  0  0  0  0  0  0  0  0
   67.2036   80.5549   87.5652 C   0  0  0  0  0  0  0  0  0  0  0  0
   67.8276   81.7850   86.4817 Cl  0  0  0  0  0  0  0  0  0  0  0  0
   66.5068   80.9278   88.7192 C   0  0  0  0  0  0  0  0  0  0  0  0
   66.0056   79.9480   89.5819 C   0  0  0  0  0  0  0  0  0  0  0  0
   65.0527   80.4588   91.1561 Br  0  0  0  0  0  0  0  0  0  0  0  0
   66.2029   78.5935   89.2930 C   0  0  0  0  0  0  0  0  0  0  0  0
  9 10  2  0  0  0
 10 11  1  0  0  0
 10  1  1  0  0  0
  1  2  2  0  0  0
  2  3  1  0  0  0
  3 13  1  0  0  0
 13 14  1  0  0  0
 14 15  1  0  0  0
 15 16  2  0  0  0
 16 17  1  0  0  0
 17 18  1  0  0  0
 17 19  2  0  0  0
 19 20  1  0  0  0
 20 21  1  0  0  0
 20 22  2  0  0  0
  3  4  2  0  0  0
  4  5  1  0  0  0
  5  6  2  0  0  0
  6  7  1  0  0  0
  6  1  1  0  0  0
 22 15  1  0  0  0
 11 12  1  0  0  0
  7  8  1  0  0  0
M  END
> <score>
-0.478443

> <minimizedAffinity>
-6.81216

> <CNNscore>
0.8350592852

> <CNNaffinity>
5.4195404053

> <CNN_VS>
4.5256376266

$$$$
HIPS6092


 22 23  0  0  0  0  0  0  0  0999 V2000
   68.3653   75.6530   93.0047 C   0  0  0  0  0  0  0  0  0  0  0  0
   68.3063   76.9917   92.5746 C   0  0  0  0  0  0  0  0  0  0  0  0
   67.1837   77.7924   92.8560 C   0  0  0  0  0  0  0  0  0  0  0  0
   66.1239   77.2469   93.5835 C   0  0  0  0  0  0  0  0  0  0  0  0
   66.1621   75.9168   94.0023 C   0  0  0  0  0  0  0  0  0  0  0  0
   67.2605   75.1052   93.7008 C   0  0  0  0  0  0  0  0  0  0  0  0
   67.1995   73.7615   94.0764 O   0  0  0  0  0  0  0  0  0  0  0  0
   66.4504   73.4372   94.5363 H   0  0  0  0  0  0  0  0  0  0  0  0
   70.6289   75.4625   92.3100 O   0  0  0  0  0  0  0  0  0  0  0  0
   69.5986   74.8789   92.7433 C   0  0  0  0  0  0  0  0  0  0  0  0
   69.6544   73.5176   93.0278 O   0  0  0  0  0  0  0  0  0  0  0  0
   68.8941   73.0748   93.3502 H   0  0  0  0  0  0  0  0  0  0  0  0
   67.0820   79.1301   92.4396 O   0  0  0  0  0  0  0  0  0  0  0  0
   66.0325   79.6674   91.6332 C   0  0  0  0  0  0  0  0  0  0  0  0
   66.4377   79.7051   90.1833 C   0  0  0  0  0  0  0  0  0  0  0  0
   66.5086   78.5216   89.4298 C   0  0  0  0  0  0  0  0  0  0  0  0
   66.8824   78.5652   88.0824 C   0  0  0  0  0  0  0  0  0  0  0  0
   66.9595   76.9535   87.0610 Br  0  0  0  0  0  0  0  0  0  0  0  0
   67.1976   79.7886   87.4829 C   0  0  0  0  0  0  0  0  0  0  0  0
   67.1423   80.9694   88.2300 C   0  0  0  0  0  0  0  0  0  0  0  0
   67.5771   82.6388   87.4107 Br  0  0  0  0  0  0  0  0  0  0  0  0
   66.7671   80.9282   89.5770 C   0  0  0  0  0  0  0  0  0  0  0  0
  9 10  2  0  0  0
 10 11  1  0  0  0
 10  1  1  0  0  0
  1  2  2  0  0  0
  2  3  1  0  0  0
  3 13  1  0  0  0
 13 14  1  0  0  0
 14 15  1  0  0  0
 15 16  2  0  0  0
 16 17  1  0  0  0
 17 18  1  0  0  0
 17 19  2  0  0  0
 19 20  1  0  0  0
 20 21  1  0  0  0
 20 22  2  0  0  0
  3  4  2  0  0  0
  4  5  1  0  0  0
  5  6  2  0  0  0
  6  7  1  0  0  0
  6  1  1  0  0  0
 22 15  1  0  0  0
 11 12  1  0  0  0
  7  8  1  0  0  0
M  END
> <score>
-0.343137

> <minimizedAffinity>
-5.86102

> <CNNscore>
0.8742599487

> <CNNaffinity>
5.5256109238

> <CNN_VS>
4.8308205605

$$$$
HIPS6092


 22 23  0  0  0  0  0  0  0  0999 V2000
   69.2962   72.9676   91.6932 C   0  0  0  0  0  0  0  0  0  0  0  0
   68.3701   72.3634   90.8228 C   0  0  0  0  0  0  0  0  0  0  0  0
   67.6500   73.1304   89.8881 C   0  0  0  0  0  0  0  0  0  0  0  0
   67.8732   74.5073   89.8215 C   0  0  0  0  0  0  0  0  0  0  0  0
   68.7765   75.1217   90.6889 C   0  0  0  0  0  0  0  0  0  0  0  0
   69.4739   74.3715   91.6413 C   0  0  0  0  0  0  0  0  0  0  0  0
   70.2998   75.0586   92.5336 O   0  0  0  0  0  0  0  0  0  0  0  0
   70.3909   75.9887   92.4662 H   0  0  0  0  0  0  0  0  0  0  0  0
   70.9349   72.6154   93.3766 O   0  0  0  0  0  0  0  0  0  0  0  0
   70.0770   72.1046   92.6065 C   0  0  0  0  0  0  0  0  0  0  0  0
   69.8332   70.7357   92.6692 O   0  0  0  0  0  0  0  0  0  0  0  0
   69.1977   70.3465   92.1012 H   0  0  0  0  0  0  0  0  0  0  0  0
   66.7122   72.5680   89.0064 O   0  0  0  0  0  0  0  0  0  0  0  0
   66.5486   72.9279   87.6338 C   0  0  0  0  0  0  0  0  0  0  0  0
   66.8730   71.7651   86.7334 C   0  0  0  0  0  0  0  0  0  0  0  0
   66.2337   71.6233   85.4906 C   0  0  0  0  0  0  0  0  0  0  0  0
   66.5430   70.5423   84.6582 C   0  0  0  0  0  0  0  0  0  0  0  0
   65.6818   70.3666   82.9628 Br  0  0  0  0  0  0  0  0  0  0  0  0
   67.4837   69.5915   85.0664 C   0  0  0  0  0  0  0  0  0  0  0  0
   68.1143   69.7186   86.3080 C   0  0  0  0  0  0  0  0  0  0  0  0
   69.3958   68.4171   86.8656 Br  0  0  0  0  0  0  0  0  0  0  0  0
   67.8078   70.7998   87.1411 C   0  0  0  0  0  0  0  0  0  0  0  0
  9 10  2  0  0  0
 10 11  1  0  0  0
 10  1  1  0  0  0
  1  2  2  0  0  0
  2  3  1  0  0  0
  3 13  1  0  0  0
 13 14  1  0  0  0
 14 15  1  0  0  0
 15 16  2  0  0  0
 16 17  1  0  0  0
 17 18  1  0  0  0
 17 19  2  0  0  0
 19 20  1  0  0  0
 20 21  1  0  0  0
 20 22  2  0  0  0
  3  4  2  0  0  0
  4  5  1  0  0  0
  5  6  2  0  0  0
  6  7  1  0  0  0
  6  1  1  0  0  0
 22 15  1  0  0  0
 11 12  1  0  0  0
  7  8  1  0  0  0
M  END
> <score>
-0.343137

> <minimizedAffinity>
-7.49739

> <CNNscore>
0.8352525234

> <CNNaffinity>
5.2853488922

> <CNN_VS>
4.4146008492

$$$$
HIPS6092


 22 23  0  0  0  0  0  0  0  0999 V2000
   70.1124   76.6032   91.8997 C   0  0  0  0  0  0  0  0  0  0  0  0
   68.9856   76.8022   91.0806 C   0  0  0  0  0  0  0  0  0  0  0  0
   69.0489   77.6478   89.9573 C   0  0  0  0  0  0  0  0  0  0  0  0
   70.2538   78.2839   89.6515 C   0  0  0  0  0  0  0  0  0  0  0  0
   71.3742   78.1083   90.4638 C   0  0  0  0  0  0  0  0  0  0  0  0
   71.3116   77.2938   91.5991 C   0  0  0  0  0  0  0  0  0  0  0  0
   72.4430   77.2265   92.4150 O   0  0  0  0  0  0  0  0  0  0  0  0
   73.2179   77.6986   92.1812 H   0  0  0  0  0  0  0  0  0  0  0  0
   70.2063   74.4191   92.8290 O   0  0  0  0  0  0  0  0  0  0  0  0
   70.0099   75.6490   93.0255 C   0  0  0  0  0  0  0  0  0  0  0  0
   69.7568   76.1015   94.3172 O   0  0  0  0  0  0  0  0  0  0  0  0
   69.6096   77.0136   94.4736 H   0  0  0  0  0  0  0  0  0  0  0  0
   67.9463   77.8787   89.1182 O   0  0  0  0  0  0  0  0  0  0  0  0
   66.7730   78.6101   89.4772 C   0  0  0  0  0  0  0  0  0  0  0  0
   67.0803   80.0773   89.6215 C   0  0  0  0  0  0  0  0  0  0  0  0
   67.2115   80.6585   90.8936 C   0  0  0  0  0  0  0  0  0  0  0  0
   67.5005   82.0215   91.0193 C   0  0  0  0  0  0  0  0  0  0  0  0
   67.6941   82.7999   92.7525 Br  0  0  0  0  0  0  0  0  0  0  0  0
   67.6495   82.8136   89.8766 C   0  0  0  0  0  0  0  0  0  0  0  0
   67.5072   82.2450   88.6070 C   0  0  0  0  0  0  0  0  0  0  0  0
   67.7070   83.3290   87.0475 Br  0  0  0  0  0  0  0  0  0  0  0  0
   67.2198   80.8819   88.4790 C   0  0  0  0  0  0  0  0  0  0  0  0
  9 10  2  0  0  0
 10 11  1  0  0  0
 10  1  1  0  0  0
  1  2  2  0  0  0
  2  3  1  0  0  0
  3 13  1  0  0  0
 13 14  1  0  0  0
 14 15  1  0  0  0
 15 16  2  0  0  0
 16 17  1  0  0  0
 17 18  1  0  0  0
 17 19  2  0  0  0
 19 20  1  0  0  0
 20 21  1  0  0  0
 20 22  2  0  0  0
  3  4  2  0  0  0
  4  5  1  0  0  0
  5  6  2  0  0  0
  6  7  1  0  0  0
  6  1  1  0  0  0
 22 15  1  0  0  0
 11 12  1  0  0  0
  7  8  1  0  0  0
M  END
> <score>
-0.343137

> <minimizedAffinity>
-6.17396

> <CNNscore>
0.8018796444

> <CNNaffinity>
5.3445892334

> <CNN_VS>
4.2857174873

$$$$
HIPS6101


 33 36  0  0  0  0  0  0  0  0999 V2000
   67.0745   75.6637   86.9195 C   0  0  0  0  0  0  0  0  0  0  0  0
   67.4495   75.7332   85.5701 C   0  0  0  0  0  0  0  0  0  0  0  0
   67.7745   76.9625   84.9935 C   0  0  0  0  0  0  0  0  0  0  0  0
   67.7408   78.1293   85.7604 C   0  0  0  0  0  0  0  0  0  0  0  0
   67.3833   78.0788   87.1198 C   0  0  0  0  0  0  0  0  0  0  0  0
   67.0564   76.8355   87.6929 C   0  0  0  0  0  0  0  0  0  0  0  0
   67.3560   79.3171   87.9391 C   0  0  0  0  0  0  0  0  0  0  0  0
   67.1734   80.5718   87.3305 C   0  0  0  0  0  0  0  0  0  0  0  0
   67.1588   81.7362   88.1016 C   0  0  0  0  0  0  0  0  0  0  0  0
   67.3156   81.6634   89.4868 C   0  0  0  0  0  0  0  0  0  0  0  0
   67.4765   80.4167   90.1153 C   0  0  0  0  0  0  0  0  0  0  0  0
   67.5140   79.2542   89.3362 C   0  0  0  0  0  0  0  0  0  0  0  0
   67.6482   80.3024   91.5028 O   0  0  0  0  0  0  0  0  0  0  0  0
   66.9511   79.4179   92.3395 C   0  0  0  0  0  0  0  0  0  0  0  0
   67.4393   78.1144   92.4960 C   0  0  0  0  0  0  0  0  0  0  0  0
   66.7654   77.1996   93.3112 C   0  0  0  0  0  0  0  0  0  0  0  0
   65.5908   77.5789   93.9661 C   0  0  0  0  0  0  0  0  0  0  0  0
   65.0843   78.8708   93.7999 C   0  0  0  0  0  0  0  0  0  0  0  0
   65.7557   79.7874   92.9848 C   0  0  0  0  0  0  0  0  0  0  0  0
   66.7708   74.3376   87.5528 C   0  0  0  0  0  0  0  0  0  0  0  0
   66.6733   74.5060   88.9643 O   0  0  0  0  0  0  0  0  0  0  0  0
   69.4460   74.6883   91.4809 C   0  0  0  0  0  0  0  0  0  0  0  0
   68.4516   75.0922   90.5669 C   0  0  0  0  0  0  0  0  0  0  0  0
   67.6712   74.1421   89.8808 C   0  0  0  0  0  0  0  0  0  0  0  0
   67.8897   72.7829   90.1127 C   0  0  0  0  0  0  0  0  0  0  0  0
   68.8695   72.3671   91.0132 C   0  0  0  0  0  0  0  0  0  0  0  0
   69.6501   73.3068   91.7003 C   0  0  0  0  0  0  0  0  0  0  0  0
   70.6217   72.8611   92.5963 O   0  0  0  0  0  0  0  0  0  0  0  0
   70.7471   71.9426   92.7328 H   0  0  0  0  0  0  0  0  0  0  0  0
   71.0649   76.4388   91.5504 O   0  0  0  0  0  0  0  0  0  0  0  0
   70.2517   75.7176   92.1898 C   0  0  0  0  0  0  0  0  0  0  0  0
   70.1252   75.9040   93.5637 O   0  0  0  0  0  0  0  0  0  0  0  0
   69.5258   75.3772   94.0547 H   0  0  0  0  0  0  0  0  0  0  0  0
 30 31  2  0  0  0
 31 32  1  0  0  0
 31 22  1  0  0  0
 22 23  2  0  0  0
 23 24  1  0  0  0
 24 21  1  0  0  0
 21 20  1  0  0  0
 20  1  1  0  0  0
  1  2  2  0  0  0
  2  3  1  0  0  0
  3  4  2  0  0  0
  4  5  1  0  0  0
  5  7  1  0  0  0
  7  8  2  0  0  0
  8  9  1  0  0  0
  9 10  2  0  0  0
 10 11  1  0  0  0
 11 13  1  0  0  0
 13 14  1  0  0  0
 14 15  2  0  0  0
 15 16  1  0  0  0
 16 17  2  0  0  0
 17 18  1  0  0  0
 18 19  2  0  0  0
 11 12  2  0  0  0
  5  6  2  0  0  0
 24 25  2  0  0  0
 25 26  1  0  0  0
 26 27  2  0  0  0
 27 28  1  0  0  0
 27 22  1  0  0  0
  6  1  1  0  0  0
 12  7  1  0  0  0
 19 14  1  0  0  0
 32 33  1  0  0  0
 28 29  1  0  0  0
M  END
> <score>
-0.106651

> <minimizedAffinity>
-8.48593

> <CNNscore>
0.7176125050

> <CNNaffinity>
6.8161706924

> <CNN_VS>
4.8913693428

$$$$
HIPS6101


 33 36  0  0  0  0  0  0  0  0999 V2000
   66.8730   79.9241   90.4905 C   0  0  0  0  0  0  0  0  0  0  0  0
   66.0907   79.9173   89.3266 C   0  0  0  0  0  0  0  0  0  0  0  0
   66.5110   80.6161   88.1934 C   0  0  0  0  0  0  0  0  0  0  0  0
   67.7198   81.3158   88.2072 C   0  0  0  0  0  0  0  0  0  0  0  0
   68.5271   81.3213   89.3590 C   0  0  0  0  0  0  0  0  0  0  0  0
   68.0955   80.6149   90.4973 C   0  0  0  0  0  0  0  0  0  0  0  0
   69.8171   82.0569   89.3724 C   0  0  0  0  0  0  0  0  0  0  0  0
   70.8665   81.6424   90.2119 C   0  0  0  0  0  0  0  0  0  0  0  0
   72.0752   82.3421   90.2309 C   0  0  0  0  0  0  0  0  0  0  0  0
   72.2556   83.4550   89.4077 C   0  0  0  0  0  0  0  0  0  0  0  0
   71.2265   83.8705   88.5455 C   0  0  0  0  0  0  0  0  0  0  0  0
   70.0084   83.1805   88.5468 C   0  0  0  0  0  0  0  0  0  0  0  0
   71.3646   84.9900   87.7114 O   0  0  0  0  0  0  0  0  0  0  0  0
   71.5306   86.3136   88.1457 C   0  0  0  0  0  0  0  0  0  0  0  0
   72.8228   86.8530   88.1803 C   0  0  0  0  0  0  0  0  0  0  0  0
   73.0306   88.1643   88.6193 C   0  0  0  0  0  0  0  0  0  0  0  0
   71.9478   88.9416   89.0390 C   0  0  0  0  0  0  0  0  0  0  0  0
   70.6572   88.4055   89.0280 C   0  0  0  0  0  0  0  0  0  0  0  0
   70.4466   87.0943   88.5900 C   0  0  0  0  0  0  0  0  0  0  0  0
   66.4461   79.1350   91.6934 C   0  0  0  0  0  0  0  0  0  0  0  0
   67.5626   78.4037   92.1921 O   0  0  0  0  0  0  0  0  0  0  0  0
   68.4273   75.1291   93.7994 C   0  0  0  0  0  0  0  0  0  0  0  0
   68.5575   76.3232   93.0614 C   0  0  0  0  0  0  0  0  0  0  0  0
   67.4710   77.2071   92.9186 C   0  0  0  0  0  0  0  0  0  0  0  0
   66.2503   76.8914   93.5180 C   0  0  0  0  0  0  0  0  0  0  0  0
   66.1051   75.7142   94.2507 C   0  0  0  0  0  0  0  0  0  0  0  0
   67.1821   74.8295   94.3978 C   0  0  0  0  0  0  0  0  0  0  0  0
   67.0076   73.6603   95.1380 O   0  0  0  0  0  0  0  0  0  0  0  0
   66.1771   73.4733   95.5296 H   0  0  0  0  0  0  0  0  0  0  0  0
   70.3082   73.9497   92.9268 O   0  0  0  0  0  0  0  0  0  0  0  0
   69.5951   74.2181   93.9317 C   0  0  0  0  0  0  0  0  0  0  0  0
   69.9219   73.6475   95.1589 O   0  0  0  0  0  0  0  0  0  0  0  0
   69.4031   73.8358   95.9161 H   0  0  0  0  0  0  0  0  0  0  0  0
 30 31  2  0  0  0
 31 32  1  0  0  0
 31 22  1  0  0  0
 22 23  2  0  0  0
 23 24  1  0  0  0
 24 21  1  0  0  0
 21 20  1  0  0  0
 20  1  1  0  0  0
  1  2  2  0  0  0
  2  3  1  0  0  0
  3  4  2  0  0  0
  4  5  1  0  0  0
  5  7  1  0  0  0
  7  8  2  0  0  0
  8  9  1  0  0  0
  9 10  2  0  0  0
 10 11  1  0  0  0
 11 13  1  0  0  0
 13 14  1  0  0  0
 14 15  2  0  0  0
 15 16  1  0  0  0
 16 17  2  0  0  0
 17 18  1  0  0  0
 18 19  2  0  0  0
 11 12  2  0  0  0
  5  6  2  0  0  0
 24 25  2  0  0  0
 25 26  1  0  0  0
 26 27  2  0  0  0
 27 28  1  0  0  0
 27 22  1  0  0  0
  6  1  1  0  0  0
 12  7  1  0  0  0
 19 14  1  0  0  0
 32 33  1  0  0  0
 28 29  1  0  0  0
M  END
> <score>
-0.106651

> <minimizedAffinity>
-9.09131

> <CNNscore>
0.6411767602

> <CNNaffinity>
6.1008129120

> <CNN_VS>
3.9116995335

$$$$
HIPS6101


 33 36  0  0  0  0  0  0  0  0999 V2000
   67.4966   78.9167   91.5104 C   0  0  0  0  0  0  0  0  0  0  0  0
   66.9384   79.5935   92.6045 C   0  0  0  0  0  0  0  0  0  0  0  0
   66.8269   80.9851   92.5875 C   0  0  0  0  0  0  0  0  0  0  0  0
   67.2584   81.7112   91.4752 C   0  0  0  0  0  0  0  0  0  0  0  0
   67.8058   81.0500   90.3609 C   0  0  0  0  0  0  0  0  0  0  0  0
   67.9154   79.6471   90.3867 C   0  0  0  0  0  0  0  0  0  0  0  0
   68.2566   81.8198   89.1735 C   0  0  0  0  0  0  0  0  0  0  0  0
   67.5008   81.8103   87.9876 C   0  0  0  0  0  0  0  0  0  0  0  0
   67.9320   82.5262   86.8685 C   0  0  0  0  0  0  0  0  0  0  0  0
   69.1142   83.2668   86.9213 C   0  0  0  0  0  0  0  0  0  0  0  0
   69.8710   83.3067   88.1048 C   0  0  0  0  0  0  0  0  0  0  0  0
   69.4473   82.5689   89.2165 C   0  0  0  0  0  0  0  0  0  0  0  0
   71.0698   84.0298   88.1945 O   0  0  0  0  0  0  0  0  0  0  0  0
   71.1724   85.4175   88.3732 C   0  0  0  0  0  0  0  0  0  0  0  0
   72.4226   86.0264   88.2059 C   0  0  0  0  0  0  0  0  0  0  0  0
   72.5681   87.4053   88.3880 C   0  0  0  0  0  0  0  0  0  0  0  0
   71.4657   88.1832   88.7513 C   0  0  0  0  0  0  0  0  0  0  0  0
   70.2185   87.5819   88.9410 C   0  0  0  0  0  0  0  0  0  0  0  0
   70.0702   86.2032   88.7602 C   0  0  0  0  0  0  0  0  0  0  0  0
   67.5739   77.4181   91.5074 C   0  0  0  0  0  0  0  0  0  0  0  0
   66.5435   76.8961   92.3416 O   0  0  0  0  0  0  0  0  0  0  0  0
   68.0186   74.1478   94.4214 C   0  0  0  0  0  0  0  0  0  0  0  0
   67.8498   75.0817   93.3789 C   0  0  0  0  0  0  0  0  0  0  0  0
   66.7450   75.9543   93.3617 C   0  0  0  0  0  0  0  0  0  0  0  0
   65.8070   75.8892   94.3938 C   0  0  0  0  0  0  0  0  0  0  0  0
   65.9594   74.9710   95.4317 C   0  0  0  0  0  0  0  0  0  0  0  0
   67.0566   74.0993   95.4561 C   0  0  0  0  0  0  0  0  0  0  0  0
   67.1835   73.1925   96.5083 O   0  0  0  0  0  0  0  0  0  0  0  0
   66.5390   73.1704   97.1880 H   0  0  0  0  0  0  0  0  0  0  0  0
   70.2013   73.4960   95.1292 O   0  0  0  0  0  0  0  0  0  0  0  0
   69.1974   73.2415   94.4098 C   0  0  0  0  0  0  0  0  0  0  0  0
   69.2160   72.1020   93.6099 O   0  0  0  0  0  0  0  0  0  0  0  0
   68.4788   71.8973   93.0689 H   0  0  0  0  0  0  0  0  0  0  0  0
 30 31  2  0  0  0
 31 32  1  0  0  0
 31 22  1  0  0  0
 22 23  2  0  0  0
 23 24  1  0  0  0
 24 21  1  0  0  0
 21 20  1  0  0  0
 20  1  1  0  0  0
  1  2  2  0  0  0
  2  3  1  0  0  0
  3  4  2  0  0  0
  4  5  1  0  0  0
  5  7  1  0  0  0
  7  8  2  0  0  0
  8  9  1  0  0  0
  9 10  2  0  0  0
 10 11  1  0  0  0
 11 13  1  0  0  0
 13 14  1  0  0  0
 14 15  2  0  0  0
 15 16  1  0  0  0
 16 17  2  0  0  0
 17 18  1  0  0  0
 18 19  2  0  0  0
 11 12  2  0  0  0
  5  6  2  0  0  0
 24 25  2  0  0  0
 25 26  1  0  0  0
 26 27  2  0  0  0
 27 28  1  0  0  0
 27 22  1  0  0  0
  6  1  1  0  0  0
 12  7  1  0  0  0
 19 14  1  0  0  0
 32 33  1  0  0  0
 28 29  1  0  0  0
M  END
> <score>
-0.106651

> <minimizedAffinity>
-8.73574

> <CNNscore>
0.6249166727

> <CNNaffinity>
6.0003538132

> <CNN_VS>
3.7497210503

$$$$
HIPS611


 36 39  0  0  0  0  0  0  0  0999 V2000
   69.5791   78.0089   90.1499 C   0  0  0  0  0  0  0  0  0  0  0  0
   69.1047   79.2494   89.6957 C   0  0  0  0  0  0  0  0  0  0  0  0
   69.9440   80.3208   90.0115 C   0  0  0  0  0  0  0  0  0  0  0  0
   71.2794   79.6948   90.8343 S   0  0  0  0  0  0  0  0  0  0  0  0
   70.8146   78.0808   90.8049 C   0  0  0  0  0  0  0  0  0  0  0  0
   69.7533   81.7475   89.6374 C   0  0  0  0  0  0  0  0  0  0  0  0
   70.1596   82.7695   90.5129 C   0  0  0  0  0  0  0  0  0  0  0  0
   70.0487   84.1131   90.1433 C   0  0  0  0  0  0  0  0  0  0  0  0
   69.5440   84.4634   88.8906 C   0  0  0  0  0  0  0  0  0  0  0  0
   69.0759   83.4551   88.0345 C   0  0  0  0  0  0  0  0  0  0  0  0
   69.1873   82.1100   88.4014 C   0  0  0  0  0  0  0  0  0  0  0  0
   69.4927   85.8226   88.5434 O   0  0  0  0  0  0  0  0  0  0  0  0
   70.5613   86.7295   88.6242 C   0  0  0  0  0  0  0  0  0  0  0  0
   71.8324   86.3011   88.2127 C   0  0  0  0  0  0  0  0  0  0  0  0
   72.9129   87.1877   88.2181 C   0  0  0  0  0  0  0  0  0  0  0  0
   72.7359   88.5069   88.6425 C   0  0  0  0  0  0  0  0  0  0  0  0
   71.4765   88.9424   89.0586 C   0  0  0  0  0  0  0  0  0  0  0  0
   70.3880   88.0657   89.0401 C   0  0  0  0  0  0  0  0  0  0  0  0
   67.7793   74.7025   90.8374 N   0  0  0  0  0  0  0  0  0  0  0  0
   68.2635   76.0547   91.0220 C   0  0  0  0  0  0  0  0  0  0  0  0
   68.1962   76.5922   92.1614 O   0  0  0  0  0  0  0  0  0  0  0  0
   68.8436   76.7969   89.9351 N   0  0  0  0  0  0  0  0  0  0  0  0
   68.7323   76.4626   89.0158 H   0  0  0  0  0  0  0  0  0  0  0  0
   66.9450   72.7747   89.5322 C   0  0  0  0  0  0  0  0  0  0  0  0
   67.7406   74.0787   89.5051 C   0  0  0  0  0  0  0  0  0  0  0  0
   67.3487   73.9062   91.9994 C   0  0  0  0  0  0  0  0  0  0  0  0
   68.5424   73.3035   92.6916 C   0  0  0  0  0  0  0  0  0  0  0  0
   69.3339   72.3452   92.0386 C   0  0  0  0  0  0  0  0  0  0  0  0
   70.4049   71.7440   92.7096 C   0  0  0  0  0  0  0  0  0  0  0  0
   70.6886   72.0890   94.0358 C   0  0  0  0  0  0  0  0  0  0  0  0
   69.9028   73.0400   94.6915 C   0  0  0  0  0  0  0  0  0  0  0  0
   68.8314   73.6442   94.0244 C   0  0  0  0  0  0  0  0  0  0  0  0
   71.6633   76.9727   91.2782 C   0  0  0  0  0  0  0  0  0  0  0  0
   72.8913   76.9540   90.9826 O   0  0  0  0  0  0  0  0  0  0  0  0
   71.1193   75.9268   92.0174 O   0  0  0  0  0  0  0  0  0  0  0  0
   70.2093   75.9343   92.2402 H   0  0  0  0  0  0  0  0  0  0  0  0
 24 25  1  0  0  0
 25 19  1  0  0  0
 19 26  1  0  0  0
 26 27  1  0  0  0
 27 28  2  0  0  0
 28 29  1  0  0  0
 29 30  2  0  0  0
 30 31  1  0  0  0
 31 32  2  0  0  0
 19 20  1  0  0  0
 20 21  2  0  0  0
 20 22  1  0  0  0
 22  1  1  0  0  0
  1  2  1  0  0  0
  2  3  2  0  0  0
  3  6  1  0  0  0
  6  7  2  0  0  0
  7  8  1  0  0  0
  8  9  2  0  0  0
  9 12  1  0  0  0
 12 13  1  0  0  0
 13 14  2  0  0  0
 14 15  1  0  0  0
 15 16  2  0  0  0
 16 17  1  0  0  0
 17 18  2  0  0  0
  9 10  1  0  0  0
 10 11  2  0  0  0
  3  4  1  0  0  0
  4  5  1  0  0  0
  5 33  1  0  0  0
 33 34  2  0  0  0
 33 35  1  0  0  0
 32 27  1  0  0  0
  5  1  2  0  0  0
 11  6  1  0  0  0
 18 13  1  0  0  0
 22 23  1  0  0  0
 35 36  1  0  0  0
M  END
> <score>
-0.422021

> <minimizedAffinity>
-7.90348

> <CNNscore>
0.4618453383

> <CNNaffinity>
6.4261198044

> <CNN_VS>
2.9678735733

$$$$
HIPS611


 36 39  0  0  0  0  0  0  0  0999 V2000
   69.7084   78.4699   90.3965 C   0  0  0  0  0  0  0  0  0  0  0  0
   69.3955   79.7323   89.8686 C   0  0  0  0  0  0  0  0  0  0  0  0
   70.4740   80.6206   89.8622 C   0  0  0  0  0  0  0  0  0  0  0  0
   71.8091   79.8036   90.4962 S   0  0  0  0  0  0  0  0  0  0  0  0
   71.0464   78.3353   90.7868 C   0  0  0  0  0  0  0  0  0  0  0  0
   70.4859   82.0099   89.3314 C   0  0  0  0  0  0  0  0  0  0  0  0
   71.5954   82.8436   89.5545 C   0  0  0  0  0  0  0  0  0  0  0  0
   71.6475   84.1268   89.0025 C   0  0  0  0  0  0  0  0  0  0  0  0
   70.6024   84.5984   88.2074 C   0  0  0  0  0  0  0  0  0  0  0  0
   69.4622   83.8001   88.0311 C   0  0  0  0  0  0  0  0  0  0  0  0
   69.4084   82.5152   88.5810 C   0  0  0  0  0  0  0  0  0  0  0  0
   70.7168   85.8755   87.6360 O   0  0  0  0  0  0  0  0  0  0  0  0
   71.5608   86.9024   88.0879 C   0  0  0  0  0  0  0  0  0  0  0  0
   71.0060   87.9255   88.8716 C   0  0  0  0  0  0  0  0  0  0  0  0
   71.8191   88.9352   89.3941 C   0  0  0  0  0  0  0  0  0  0  0  0
   73.1912   88.9373   89.1316 C   0  0  0  0  0  0  0  0  0  0  0  0
   73.7530   87.9268   88.3490 C   0  0  0  0  0  0  0  0  0  0  0  0
   72.9484   86.9049   87.8370 C   0  0  0  0  0  0  0  0  0  0  0  0
   66.9885   76.2002   91.8437 N   0  0  0  0  0  0  0  0  0  0  0  0
   67.7785   77.3856   91.5839 C   0  0  0  0  0  0  0  0  0  0  0  0
   67.6542   78.3951   92.3303 O   0  0  0  0  0  0  0  0  0  0  0  0
   68.7241   77.4324   90.5012 N   0  0  0  0  0  0  0  0  0  0  0  0
   68.6947   76.7309   89.8111 H   0  0  0  0  0  0  0  0  0  0  0  0
   68.3388   74.2768   91.0736 C   0  0  0  0  0  0  0  0  0  0  0  0
   67.0241   75.0427   90.9356 C   0  0  0  0  0  0  0  0  0  0  0  0
   66.1560   76.1174   93.0561 C   0  0  0  0  0  0  0  0  0  0  0  0
   66.8103   75.2282   94.0800 C   0  0  0  0  0  0  0  0  0  0  0  0
   66.0370   74.3542   94.8606 C   0  0  0  0  0  0  0  0  0  0  0  0
   66.6439   73.5756   95.8526 C   0  0  0  0  0  0  0  0  0  0  0  0
   68.0222   73.6684   96.0767 C   0  0  0  0  0  0  0  0  0  0  0  0
   68.7962   74.5384   95.3048 C   0  0  0  0  0  0  0  0  0  0  0  0
   68.1939   75.3183   94.3113 C   0  0  0  0  0  0  0  0  0  0  0  0
   71.7471   77.1217   91.2431 C   0  0  0  0  0  0  0  0  0  0  0  0
   71.1597   76.3122   92.0148 O   0  0  0  0  0  0  0  0  0  0  0  0
   73.0625   76.8752   90.8624 O   0  0  0  0  0  0  0  0  0  0  0  0
   73.5043   77.4715   90.2903 H   0  0  0  0  0  0  0  0  0  0  0  0
 24 25  1  0  0  0
 25 19  1  0  0  0
 19 26  1  0  0  0
 26 27  1  0  0  0
 27 28  2  0  0  0
 28 29  1  0  0  0
 29 30  2  0  0  0
 30 31  1  0  0  0
 31 32  2  0  0  0
 19 20  1  0  0  0
 20 21  2  0  0  0
 20 22  1  0  0  0
 22  1  1  0  0  0
  1  2  1  0  0  0
  2  3  2  0  0  0
  3  6  1  0  0  0
  6  7  2  0  0  0
  7  8  1  0  0  0
  8  9  2  0  0  0
  9 12  1  0  0  0
 12 13  1  0  0  0
 13 14  2  0  0  0
 14 15  1  0  0  0
 15 16  2  0  0  0
 16 17  1  0  0  0
 17 18  2  0  0  0
  9 10  1  0  0  0
 10 11  2  0  0  0
  3  4  1  0  0  0
  4  5  1  0  0  0
  5 33  1  0  0  0
 33 34  2  0  0  0
 33 35  1  0  0  0
 32 27  1  0  0  0
  5  1  2  0  0  0
 11  6  1  0  0  0
 18 13  1  0  0  0
 22 23  1  0  0  0
 35 36  1  0  0  0
M  END
> <score>
-0.422021

> <minimizedAffinity>
-7.80139

> <CNNscore>
0.4367771149

> <CNNaffinity>
6.4624462128

> <CNN_VS>
2.8226485252

$$$$
HIPS611


 36 39  0  0  0  0  0  0  0  0999 V2000
   69.7569   78.2554   90.4412 C   0  0  0  0  0  0  0  0  0  0  0  0
   68.9373   79.3949   90.4357 C   0  0  0  0  0  0  0  0  0  0  0  0
   69.6484   80.5973   90.4106 C   0  0  0  0  0  0  0  0  0  0  0  0
   71.2928   80.2145   90.3717 S   0  0  0  0  0  0  0  0  0  0  0  0
   71.1264   78.5430   90.3905 C   0  0  0  0  0  0  0  0  0  0  0  0
   69.0817   81.9712   90.3531 C   0  0  0  0  0  0  0  0  0  0  0  0
   68.0449   82.3465   91.2250 C   0  0  0  0  0  0  0  0  0  0  0  0
   67.5516   83.6544   91.2274 C   0  0  0  0  0  0  0  0  0  0  0  0
   68.0902   84.6158   90.3717 C   0  0  0  0  0  0  0  0  0  0  0  0
   69.0805   84.2368   89.4528 C   0  0  0  0  0  0  0  0  0  0  0  0
   69.5768   82.9293   89.4496 C   0  0  0  0  0  0  0  0  0  0  0  0
   67.5957   85.9278   90.4396 O   0  0  0  0  0  0  0  0  0  0  0  0
   68.1298   86.9651   91.2204 C   0  0  0  0  0  0  0  0  0  0  0  0
   67.6576   87.1236   92.5321 C   0  0  0  0  0  0  0  0  0  0  0  0
   68.2035   88.1035   93.3661 C   0  0  0  0  0  0  0  0  0  0  0  0
   69.2190   88.9393   92.8951 C   0  0  0  0  0  0  0  0  0  0  0  0
   69.6930   88.7935   91.5900 C   0  0  0  0  0  0  0  0  0  0  0  0
   69.1631   87.8048   90.7561 C   0  0  0  0  0  0  0  0  0  0  0  0
   69.0094   74.6873   91.6046 N   0  0  0  0  0  0  0  0  0  0  0  0
   69.3030   76.1043   91.6564 C   0  0  0  0  0  0  0  0  0  0  0  0
   69.6706   76.6267   92.7445 O   0  0  0  0  0  0  0  0  0  0  0  0
   69.2065   76.9321   90.4842 N   0  0  0  0  0  0  0  0  0  0  0  0
   68.7486   76.5794   89.6872 H   0  0  0  0  0  0  0  0  0  0  0  0
   68.5548   72.5372   90.4703 C   0  0  0  0  0  0  0  0  0  0  0  0
   68.4757   74.0605   90.3847 C   0  0  0  0  0  0  0  0  0  0  0  0
   69.2797   73.8328   92.7736 C   0  0  0  0  0  0  0  0  0  0  0  0
   68.1648   73.9534   93.7784 C   0  0  0  0  0  0  0  0  0  0  0  0
   68.4505   74.0410   95.1503 C   0  0  0  0  0  0  0  0  0  0  0  0
   67.4080   74.0908   96.0826 C   0  0  0  0  0  0  0  0  0  0  0  0
   66.0764   74.0468   95.6542 C   0  0  0  0  0  0  0  0  0  0  0  0
   65.7862   73.9569   94.2906 C   0  0  0  0  0  0  0  0  0  0  0  0
   66.8253   73.9076   93.3546 C   0  0  0  0  0  0  0  0  0  0  0  0
   72.2520   77.6036   90.2400 C   0  0  0  0  0  0  0  0  0  0  0  0
   73.0237   77.7051   89.2450 O   0  0  0  0  0  0  0  0  0  0  0  0
   72.4533   76.5822   91.1632 O   0  0  0  0  0  0  0  0  0  0  0  0
   71.8847   76.5011   91.9036 H   0  0  0  0  0  0  0  0  0  0  0  0
 24 25  1  0  0  0
 25 19  1  0  0  0
 19 26  1  0  0  0
 26 27  1  0  0  0
 27 28  2  0  0  0
 28 29  1  0  0  0
 29 30  2  0  0  0
 30 31  1  0  0  0
 31 32  2  0  0  0
 19 20  1  0  0  0
 20 21  2  0  0  0
 20 22  1  0  0  0
 22  1  1  0  0  0
  1  2  1  0  0  0
  2  3  2  0  0  0
  3  6  1  0  0  0
  6  7  2  0  0  0
  7  8  1  0  0  0
  8  9  2  0  0  0
  9 12  1  0  0  0
 12 13  1  0  0  0
 13 14  2  0  0  0
 14 15  1  0  0  0
 15 16  2  0  0  0
 16 17  1  0  0  0
 17 18  2  0  0  0
  9 10  1  0  0  0
 10 11  2  0  0  0
  3  4  1  0  0  0
  4  5  1  0  0  0
  5 33  1  0  0  0
 33 34  2  0  0  0
 33 35  1  0  0  0
 32 27  1  0  0  0
  5  1  2  0  0  0
 11  6  1  0  0  0
 18 13  1  0  0  0
 22 23  1  0  0  0
 35 36  1  0  0  0
M  END
> <score>
-0.422021

> <minimizedAffinity>
-7.25022

> <CNNscore>
0.3859780729

> <CNNaffinity>
6.2972822189

> <CNN_VS>
2.4306128025

$$$$
HIPS6124


 26 29  0  0  0  0  0  0  0  0999 V2000
   66.3229   77.7366   92.9262 O   0  0  0  0  0  0  0  0  0  0  0  0
   68.1478   74.9438   94.3663 C   0  0  0  0  0  0  0  0  0  0  0  0
   67.8463   76.0473   93.6161 C   0  0  0  0  0  0  0  0  0  0  0  0
   66.6062   76.6283   93.6882 C   0  0  0  0  0  0  0  0  0  0  0  0
   65.6638   76.0850   94.5287 C   0  0  0  0  0  0  0  0  0  0  0  0
   65.9765   74.9575   95.2933 C   0  0  0  0  0  0  0  0  0  0  0  0
   67.2210   74.3860   95.2116 C   0  0  0  0  0  0  0  0  0  0  0  0
   67.5563   73.2604   95.9649 O   0  0  0  0  0  0  0  0  0  0  0  0
   66.9252   72.8781   96.5424 H   0  0  0  0  0  0  0  0  0  0  0  0
   70.0598   74.2823   93.1643 O   0  0  0  0  0  0  0  0  0  0  0  0
   69.4912   74.3433   94.2651 C   0  0  0  0  0  0  0  0  0  0  0  0
   70.1272   73.8467   95.3792 O   0  0  0  0  0  0  0  0  0  0  0  0
   69.7070   73.8876   96.2157 H   0  0  0  0  0  0  0  0  0  0  0  0
   66.4070   79.0159   93.4840 C   0  0  0  0  0  0  0  0  0  0  0  0
   66.6523   80.0612   92.4566 C   0  0  0  0  0  0  0  0  0  0  0  0
   66.3395   79.9055   91.1338 C   0  0  0  0  0  0  0  0  0  0  0  0
   66.5531   80.8537   90.1553 C   0  0  0  0  0  0  0  0  0  0  0  0
   67.1333   82.0499   90.5799 C   0  0  0  0  0  0  0  0  0  0  0  0
   67.4644   82.2490   91.9025 C   0  0  0  0  0  0  0  0  0  0  0  0
   67.2292   81.2680   92.8403 C   0  0  0  0  0  0  0  0  0  0  0  0
   66.2074   80.6642   88.7329 C   0  0  0  0  0  0  0  0  0  0  0  0
   67.0352   81.2418   87.6521 C   0  0  0  0  0  0  0  0  0  0  0  0
   67.1482   79.7675   87.9227 C   0  0  0  0  0  0  0  0  0  0  0  0
   68.0816   83.5153   92.3681 C   0  0  0  0  0  0  0  0  0  0  0  0
   69.5459   83.5726   92.6409 C   0  0  0  0  0  0  0  0  0  0  0  0
   68.9795   84.2192   91.4084 C   0  0  0  0  0  0  0  0  0  0  0  0
 10 11  2  0  0  0
 11 12  1  0  0  0
 11  2  1  0  0  0
  2  3  2  0  0  0
  3  4  1  0  0  0
  4  1  1  0  0  0
  1 14  1  0  0  0
 14 15  1  0  0  0
 15 16  2  0  0  0
 16 17  1  0  0  0
 17 21  1  0  0  0
 21 22  1  0  0  0
 22 23  1  0  0  0
 17 18  2  0  0  0
 18 19  1  0  0  0
 19 24  1  0  0  0
 24 25  1  0  0  0
 25 26  1  0  0  0
 19 20  2  0  0  0
  4  5  2  0  0  0
  5  6  1  0  0  0
  6  7  2  0  0  0
  7  8  1  0  0  0
  7  2  1  0  0  0
 20 15  1  0  0  0
 23 21  1  0  0  0
 26 24  1  0  0  0
 12 13  1  0  0  0
  8  9  1  0  0  0
M  END
> <score>
-0.17865

> <minimizedAffinity>
-6.97490

> <CNNscore>
0.7949654460

> <CNNaffinity>
5.8202219009

> <CNN_VS>
4.6268754005

$$$$
HIPS6124


 26 29  0  0  0  0  0  0  0  0999 V2000
   66.8412   78.6961   93.2411 O   0  0  0  0  0  0  0  0  0  0  0  0
   68.1762   75.3907   93.9455 C   0  0  0  0  0  0  0  0  0  0  0  0
   68.1016   76.7145   93.6085 C   0  0  0  0  0  0  0  0  0  0  0  0
   66.8950   77.3658   93.5823 C   0  0  0  0  0  0  0  0  0  0  0  0
   65.7542   76.6679   93.9006 C   0  0  0  0  0  0  0  0  0  0  0  0
   65.8354   75.3155   94.2443 C   0  0  0  0  0  0  0  0  0  0  0  0
   67.0488   74.6759   94.2666 C   0  0  0  0  0  0  0  0  0  0  0  0
   67.1549   73.3268   94.6064 O   0  0  0  0  0  0  0  0  0  0  0  0
   66.3867   72.8372   94.8259 H   0  0  0  0  0  0  0  0  0  0  0  0
   70.2150   74.7533   92.9581 O   0  0  0  0  0  0  0  0  0  0  0  0
   69.4898   74.7201   93.9639 C   0  0  0  0  0  0  0  0  0  0  0  0
   69.9257   74.0543   95.0860 O   0  0  0  0  0  0  0  0  0  0  0  0
   69.3861   74.0229   95.8513 H   0  0  0  0  0  0  0  0  0  0  0  0
   66.2760   79.0896   92.0245 C   0  0  0  0  0  0  0  0  0  0  0  0
   67.1914   78.8540   90.8779 C   0  0  0  0  0  0  0  0  0  0  0  0
   66.7578   78.5186   89.6243 C   0  0  0  0  0  0  0  0  0  0  0  0
   67.5787   78.2933   88.5391 C   0  0  0  0  0  0  0  0  0  0  0  0
   68.9485   78.4256   88.7714 C   0  0  0  0  0  0  0  0  0  0  0  0
   69.4287   78.7619   90.0182 C   0  0  0  0  0  0  0  0  0  0  0  0
   68.5643   78.9764   91.0689 C   0  0  0  0  0  0  0  0  0  0  0  0
   67.0888   77.9322   87.1945 C   0  0  0  0  0  0  0  0  0  0  0  0
   67.9917   77.3688   86.1676 C   0  0  0  0  0  0  0  0  0  0  0  0
   67.0456   76.4359   86.8705 C   0  0  0  0  0  0  0  0  0  0  0  0
   70.8820   78.9060   90.2796 C   0  0  0  0  0  0  0  0  0  0  0  0
   71.5824   77.9197   91.1507 C   0  0  0  0  0  0  0  0  0  0  0  0
   71.7811   77.8900   89.6615 C   0  0  0  0  0  0  0  0  0  0  0  0
 10 11  2  0  0  0
 11 12  1  0  0  0
 11  2  1  0  0  0
  2  3  2  0  0  0
  3  4  1  0  0  0
  4  1  1  0  0  0
  1 14  1  0  0  0
 14 15  1  0  0  0
 15 16  2  0  0  0
 16 17  1  0  0  0
 17 21  1  0  0  0
 21 22  1  0  0  0
 22 23  1  0  0  0
 17 18  2  0  0  0
 18 19  1  0  0  0
 19 24  1  0  0  0
 24 25  1  0  0  0
 25 26  1  0  0  0
 19 20  2  0  0  0
  4  5  2  0  0  0
  5  6  1  0  0  0
  6  7  2  0  0  0
  7  8  1  0  0  0
  7  2  1  0  0  0
 20 15  1  0  0  0
 23 21  1  0  0  0
 26 24  1  0  0  0
 12 13  1  0  0  0
  8  9  1  0  0  0
M  END
> <score>
-0.17865

> <minimizedAffinity>
-7.05140

> <CNNscore>
0.7702033520

> <CNNaffinity>
6.0580577850

> <CNN_VS>
4.6659364700

$$$$
HIPS6124


 26 29  0  0  0  0  0  0  0  0999 V2000
   65.9471   77.0234   93.0578 O   0  0  0  0  0  0  0  0  0  0  0  0
   68.0307   74.3616   94.3912 C   0  0  0  0  0  0  0  0  0  0  0  0
   67.5440   75.3372   93.5647 C   0  0  0  0  0  0  0  0  0  0  0  0
   66.4203   76.0472   93.9018 C   0  0  0  0  0  0  0  0  0  0  0  0
   65.7847   75.7651   95.0877 C   0  0  0  0  0  0  0  0  0  0  0  0
   66.2856   74.7675   95.9288 C   0  0  0  0  0  0  0  0  0  0  0  0
   67.4108   74.0645   95.5796 C   0  0  0  0  0  0  0  0  0  0  0  0
   67.9294   73.0645   96.4028 O   0  0  0  0  0  0  0  0  0  0  0  0
   67.5079   72.8602   97.2143 H   0  0  0  0  0  0  0  0  0  0  0  0
   70.1994   74.2177   93.4890 O   0  0  0  0  0  0  0  0  0  0  0  0
   69.2416   73.6165   93.9987 C   0  0  0  0  0  0  0  0  0  0  0  0
   69.3256   72.2568   94.1902 O   0  0  0  0  0  0  0  0  0  0  0  0
   68.6081   71.7925   94.5744 H   0  0  0  0  0  0  0  0  0  0  0  0
   66.1747   78.3730   93.3431 C   0  0  0  0  0  0  0  0  0  0  0  0
   66.9493   79.0506   92.2711 C   0  0  0  0  0  0  0  0  0  0  0  0
   66.7245   80.3426   91.8810 C   0  0  0  0  0  0  0  0  0  0  0  0
   67.4237   81.0013   90.8914 C   0  0  0  0  0  0  0  0  0  0  0  0
   68.4288   80.2664   90.2609 C   0  0  0  0  0  0  0  0  0  0  0  0
   68.6889   78.9625   90.6222 C   0  0  0  0  0  0  0  0  0  0  0  0
   67.9601   78.3515   91.6184 C   0  0  0  0  0  0  0  0  0  0  0  0
   67.1640   82.3967   90.4865 C   0  0  0  0  0  0  0  0  0  0  0  0
   66.3952   83.3216   91.3471 C   0  0  0  0  0  0  0  0  0  0  0  0
   67.8890   83.4796   91.2910 C   0  0  0  0  0  0  0  0  0  0  0  0
   69.7542   78.1695   89.9607 C   0  0  0  0  0  0  0  0  0  0  0  0
   71.1842   78.5514   90.1377 C   0  0  0  0  0  0  0  0  0  0  0  0
   70.6288   77.3475   90.8449 C   0  0  0  0  0  0  0  0  0  0  0  0
 10 11  2  0  0  0
 11 12  1  0  0  0
 11  2  1  0  0  0
  2  3  2  0  0  0
  3  4  1  0  0  0
  4  1  1  0  0  0
  1 14  1  0  0  0
 14 15  1  0  0  0
 15 16  2  0  0  0
 16 17  1  0  0  0
 17 21  1  0  0  0
 21 22  1  0  0  0
 22 23  1  0  0  0
 17 18  2  0  0  0
 18 19  1  0  0  0
 19 24  1  0  0  0
 24 25  1  0  0  0
 25 26  1  0  0  0
 19 20  2  0  0  0
  4  5  2  0  0  0
  5  6  1  0  0  0
  6  7  2  0  0  0
  7  8  1  0  0  0
  7  2  1  0  0  0
 20 15  1  0  0  0
 23 21  1  0  0  0
 26 24  1  0  0  0
 12 13  1  0  0  0
  8  9  1  0  0  0
M  END
> <score>
-0.17865

> <minimizedAffinity>
-6.96520

> <CNNscore>
0.7363079786

> <CNNaffinity>
5.8567514420

> <CNN_VS>
4.3123726845

$$$$
HIPS6128


 37 40  0  0  0  0  0  0  0  0999 V2000
   68.4863   77.2885   90.5358 C   0  0  0  0  0  0  0  0  0  0  0  0
   67.6495   77.3504   89.3939 C   0  0  0  0  0  0  0  0  0  0  0  0
   67.2724   76.0943   88.9180 C   0  0  0  0  0  0  0  0  0  0  0  0
   67.9459   74.9257   89.9179 S   0  0  0  0  0  0  0  0  0  0  0  0
   68.7361   75.9795   90.9669 C   0  0  0  0  0  0  0  0  0  0  0  0
   67.1970   78.6047   88.7526 C   0  0  0  0  0  0  0  0  0  0  0  0
   66.3541   79.4901   89.4416 C   0  0  0  0  0  0  0  0  0  0  0  0
   66.0512   80.7421   88.9023 C   0  0  0  0  0  0  0  0  0  0  0  0
   66.5628   81.1153   87.6446 C   0  0  0  0  0  0  0  0  0  0  0  0
   67.3391   80.1985   86.9251 C   0  0  0  0  0  0  0  0  0  0  0  0
   67.6586   78.9516   87.4727 C   0  0  0  0  0  0  0  0  0  0  0  0
   66.3489   82.3875   87.0924 O   0  0  0  0  0  0  0  0  0  0  0  0
   67.2220   83.4670   87.2578 C   0  0  0  0  0  0  0  0  0  0  0  0
   68.1300   83.7850   86.2411 C   0  0  0  0  0  0  0  0  0  0  0  0
   69.0284   84.8433   86.4060 C   0  0  0  0  0  0  0  0  0  0  0  0
   69.0091   85.5975   87.5819 C   0  0  0  0  0  0  0  0  0  0  0  0
   68.0867   85.2996   88.5911 C   0  0  0  0  0  0  0  0  0  0  0  0
   67.1945   84.2340   88.4306 C   0  0  0  0  0  0  0  0  0  0  0  0
   69.8420   80.8093   90.9101 N   0  0  0  0  0  0  0  0  0  0  0  0
   69.7903   79.4364   90.4610 C   0  0  0  0  0  0  0  0  0  0  0  0
   70.4024   79.0975   89.4100 O   0  0  0  0  0  0  0  0  0  0  0  0
   69.0392   78.4470   91.1813 N   0  0  0  0  0  0  0  0  0  0  0  0
   68.8984   78.5663   92.1483 H   0  0  0  0  0  0  0  0  0  0  0  0
   70.8091   81.6973   90.3127 C   0  0  0  0  0  0  0  0  0  0  0  0
   70.5126   82.3943   89.1277 C   0  0  0  0  0  0  0  0  0  0  0  0
   71.4517   83.2621   88.5654 C   0  0  0  0  0  0  0  0  0  0  0  0
   72.6975   83.4354   89.1733 C   0  0  0  0  0  0  0  0  0  0  0  0
   73.0041   82.7417   90.3468 C   0  0  0  0  0  0  0  0  0  0  0  0
   72.0694   81.8694   90.9104 C   0  0  0  0  0  0  0  0  0  0  0  0
   68.8121   81.3618   91.8102 C   0  0  0  0  0  0  0  0  0  0  0  0
   68.1700   82.6406   91.2465 C   0  0  0  0  0  0  0  0  0  0  0  0
   69.6507   83.8572   92.9402 C   0  0  0  0  0  0  0  0  0  0  0  0
   68.3390   83.8690   92.1574 C   0  0  0  0  0  0  0  0  0  0  0  0
   69.5992   75.5385   92.0778 C   0  0  0  0  0  0  0  0  0  0  0  0
   70.6850   76.1284   92.3229 O   0  0  0  0  0  0  0  0  0  0  0  0
   69.2225   74.4451   92.8535 O   0  0  0  0  0  0  0  0  0  0  0  0
   68.4163   74.0012   92.6774 H   0  0  0  0  0  0  0  0  0  0  0  0
 32 33  1  0  0  0
 33 31  1  0  0  0
 31 30  1  0  0  0
 30 19  1  0  0  0
 19 20  1  0  0  0
 20 21  2  0  0  0
 20 22  1  0  0  0
 22  1  1  0  0  0
  1  2  1  0  0  0
  2  6  1  0  0  0
  6  7  2  0  0  0
  7  8  1  0  0  0
  8  9  2  0  0  0
  9 12  1  0  0  0
 12 13  1  0  0  0
 13 14  2  0  0  0
 14 15  1  0  0  0
 15 16  2  0  0  0
 16 17  1  0  0  0
 17 18  2  0  0  0
  9 10  1  0  0  0
 10 11  2  0  0  0
  2  3  2  0  0  0
  3  4  1  0  0  0
  4  5  1  0  0  0
  5 34  1  0  0  0
 34 35  2  0  0  0
 34 36  1  0  0  0
 19 24  1  0  0  0
 24 25  2  0  0  0
 25 26  1  0  0  0
 26 27  2  0  0  0
 27 28  1  0  0  0
 28 29  2  0  0  0
  5  1  2  0  0  0
 29 24  1  0  0  0
 11  6  1  0  0  0
 18 13  1  0  0  0
 22 23  1  0  0  0
 36 37  1  0  0  0
M  END
> <score>
-1.415622

> <minimizedAffinity>
-5.75047

> <CNNscore>
0.6131314635

> <CNNaffinity>
7.5140237808

> <CNN_VS>
4.6070842743

$$$$
HIPS6128


 37 40  0  0  0  0  0  0  0  0999 V2000
   67.3570   72.2512   88.1592 C   0  0  0  0  0  0  0  0  0  0  0  0
   68.0194   71.4725   89.1405 C   0  0  0  0  0  0  0  0  0  0  0  0
   68.5632   70.2922   88.6329 C   0  0  0  0  0  0  0  0  0  0  0  0
   68.2497   70.2313   86.9846 S   0  0  0  0  0  0  0  0  0  0  0  0
   67.4122   71.6881   86.8779 C   0  0  0  0  0  0  0  0  0  0  0  0
   68.1459   71.8496   90.5657 C   0  0  0  0  0  0  0  0  0  0  0  0
   69.4107   71.9387   91.1666 C   0  0  0  0  0  0  0  0  0  0  0  0
   69.5442   72.4422   92.4623 C   0  0  0  0  0  0  0  0  0  0  0  0
   68.4053   72.8349   93.1915 C   0  0  0  0  0  0  0  0  0  0  0  0
   67.1385   72.6708   92.6177 C   0  0  0  0  0  0  0  0  0  0  0  0
   67.0052   72.1843   91.3130 C   0  0  0  0  0  0  0  0  0  0  0  0
   68.4908   73.4145   94.4666 O   0  0  0  0  0  0  0  0  0  0  0  0
   67.5014   74.2330   95.0198 C   0  0  0  0  0  0  0  0  0  0  0  0
   67.0569   73.9955   96.3256 C   0  0  0  0  0  0  0  0  0  0  0  0
   66.0474   74.7879   96.8801 C   0  0  0  0  0  0  0  0  0  0  0  0
   65.4920   75.8315   96.1355 C   0  0  0  0  0  0  0  0  0  0  0  0
   65.9501   76.0889   94.8386 C   0  0  0  0  0  0  0  0  0  0  0  0
   66.9531   75.2895   94.2798 C   0  0  0  0  0  0  0  0  0  0  0  0
   66.8901   75.9736   88.7062 N   0  0  0  0  0  0  0  0  0  0  0  0
   67.3749   74.6352   88.9564 C   0  0  0  0  0  0  0  0  0  0  0  0
   68.4341   74.4668   89.6227 O   0  0  0  0  0  0  0  0  0  0  0  0
   66.6812   73.4863   88.4460 N   0  0  0  0  0  0  0  0  0  0  0  0
   65.7114   73.5468   88.2875 H   0  0  0  0  0  0  0  0  0  0  0  0
   67.4635   77.0683   89.4502 C   0  0  0  0  0  0  0  0  0  0  0  0
   68.5915   77.7557   88.9674 C   0  0  0  0  0  0  0  0  0  0  0  0
   69.1302   78.8231   89.6896 C   0  0  0  0  0  0  0  0  0  0  0  0
   68.5561   79.2082   90.9035 C   0  0  0  0  0  0  0  0  0  0  0  0
   67.4397   78.5266   91.3951 C   0  0  0  0  0  0  0  0  0  0  0  0
   66.9002   77.4557   90.6781 C   0  0  0  0  0  0  0  0  0  0  0  0
   65.9764   76.2619   87.5844 C   0  0  0  0  0  0  0  0  0  0  0  0
   66.5500   77.3142   86.6205 C   0  0  0  0  0  0  0  0  0  0  0  0
   68.6470   77.4812   85.1660 C   0  0  0  0  0  0  0  0  0  0  0  0
   67.3609   76.7112   85.4604 C   0  0  0  0  0  0  0  0  0  0  0  0
   66.7915   72.1895   85.6383 C   0  0  0  0  0  0  0  0  0  0  0  0
   67.1775   73.2690   85.1159 O   0  0  0  0  0  0  0  0  0  0  0  0
   65.7527   71.4747   85.0474 O   0  0  0  0  0  0  0  0  0  0  0  0
   65.4600   70.6711   85.4300 H   0  0  0  0  0  0  0  0  0  0  0  0
 32 33  1  0  0  0
 33 31  1  0  0  0
 31 30  1  0  0  0
 30 19  1  0  0  0
 19 20  1  0  0  0
 20 21  2  0  0  0
 20 22  1  0  0  0
 22  1  1  0  0  0
  1  2  1  0  0  0
  2  6  1  0  0  0
  6  7  2  0  0  0
  7  8  1  0  0  0
  8  9  2  0  0  0
  9 12  1  0  0  0
 12 13  1  0  0  0
 13 14  2  0  0  0
 14 15  1  0  0  0
 15 16  2  0  0  0
 16 17  1  0  0  0
 17 18  2  0  0  0
  9 10  1  0  0  0
 10 11  2  0  0  0
  2  3  2  0  0  0
  3  4  1  0  0  0
  4  5  1  0  0  0
  5 34  1  0  0  0
 34 35  2  0  0  0
 34 36  1  0  0  0
 19 24  1  0  0  0
 24 25  2  0  0  0
 25 26  1  0  0  0
 26 27  2  0  0  0
 27 28  1  0  0  0
 28 29  2  0  0  0
  5  1  2  0  0  0
 29 24  1  0  0  0
 11  6  1  0  0  0
 18 13  1  0  0  0
 22 23  1  0  0  0
 36 37  1  0  0  0
M  END
> <score>
-1.415622

> <minimizedAffinity>
-4.80710

> <CNNscore>
0.3901928365

> <CNNaffinity>
7.1283102036

> <CNN_VS>
2.7814154625

$$$$
HIPS6128


 37 40  0  0  0  0  0  0  0  0999 V2000
   67.7069   74.8606   89.8409 C   0  0  0  0  0  0  0  0  0  0  0  0
   67.0916   75.2056   88.6118 C   0  0  0  0  0  0  0  0  0  0  0  0
   66.6681   74.0977   87.8772 C   0  0  0  0  0  0  0  0  0  0  0  0
   67.0276   72.7122   88.7548 S   0  0  0  0  0  0  0  0  0  0  0  0
   67.7347   73.4801   90.0760 C   0  0  0  0  0  0  0  0  0  0  0  0
   66.8959   76.5914   88.1317 C   0  0  0  0  0  0  0  0  0  0  0  0
   66.1675   77.5124   88.9000 C   0  0  0  0  0  0  0  0  0  0  0  0
   66.1118   78.8570   88.5270 C   0  0  0  0  0  0  0  0  0  0  0  0
   66.7596   79.2956   87.3561 C   0  0  0  0  0  0  0  0  0  0  0  0
   67.4193   78.3593   86.5504 C   0  0  0  0  0  0  0  0  0  0  0  0
   67.4916   77.0158   86.9332 C   0  0  0  0  0  0  0  0  0  0  0  0
   66.7957   80.6462   86.9769 O   0  0  0  0  0  0  0  0  0  0  0  0
   67.0015   81.7024   87.8697 C   0  0  0  0  0  0  0  0  0  0  0  0
   67.7671   82.8049   87.4730 C   0  0  0  0  0  0  0  0  0  0  0  0
   68.0050   83.8539   88.3660 C   0  0  0  0  0  0  0  0  0  0  0  0
   67.4629   83.8106   89.6529 C   0  0  0  0  0  0  0  0  0  0  0  0
   66.6762   82.7224   90.0463 C   0  0  0  0  0  0  0  0  0  0  0  0
   66.4466   81.6676   89.1563 C   0  0  0  0  0  0  0  0  0  0  0  0
   68.9740   78.2051   91.0987 N   0  0  0  0  0  0  0  0  0  0  0  0
   68.9370   77.0058   90.2929 C   0  0  0  0  0  0  0  0  0  0  0  0
   69.4931   76.9951   89.1593 O   0  0  0  0  0  0  0  0  0  0  0  0
   68.2626   75.8237   90.7508 N   0  0  0  0  0  0  0  0  0  0  0  0
   68.1784   75.6682   91.7193 H   0  0  0  0  0  0  0  0  0  0  0  0
   69.8745   79.2664   90.7199 C   0  0  0  0  0  0  0  0  0  0  0  0
   69.3814   80.5135   90.2961 C   0  0  0  0  0  0  0  0  0  0  0  0
   70.2628   81.5386   89.9446 C   0  0  0  0  0  0  0  0  0  0  0  0
   71.6424   81.3269   90.0028 C   0  0  0  0  0  0  0  0  0  0  0  0
   72.1419   80.0888   90.4155 C   0  0  0  0  0  0  0  0  0  0  0  0
   71.2639   79.0594   90.7639 C   0  0  0  0  0  0  0  0  0  0  0  0
   67.9852   78.4428   92.1673 C   0  0  0  0  0  0  0  0  0  0  0  0
   67.0463   79.6169   91.8427 C   0  0  0  0  0  0  0  0  0  0  0  0
   65.7357   78.5795   93.7785 C   0  0  0  0  0  0  0  0  0  0  0  0
   65.7238   79.5847   92.6283 C   0  0  0  0  0  0  0  0  0  0  0  0
   68.3397   72.7650   91.2144 C   0  0  0  0  0  0  0  0  0  0  0  0
   68.0284   73.0598   92.3989 O   0  0  0  0  0  0  0  0  0  0  0  0
   69.2815   71.7660   90.9813 O   0  0  0  0  0  0  0  0  0  0  0  0
   69.5182   71.5410   90.1031 H   0  0  0  0  0  0  0  0  0  0  0  0
 32 33  1  0  0  0
 33 31  1  0  0  0
 31 30  1  0  0  0
 30 19  1  0  0  0
 19 20  1  0  0  0
 20 21  2  0  0  0
 20 22  1  0  0  0
 22  1  1  0  0  0
  1  2  1  0  0  0
  2  6  1  0  0  0
  6  7  2  0  0  0
  7  8  1  0  0  0
  8  9  2  0  0  0
  9 12  1  0  0  0
 12 13  1  0  0  0
 13 14  2  0  0  0
 14 15  1  0  0  0
 15 16  2  0  0  0
 16 17  1  0  0  0
 17 18  2  0  0  0
  9 10  1  0  0  0
 10 11  2  0  0  0
  2  3  2  0  0  0
  3  4  1  0  0  0
  4  5  1  0  0  0
  5 34  1  0  0  0
 34 35  2  0  0  0
 34 36  1  0  0  0
 19 24  1  0  0  0
 24 25  2  0  0  0
 25 26  1  0  0  0
 26 27  2  0  0  0
 27 28  1  0  0  0
 28 29  2  0  0  0
  5  1  2  0  0  0
 29 24  1  0  0  0
 11  6  1  0  0  0
 18 13  1  0  0  0
 22 23  1  0  0  0
 36 37  1  0  0  0
M  END
> <score>
-1.415622

> <minimizedAffinity>
-5.31641

> <CNNscore>
0.3495017886

> <CNNaffinity>
7.4096183777

> <CNN_VS>
2.5896749496

$$$$
HIPS6129


 32 34  0  0  0  0  0  0  0  0999 V2000
   69.7509   78.5825   90.4518 C   0  0  0  0  0  0  0  0  0  0  0  0
   69.0053   79.7807   90.4781 C   0  0  0  0  0  0  0  0  0  0  0  0
   69.7931   80.9238   90.3783 C   0  0  0  0  0  0  0  0  0  0  0  0
   71.3996   80.4496   90.2617 S   0  0  0  0  0  0  0  0  0  0  0  0
   71.1277   78.7911   90.3345 C   0  0  0  0  0  0  0  0  0  0  0  0
   67.5450   79.8531   90.6734 C   0  0  0  0  0  0  0  0  0  0  0  0
   67.0060   79.5652   91.9372 C   0  0  0  0  0  0  0  0  0  0  0  0
   65.6282   79.6679   92.1579 C   0  0  0  0  0  0  0  0  0  0  0  0
   64.9623   79.3272   93.7442 Cl  0  0  0  0  0  0  0  0  0  0  0  0
   64.7806   80.0508   91.1154 C   0  0  0  0  0  0  0  0  0  0  0  0
   65.3076   80.3398   89.8549 C   0  0  0  0  0  0  0  0  0  0  0  0
   66.6858   80.2511   89.6276 C   0  0  0  0  0  0  0  0  0  0  0  0
   67.2971   80.6067   88.0151 Cl  0  0  0  0  0  0  0  0  0  0  0  0
   68.1780   75.4643   91.9638 N   0  0  0  0  0  0  0  0  0  0  0  0
   69.1089   76.5523   91.7697 C   0  0  0  0  0  0  0  0  0  0  0  0
   69.8388   76.9139   92.7331 O   0  0  0  0  0  0  0  0  0  0  0  0
   69.1639   77.2757   90.5289 N   0  0  0  0  0  0  0  0  0  0  0  0
   68.7911   76.8660   89.7150 H   0  0  0  0  0  0  0  0  0  0  0  0
   67.5257   75.3294   93.2492 C   0  0  0  0  0  0  0  0  0  0  0  0
   66.3246   76.0182   93.5092 C   0  0  0  0  0  0  0  0  0  0  0  0
   65.6848   75.8897   94.7454 C   0  0  0  0  0  0  0  0  0  0  0  0
   66.2313   75.0706   95.7350 C   0  0  0  0  0  0  0  0  0  0  0  0
   67.4171   74.3757   95.4890 C   0  0  0  0  0  0  0  0  0  0  0  0
   68.0613   74.5001   94.2542 C   0  0  0  0  0  0  0  0  0  0  0  0
   67.8690   74.5098   90.8824 C   0  0  0  0  0  0  0  0  0  0  0  0
   68.9261   73.3942   90.7737 C   0  0  0  0  0  0  0  0  0  0  0  0
   69.7538   71.5593   92.3503 C   0  0  0  0  0  0  0  0  0  0  0  0
   68.5786   72.1108   91.5421 C   0  0  0  0  0  0  0  0  0  0  0  0
   72.1836   77.7709   90.2189 C   0  0  0  0  0  0  0  0  0  0  0  0
   72.9566   77.7814   89.2239 O   0  0  0  0  0  0  0  0  0  0  0  0
   72.3267   76.7822   91.1872 O   0  0  0  0  0  0  0  0  0  0  0  0
   71.7557   76.7678   91.9300 H   0  0  0  0  0  0  0  0  0  0  0  0
 27 28  1  0  0  0
 28 26  1  0  0  0
 26 25  1  0  0  0
 25 14  1  0  0  0
 14 15  1  0  0  0
 15 16  2  0  0  0
 15 17  1  0  0  0
 17  1  1  0  0  0
  1  2  1  0  0  0
  2  6  1  0  0  0
  6  7  2  0  0  0
  7  8  1  0  0  0
  8  9  1  0  0  0
  8 10  2  0  0  0
 10 11  1  0  0  0
 11 12  2  0  0  0
 12 13  1  0  0  0
  2  3  2  0  0  0
  3  4  1  0  0  0
  4  5  1  0  0  0
  5 29  1  0  0  0
 29 30  2  0  0  0
 29 31  1  0  0  0
 14 19  1  0  0  0
 19 20  2  0  0  0
 20 21  1  0  0  0
 21 22  2  0  0  0
 22 23  1  0  0  0
 23 24  2  0  0  0
  5  1  2  0  0  0
 24 19  1  0  0  0
 12  6  1  0  0  0
 17 18  1  0  0  0
 31 32  1  0  0  0
M  END
> <score>
-0.066475

> <minimizedAffinity>
-7.23314

> <CNNscore>
0.8011776209

> <CNNaffinity>
7.2086095810

> <CNN_VS>
5.7753767967

$$$$
HIPS6129


 32 34  0  0  0  0  0  0  0  0999 V2000
   67.1826   77.1815   90.6619 C   0  0  0  0  0  0  0  0  0  0  0  0
   67.4121   77.5954   91.9916 C   0  0  0  0  0  0  0  0  0  0  0  0
   67.5113   78.9768   92.1309 C   0  0  0  0  0  0  0  0  0  0  0  0
   67.3189   79.6755   90.6163 S   0  0  0  0  0  0  0  0  0  0  0  0
   67.1059   78.2445   89.7580 C   0  0  0  0  0  0  0  0  0  0  0  0
   67.6136   76.6792   93.1299 C   0  0  0  0  0  0  0  0  0  0  0  0
   66.4998   76.0598   93.7186 C   0  0  0  0  0  0  0  0  0  0  0  0
   66.6692   75.1546   94.7719 C   0  0  0  0  0  0  0  0  0  0  0  0
   65.2759   74.3679   95.4901 Cl  0  0  0  0  0  0  0  0  0  0  0  0
   67.9512   74.8693   95.2482 C   0  0  0  0  0  0  0  0  0  0  0  0
   69.0654   75.4800   94.6685 C   0  0  0  0  0  0  0  0  0  0  0  0
   68.9068   76.3780   93.6068 C   0  0  0  0  0  0  0  0  0  0  0  0
   70.3422   77.1359   92.9245 Cl  0  0  0  0  0  0  0  0  0  0  0  0
   67.9602   73.4750   90.2867 N   0  0  0  0  0  0  0  0  0  0  0  0
   68.1516   74.9071   90.2634 C   0  0  0  0  0  0  0  0  0  0  0  0
   69.3246   75.3696   90.3077 O   0  0  0  0  0  0  0  0  0  0  0  0
   67.0334   75.8103   90.2676 N   0  0  0  0  0  0  0  0  0  0  0  0
   66.1468   75.4810   89.9943 H   0  0  0  0  0  0  0  0  0  0  0  0
   68.8567   72.6675   91.0867 C   0  0  0  0  0  0  0  0  0  0  0  0
   69.3932   73.1803   92.2842 C   0  0  0  0  0  0  0  0  0  0  0  0
   70.2552   72.4060   93.0659 C   0  0  0  0  0  0  0  0  0  0  0  0
   70.5895   71.1107   92.6665 C   0  0  0  0  0  0  0  0  0  0  0  0
   70.0595   70.5861   91.4860 C   0  0  0  0  0  0  0  0  0  0  0  0
   69.1964   71.3560   90.7002 C   0  0  0  0  0  0  0  0  0  0  0  0
   66.8685   72.8293   89.5336 C   0  0  0  0  0  0  0  0  0  0  0  0
   66.8477   73.2632   88.0554 C   0  0  0  0  0  0  0  0  0  0  0  0
   67.4585   71.1022   86.8329 C   0  0  0  0  0  0  0  0  0  0  0  0
   66.3918   72.1703   87.0776 C   0  0  0  0  0  0  0  0  0  0  0  0
   66.8196   78.1768   88.3148 C   0  0  0  0  0  0  0  0  0  0  0  0
   66.4395   77.0899   87.8033 O   0  0  0  0  0  0  0  0  0  0  0  0
   66.9818   79.2958   87.5042 O   0  0  0  0  0  0  0  0  0  0  0  0
   67.2642   80.1076   87.8772 H   0  0  0  0  0  0  0  0  0  0  0  0
 27 28  1  0  0  0
 28 26  1  0  0  0
 26 25  1  0  0  0
 25 14  1  0  0  0
 14 15  1  0  0  0
 15 16  2  0  0  0
 15 17  1  0  0  0
 17  1  1  0  0  0
  1  2  1  0  0  0
  2  6  1  0  0  0
  6  7  2  0  0  0
  7  8  1  0  0  0
  8  9  1  0  0  0
  8 10  2  0  0  0
 10 11  1  0  0  0
 11 12  2  0  0  0
 12 13  1  0  0  0
  2  3  2  0  0  0
  3  4  1  0  0  0
  4  5  1  0  0  0
  5 29  1  0  0  0
 29 30  2  0  0  0
 29 31  1  0  0  0
 14 19  1  0  0  0
 19 20  2  0  0  0
 20 21  1  0  0  0
 21 22  2  0  0  0
 22 23  1  0  0  0
 23 24  2  0  0  0
  5  1  2  0  0  0
 24 19  1  0  0  0
 12  6  1  0  0  0
 17 18  1  0  0  0
 31 32  1  0  0  0
M  END
> <score>
-0.066475

> <minimizedAffinity>
-6.61510

> <CNNscore>
0.6899661422

> <CNNaffinity>
7.0625419617

> <CNN_VS>
4.8729147911

$$$$
HIPS6129


 32 34  0  0  0  0  0  0  0  0999 V2000
   67.5747   82.1368   89.9290 C   0  0  0  0  0  0  0  0  0  0  0  0
   68.2784   82.1355   88.7055 C   0  0  0  0  0  0  0  0  0  0  0  0
   67.7915   81.2079   87.7892 C   0  0  0  0  0  0  0  0  0  0  0  0
   66.5019   80.3959   88.4940 S   0  0  0  0  0  0  0  0  0  0  0  0
   66.5357   81.2032   89.9696 C   0  0  0  0  0  0  0  0  0  0  0  0
   69.4665   82.9629   88.4230 C   0  0  0  0  0  0  0  0  0  0  0  0
   70.6655   82.6978   89.1033 C   0  0  0  0  0  0  0  0  0  0  0  0
   71.8168   83.4415   88.8220 C   0  0  0  0  0  0  0  0  0  0  0  0
   73.3176   83.0924   89.6598 Cl  0  0  0  0  0  0  0  0  0  0  0  0
   71.7746   84.4591   87.8656 C   0  0  0  0  0  0  0  0  0  0  0  0
   70.5866   84.7297   87.1833 C   0  0  0  0  0  0  0  0  0  0  0  0
   69.4328   83.9835   87.4496 C   0  0  0  0  0  0  0  0  0  0  0  0
   67.9557   84.3779   86.5762 Cl  0  0  0  0  0  0  0  0  0  0  0  0
   67.3679   85.1342   92.2648 N   0  0  0  0  0  0  0  0  0  0  0  0
   67.4453   84.3798   91.0349 C   0  0  0  0  0  0  0  0  0  0  0  0
   67.0582   84.9168   89.9609 O   0  0  0  0  0  0  0  0  0  0  0  0
   67.8815   83.0102   91.0249 N   0  0  0  0  0  0  0  0  0  0  0  0
   68.4016   82.6644   91.7860 H   0  0  0  0  0  0  0  0  0  0  0  0
   66.2550   86.0404   92.4548 C   0  0  0  0  0  0  0  0  0  0  0  0
   66.4521   87.4324   92.3639 C   0  0  0  0  0  0  0  0  0  0  0  0
   65.3825   88.3148   92.5404 C   0  0  0  0  0  0  0  0  0  0  0  0
   64.1036   87.8212   92.8049 C   0  0  0  0  0  0  0  0  0  0  0  0
   63.8915   86.4437   92.8901 C   0  0  0  0  0  0  0  0  0  0  0  0
   64.9577   85.5563   92.7141 C   0  0  0  0  0  0  0  0  0  0  0  0
   68.3806   84.9859   93.3271 C   0  0  0  0  0  0  0  0  0  0  0  0
   67.8875   84.0869   94.4772 C   0  0  0  0  0  0  0  0  0  0  0  0
   66.5026   85.4898   96.1055 C   0  0  0  0  0  0  0  0  0  0  0  0
   67.8316   84.7790   95.8469 C   0  0  0  0  0  0  0  0  0  0  0  0
   65.5712   80.9803   91.0601 C   0  0  0  0  0  0  0  0  0  0  0  0
   65.9875   80.7980   92.2353 O   0  0  0  0  0  0  0  0  0  0  0  0
   64.2038   80.9499   90.8052 O   0  0  0  0  0  0  0  0  0  0  0  0
   63.8865   81.0846   89.9339 H   0  0  0  0  0  0  0  0  0  0  0  0
 27 28  1  0  0  0
 28 26  1  0  0  0
 26 25  1  0  0  0
 25 14  1  0  0  0
 14 15  1  0  0  0
 15 16  2  0  0  0
 15 17  1  0  0  0
 17  1  1  0  0  0
  1  2  1  0  0  0
  2  6  1  0  0  0
  6  7  2  0  0  0
  7  8  1  0  0  0
  8  9  1  0  0  0
  8 10  2  0  0  0
 10 11  1  0  0  0
 11 12  2  0  0  0
 12 13  1  0  0  0
  2  3  2  0  0  0
  3  4  1  0  0  0
  4  5  1  0  0  0
  5 29  1  0  0  0
 29 30  2  0  0  0
 29 31  1  0  0  0
 14 19  1  0  0  0
 19 20  2  0  0  0
 20 21  1  0  0  0
 21 22  2  0  0  0
 22 23  1  0  0  0
 23 24  2  0  0  0
  5  1  2  0  0  0
 24 19  1  0  0  0
 12  6  1  0  0  0
 17 18  1  0  0  0
 31 32  1  0  0  0
M  END
> <score>
-0.066475

> <minimizedAffinity>
-6.38025

> <CNNscore>
0.6758021116

> <CNNaffinity>
6.9355659485

> <CNN_VS>
4.6870698929

$$$$
HIPS6134


 35 38  0  0  0  0  0  0  0  0999 V2000
   69.1941   77.8556   90.8877 C   0  0  0  0  0  0  0  0  0  0  0  0
   70.2775   76.9825   91.0632 C   0  0  0  0  0  0  0  0  0  0  0  0
   71.5824   77.4302   90.8493 C   0  0  0  0  0  0  0  0  0  0  0  0
   71.8184   78.7542   90.4718 C   0  0  0  0  0  0  0  0  0  0  0  0
   70.7466   79.6501   90.3073 C   0  0  0  0  0  0  0  0  0  0  0  0
   69.4341   79.1903   90.5240 C   0  0  0  0  0  0  0  0  0  0  0  0
   70.9963   81.0603   89.9147 C   0  0  0  0  0  0  0  0  0  0  0  0
   72.1940   81.7007   90.2772 C   0  0  0  0  0  0  0  0  0  0  0  0
   72.4254   83.0274   89.9089 C   0  0  0  0  0  0  0  0  0  0  0  0
   71.4678   83.7317   89.1766 C   0  0  0  0  0  0  0  0  0  0  0  0
   70.2613   83.1093   88.8061 C   0  0  0  0  0  0  0  0  0  0  0  0
   70.0374   81.7773   89.1755 C   0  0  0  0  0  0  0  0  0  0  0  0
   69.2630   83.7695   88.0711 O   0  0  0  0  0  0  0  0  0  0  0  0
   67.9025   83.9212   88.4782 C   0  0  0  0  0  0  0  0  0  0  0  0
   67.2493   82.5783   88.6712 C   0  0  0  0  0  0  0  0  0  0  0  0
   67.0535   81.7154   87.5800 C   0  0  0  0  0  0  0  0  0  0  0  0
   66.4540   80.4667   87.7691 C   0  0  0  0  0  0  0  0  0  0  0  0
   66.0536   80.0667   89.0469 C   0  0  0  0  0  0  0  0  0  0  0  0
   66.2554   80.9147   90.1408 C   0  0  0  0  0  0  0  0  0  0  0  0
   65.7573   80.4102   91.7453 Cl  0  0  0  0  0  0  0  0  0  0  0  0
   66.8556   82.1652   89.9549 C   0  0  0  0  0  0  0  0  0  0  0  0
   67.7946   77.3888   91.1623 C   0  0  0  0  0  0  0  0  0  0  0  0
   67.5291   77.5049   92.5573 O   0  0  0  0  0  0  0  0  0  0  0  0
   68.2228   74.4364   94.5940 C   0  0  0  0  0  0  0  0  0  0  0  0
   68.4171   75.5158   93.7101 C   0  0  0  0  0  0  0  0  0  0  0  0
   67.3734   76.4188   93.4317 C   0  0  0  0  0  0  0  0  0  0  0  0
   66.1311   76.2363   94.0423 C   0  0  0  0  0  0  0  0  0  0  0  0
   65.9232   75.1732   94.9202 C   0  0  0  0  0  0  0  0  0  0  0  0
   66.9573   74.2708   95.2028 C   0  0  0  0  0  0  0  0  0  0  0  0
   66.7215   73.2166   96.0857 O   0  0  0  0  0  0  0  0  0  0  0  0
   65.8785   73.1177   96.4827 H   0  0  0  0  0  0  0  0  0  0  0  0
   69.3981   72.8354   95.9275 O   0  0  0  0  0  0  0  0  0  0  0  0
   69.3494   73.5047   94.8605 C   0  0  0  0  0  0  0  0  0  0  0  0
   70.3721   73.3589   93.9260 O   0  0  0  0  0  0  0  0  0  0  0  0
   70.3507   73.8493   93.1278 H   0  0  0  0  0  0  0  0  0  0  0  0
 32 33  2  0  0  0
 33 34  1  0  0  0
 33 24  1  0  0  0
 24 25  2  0  0  0
 25 26  1  0  0  0
 26 23  1  0  0  0
 23 22  1  0  0  0
 22  1  1  0  0  0
  1  2  2  0  0  0
  2  3  1  0  0  0
  3  4  2  0  0  0
  4  5  1  0  0  0
  5  7  1  0  0  0
  7  8  2  0  0  0
  8  9  1  0  0  0
  9 10  2  0  0  0
 10 11  1  0  0  0
 11 13  1  0  0  0
 13 14  1  0  0  0
 14 15  1  0  0  0
 15 16  2  0  0  0
 16 17  1  0  0  0
 17 18  2  0  0  0
 18 19  1  0  0  0
 19 20  1  0  0  0
 19 21  2  0  0  0
 11 12  2  0  0  0
  5  6  2  0  0  0
 26 27  2  0  0  0
 27 28  1  0  0  0
 28 29  2  0  0  0
 29 30  1  0  0  0
 29 24  1  0  0  0
  6  1  1  0  0  0
 12  7  1  0  0  0
 21 15  1  0  0  0
 34 35  1  0  0  0
 30 31  1  0  0  0
M  END
> <score>
-0.222359

> <minimizedAffinity>
-8.91406

> <CNNscore>
0.6706430912

> <CNNaffinity>
6.8496656418

> <CNN_VS>
4.5936808586

$$$$
HIPS6134


 35 38  0  0  0  0  0  0  0  0999 V2000
   69.7150   77.0300   90.7164 C   0  0  0  0  0  0  0  0  0  0  0  0
   70.9113   76.5542   91.2726 C   0  0  0  0  0  0  0  0  0  0  0  0
   72.0117   77.4032   91.4036 C   0  0  0  0  0  0  0  0  0  0  0  0
   71.9243   78.7356   90.9937 C   0  0  0  0  0  0  0  0  0  0  0  0
   70.7280   79.2367   90.4493 C   0  0  0  0  0  0  0  0  0  0  0  0
   69.6237   78.3738   90.3198 C   0  0  0  0  0  0  0  0  0  0  0  0
   70.6306   80.6553   90.0212 C   0  0  0  0  0  0  0  0  0  0  0  0
   71.7443   81.5078   90.1167 C   0  0  0  0  0  0  0  0  0  0  0  0
   71.6494   82.8418   89.7158 C   0  0  0  0  0  0  0  0  0  0  0  0
   70.4458   83.3426   89.2161 C   0  0  0  0  0  0  0  0  0  0  0  0
   69.3188   82.5060   89.1148 C   0  0  0  0  0  0  0  0  0  0  0  0
   69.4220   81.1682   89.5151 C   0  0  0  0  0  0  0  0  0  0  0  0
   68.0833   82.9562   88.6211 O   0  0  0  0  0  0  0  0  0  0  0  0
   67.2927   82.2849   87.6394 C   0  0  0  0  0  0  0  0  0  0  0  0
   66.9173   80.9042   88.1081 C   0  0  0  0  0  0  0  0  0  0  0  0
   66.2001   80.7254   89.3028 C   0  0  0  0  0  0  0  0  0  0  0  0
   65.8479   79.4405   89.7267 C   0  0  0  0  0  0  0  0  0  0  0  0
   66.2006   78.3271   88.9592 C   0  0  0  0  0  0  0  0  0  0  0  0
   66.9044   78.4967   87.7625 C   0  0  0  0  0  0  0  0  0  0  0  0
   67.3424   77.0993   86.7968 Cl  0  0  0  0  0  0  0  0  0  0  0  0
   67.2581   79.7815   87.3352 C   0  0  0  0  0  0  0  0  0  0  0  0
   68.5171   76.1316   90.6179 C   0  0  0  0  0  0  0  0  0  0  0  0
   67.8651   76.0824   91.8838 O   0  0  0  0  0  0  0  0  0  0  0  0
   69.4002   73.2689   93.8262 C   0  0  0  0  0  0  0  0  0  0  0  0
   69.0541   74.1028   92.7451 C   0  0  0  0  0  0  0  0  0  0  0  0
   68.2311   75.2292   92.9357 C   0  0  0  0  0  0  0  0  0  0  0  0
   67.7540   75.5178   94.2157 C   0  0  0  0  0  0  0  0  0  0  0  0
   68.0883   74.7026   95.2963 C   0  0  0  0  0  0  0  0  0  0  0  0
   68.9075   73.5803   95.1146 C   0  0  0  0  0  0  0  0  0  0  0  0
   69.2266   72.7825   96.2138 O   0  0  0  0  0  0  0  0  0  0  0  0
   68.8938   72.9994   97.0624 H   0  0  0  0  0  0  0  0  0  0  0  0
   71.4566   72.0601   94.0077 O   0  0  0  0  0  0  0  0  0  0  0  0
   70.2701   72.0888   93.5831 C   0  0  0  0  0  0  0  0  0  0  0  0
   69.7796   70.9920   92.8783 O   0  0  0  0  0  0  0  0  0  0  0  0
   68.8998   70.9976   92.5560 H   0  0  0  0  0  0  0  0  0  0  0  0
 32 33  2  0  0  0
 33 34  1  0  0  0
 33 24  1  0  0  0
 24 25  2  0  0  0
 25 26  1  0  0  0
 26 23  1  0  0  0
 23 22  1  0  0  0
 22  1  1  0  0  0
  1  2  2  0  0  0
  2  3  1  0  0  0
  3  4  2  0  0  0
  4  5  1  0  0  0
  5  7  1  0  0  0
  7  8  2  0  0  0
  8  9  1  0  0  0
  9 10  2  0  0  0
 10 11  1  0  0  0
 11 13  1  0  0  0
 13 14  1  0  0  0
 14 15  1  0  0  0
 15 16  2  0  0  0
 16 17  1  0  0  0
 17 18  2  0  0  0
 18 19  1  0  0  0
 19 20  1  0  0  0
 19 21  2  0  0  0
 11 12  2  0  0  0
  5  6  2  0  0  0
 26 27  2  0  0  0
 27 28  1  0  0  0
 28 29  2  0  0  0
 29 30  1  0  0  0
 29 24  1  0  0  0
  6  1  1  0  0  0
 12  7  1  0  0  0
 21 15  1  0  0  0
 34 35  1  0  0  0
 30 31  1  0  0  0
M  END
> <score>
-0.222359

> <minimizedAffinity>
-8.37674

> <CNNscore>
0.6639222503

> <CNNaffinity>
6.9205179214

> <CNN_VS>
4.5946860313

$$$$
HIPS6134


 35 38  0  0  0  0  0  0  0  0999 V2000
   66.6307   79.4300   90.2774 C   0  0  0  0  0  0  0  0  0  0  0  0
   66.4218   79.0122   91.5998 C   0  0  0  0  0  0  0  0  0  0  0  0
   66.5792   79.9133   92.6543 C   0  0  0  0  0  0  0  0  0  0  0  0
   66.9329   81.2401   92.3985 C   0  0  0  0  0  0  0  0  0  0  0  0
   67.1301   81.6831   91.0781 C   0  0  0  0  0  0  0  0  0  0  0  0
   66.9703   80.7680   90.0208 C   0  0  0  0  0  0  0  0  0  0  0  0
   67.4974   83.0956   90.8037 C   0  0  0  0  0  0  0  0  0  0  0  0
   67.8231   83.9661   91.8583 C   0  0  0  0  0  0  0  0  0  0  0  0
   68.1659   85.2943   91.5978 C   0  0  0  0  0  0  0  0  0  0  0  0
   68.1878   85.7711   90.2858 C   0  0  0  0  0  0  0  0  0  0  0  0
   67.8627   84.9162   89.2164 C   0  0  0  0  0  0  0  0  0  0  0  0
   67.5235   83.5843   89.4845 C   0  0  0  0  0  0  0  0  0  0  0  0
   67.8671   85.3420   87.8780 O   0  0  0  0  0  0  0  0  0  0  0  0
   68.8082   84.9328   86.8848 C   0  0  0  0  0  0  0  0  0  0  0  0
   70.1977   84.8645   87.4608 C   0  0  0  0  0  0  0  0  0  0  0  0
   70.7403   83.6365   87.8745 C   0  0  0  0  0  0  0  0  0  0  0  0
   72.0345   83.5804   88.4004 C   0  0  0  0  0  0  0  0  0  0  0  0
   72.7987   84.7453   88.5096 C   0  0  0  0  0  0  0  0  0  0  0  0
   72.2707   85.9704   88.0892 C   0  0  0  0  0  0  0  0  0  0  0  0
   73.2321   87.4317   88.2216 Cl  0  0  0  0  0  0  0  0  0  0  0  0
   70.9757   86.0299   87.5621 C   0  0  0  0  0  0  0  0  0  0  0  0
   66.4165   78.4749   89.1399 C   0  0  0  0  0  0  0  0  0  0  0  0
   67.6778   77.9700   88.7106 O   0  0  0  0  0  0  0  0  0  0  0  0
   69.8101   76.1159   91.1726 C   0  0  0  0  0  0  0  0  0  0  0  0
   68.7342   76.4308   90.3197 C   0  0  0  0  0  0  0  0  0  0  0  0
   68.7310   77.6225   89.5699 C   0  0  0  0  0  0  0  0  0  0  0  0
   69.8113   78.5004   89.6780 C   0  0  0  0  0  0  0  0  0  0  0  0
   70.8843   78.2026   90.5171 C   0  0  0  0  0  0  0  0  0  0  0  0
   70.8949   77.0182   91.2660 C   0  0  0  0  0  0  0  0  0  0  0  0
   71.9818   76.7454   92.0970 O   0  0  0  0  0  0  0  0  0  0  0  0
   72.6946   77.3513   92.1502 H   0  0  0  0  0  0  0  0  0  0  0  0
   69.3631   73.7793   91.4232 O   0  0  0  0  0  0  0  0  0  0  0  0
   69.7747   74.8488   91.9481 C   0  0  0  0  0  0  0  0  0  0  0  0
   70.2003   74.8287   93.2743 O   0  0  0  0  0  0  0  0  0  0  0  0
   70.5092   75.6152   93.6792 H   0  0  0  0  0  0  0  0  0  0  0  0
 32 33  2  0  0  0
 33 34  1  0  0  0
 33 24  1  0  0  0
 24 25  2  0  0  0
 25 26  1  0  0  0
 26 23  1  0  0  0
 23 22  1  0  0  0
 22  1  1  0  0  0
  1  2  2  0  0  0
  2  3  1  0  0  0
  3  4  2  0  0  0
  4  5  1  0  0  0
  5  7  1  0  0  0
  7  8  2  0  0  0
  8  9  1  0  0  0
  9 10  2  0  0  0
 10 11  1  0  0  0
 11 13  1  0  0  0
 13 14  1  0  0  0
 14 15  1  0  0  0
 15 16  2  0  0  0
 16 17  1  0  0  0
 17 18  2  0  0  0
 18 19  1  0  0  0
 19 20  1  0  0  0
 19 21  2  0  0  0
 11 12  2  0  0  0
  5  6  2  0  0  0
 26 27  2  0  0  0
 27 28  1  0  0  0
 28 29  2  0  0  0
 29 30  1  0  0  0
 29 24  1  0  0  0
  6  1  1  0  0  0
 12  7  1  0  0  0
 21 15  1  0  0  0
 34 35  1  0  0  0
 30 31  1  0  0  0
M  END
> <score>
-0.222359

> <minimizedAffinity>
-8.34197

> <CNNscore>
0.6546207666

> <CNNaffinity>
6.8070449829

> <CNN_VS>
4.4560332298

$$$$
HIPS6135


 40 43  0  0  0  0  0  0  0  0999 V2000
   66.5898   81.0303   90.2340 C   0  0  0  0  0  0  0  0  0  0  0  0
   66.5641   79.7656   89.6263 C   0  0  0  0  0  0  0  0  0  0  0  0
   67.0198   79.6000   88.3073 C   0  0  0  0  0  0  0  0  0  0  0  0
   67.4842   80.7224   87.5977 C   0  0  0  0  0  0  0  0  0  0  0  0
   67.4925   81.9964   88.1902 C   0  0  0  0  0  0  0  0  0  0  0  0
   67.0740   82.1318   89.5242 C   0  0  0  0  0  0  0  0  0  0  0  0
   67.0478   78.2562   87.6769 C   0  0  0  0  0  0  0  0  0  0  0  0
   67.4838   78.1063   86.3497 C   0  0  0  0  0  0  0  0  0  0  0  0
   67.5769   76.8381   85.7743 C   0  0  0  0  0  0  0  0  0  0  0  0
   67.2419   75.7046   86.5155 C   0  0  0  0  0  0  0  0  0  0  0  0
   66.7874   75.8314   87.8363 C   0  0  0  0  0  0  0  0  0  0  0  0
   66.6812   77.1106   88.4082 C   0  0  0  0  0  0  0  0  0  0  0  0
   66.4066   74.6156   88.6422 C   0  0  0  0  0  0  0  0  0  0  0  0
   67.5613   73.8266   88.9371 O   0  0  0  0  0  0  0  0  0  0  0  0
   68.2632   73.8169   90.1543 C   0  0  0  0  0  0  0  0  0  0  0  0
   68.1681   72.6784   90.9562 C   0  0  0  0  0  0  0  0  0  0  0  0
   68.8525   72.6067   92.1696 C   0  0  0  0  0  0  0  0  0  0  0  0
   69.6550   73.6670   92.6013 C   0  0  0  0  0  0  0  0  0  0  0  0
   70.3846   73.4906   93.7796 O   0  0  0  0  0  0  0  0  0  0  0  0
   69.7220   74.8524   91.8278 C   0  0  0  0  0  0  0  0  0  0  0  0
   69.0288   74.9086   90.6045 C   0  0  0  0  0  0  0  0  0  0  0  0
   70.3107   72.6900   94.2609 H   0  0  0  0  0  0  0  0  0  0  0  0
   70.4569   76.0582   92.2708 C   0  0  0  0  0  0  0  0  0  0  0  0
   71.2253   76.6722   91.4837 O   0  0  0  0  0  0  0  0  0  0  0  0
   70.3512   76.4884   93.5901 O   0  0  0  0  0  0  0  0  0  0  0  0
   69.7830   76.0399   94.1850 H   0  0  0  0  0  0  0  0  0  0  0  0
   68.0434   83.1810   87.4360 C   0  0  0  0  0  0  0  0  0  0  0  0
   67.6052   83.1296   86.1260 F   0  0  0  0  0  0  0  0  0  0  0  0
   69.4276   83.1721   87.4481 F   0  0  0  0  0  0  0  0  0  0  0  0
   67.6143   84.3661   88.0093 F   0  0  0  0  0  0  0  0  0  0  0  0
   66.1683   81.2124   91.5553 O   0  0  0  0  0  0  0  0  0  0  0  0
   66.9358   80.7904   92.6809 C   0  0  0  0  0  0  0  0  0  0  0  0
   65.8652   76.7731   93.8430 C   0  0  0  0  0  0  0  0  0  0  0  0
   66.9840   76.9996   93.0186 C   0  0  0  0  0  0  0  0  0  0  0  0
   67.3374   78.3003   92.6523 C   0  0  0  0  0  0  0  0  0  0  0  0
   66.5796   79.3924   93.1017 C   0  0  0  0  0  0  0  0  0  0  0  0
   65.4713   79.1671   93.9322 C   0  0  0  0  0  0  0  0  0  0  0  0
   65.1247   77.8668   94.3070 C   0  0  0  0  0  0  0  0  0  0  0  0
   65.9899   74.7599   95.3168 C   0  0  0  0  0  0  0  0  0  0  0  0
   65.4561   75.4850   94.2140 O   0  0  0  0  0  0  0  0  0  0  0  0
 39 40  1  0  0  0
 40 33  1  0  0  0
 33 34  2  0  0  0
 34 35  1  0  0  0
 35 36  2  0  0  0
 36 32  1  0  0  0
 32 31  1  0  0  0
 31  1  1  0  0  0
  1  2  2  0  0  0
  2  3  1  0  0  0
  3  7  1  0  0  0
  7  8  2  0  0  0
  8  9  1  0  0  0
  9 10  2  0  0  0
 10 11  1  0  0  0
 11 13  1  0  0  0
 13 14  1  0  0  0
 14 15  1  0  0  0
 15 16  2  0  0  0
 16 17  1  0  0  0
 17 18  2  0  0  0
 18 19  1  0  0  0
 18 20  1  0  0  0
 20 23  1  0  0  0
 23 24  2  0  0  0
 23 25  1  0  0  0
 20 21  2  0  0  0
 11 12  2  0  0  0
  3  4  2  0  0  0
  4  5  1  0  0  0
  5 27  1  0  0  0
 27 28  1  0  0  0
 27 29  1  0  0  0
 27 30  1  0  0  0
  5  6  2  0  0  0
 36 37  1  0  0  0
 37 38  2  0  0  0
 38 33  1  0  0  0
  6  1  1  0  0  0
 12  7  1  0  0  0
 21 15  1  0  0  0
 19 22  1  0  0  0
 25 26  1  0  0  0
M  END
> <score>
-0.30878

> <minimizedAffinity>
-8.62557

> <CNNscore>
0.7430098653

> <CNNaffinity>
7.4740991592

> <CNN_VS>
5.5533294678

$$$$
HIPS6135


 40 43  0  0  0  0  0  0  0  0999 V2000
   67.1915   75.4470   88.0700 C   0  0  0  0  0  0  0  0  0  0  0  0
   66.9332   76.4044   89.0630 C   0  0  0  0  0  0  0  0  0  0  0  0
   67.0890   77.7739   88.7894 C   0  0  0  0  0  0  0  0  0  0  0  0
   67.5257   78.1714   87.5126 C   0  0  0  0  0  0  0  0  0  0  0  0
   67.8083   77.2189   86.5191 C   0  0  0  0  0  0  0  0  0  0  0  0
   67.6036   75.8579   86.8000 C   0  0  0  0  0  0  0  0  0  0  0  0
   66.7644   78.7951   89.8170 C   0  0  0  0  0  0  0  0  0  0  0  0
   66.5105   80.1241   89.4383 C   0  0  0  0  0  0  0  0  0  0  0  0
   66.1383   81.0728   90.3920 C   0  0  0  0  0  0  0  0  0  0  0  0
   66.0098   80.7080   91.7323 C   0  0  0  0  0  0  0  0  0  0  0  0
   66.2753   79.3913   92.1362 C   0  0  0  0  0  0  0  0  0  0  0  0
   66.6637   78.4416   91.1759 C   0  0  0  0  0  0  0  0  0  0  0  0
   66.1560   78.9883   93.5839 C   0  0  0  0  0  0  0  0  0  0  0  0
   65.6022   77.6755   93.6960 O   0  0  0  0  0  0  0  0  0  0  0  0
   66.2227   76.5688   94.2996 C   0  0  0  0  0  0  0  0  0  0  0  0
   65.4926   75.8413   95.2409 C   0  0  0  0  0  0  0  0  0  0  0  0
   66.0522   74.7258   95.8642 C   0  0  0  0  0  0  0  0  0  0  0  0
   67.3491   74.3077   95.5512 C   0  0  0  0  0  0  0  0  0  0  0  0
   67.8117   73.1300   96.1434 O   0  0  0  0  0  0  0  0  0  0  0  0
   68.1257   75.0638   94.6384 C   0  0  0  0  0  0  0  0  0  0  0  0
   67.5464   76.1846   94.0152 C   0  0  0  0  0  0  0  0  0  0  0  0
   67.2649   72.6606   96.7422 H   0  0  0  0  0  0  0  0  0  0  0  0
   69.5416   74.7527   94.3409 C   0  0  0  0  0  0  0  0  0  0  0  0
   70.1006   75.2097   93.3088 O   0  0  0  0  0  0  0  0  0  0  0  0
   70.2523   73.8942   95.1745 O   0  0  0  0  0  0  0  0  0  0  0  0
   69.8473   73.5477   95.9452 H   0  0  0  0  0  0  0  0  0  0  0  0
   68.2239   77.6622   85.1384 C   0  0  0  0  0  0  0  0  0  0  0  0
   67.3644   77.1116   84.2062 F   0  0  0  0  0  0  0  0  0  0  0  0
   69.5155   77.2515   84.8572 F   0  0  0  0  0  0  0  0  0  0  0  0
   68.1776   79.0422   85.0352 F   0  0  0  0  0  0  0  0  0  0  0  0
   67.0150   74.0806   88.3118 O   0  0  0  0  0  0  0  0  0  0  0  0
   66.2845   73.5770   89.4284 C   0  0  0  0  0  0  0  0  0  0  0  0
   68.9261   71.9819   92.4473 C   0  0  0  0  0  0  0  0  0  0  0  0
   67.5440   72.0861   92.6961 C   0  0  0  0  0  0  0  0  0  0  0  0
   66.6878   72.5912   91.7150 C   0  0  0  0  0  0  0  0  0  0  0  0
   67.1977   73.0003   90.4734 C   0  0  0  0  0  0  0  0  0  0  0  0
   68.5734   72.8860   90.2218 C   0  0  0  0  0  0  0  0  0  0  0  0
   69.4278   72.3707   91.1995 C   0  0  0  0  0  0  0  0  0  0  0  0
   71.0069   70.7688   93.1103 C   0  0  0  0  0  0  0  0  0  0  0  0
   69.8272   71.5075   93.4100 O   0  0  0  0  0  0  0  0  0  0  0  0
 39 40  1  0  0  0
 40 33  1  0  0  0
 33 34  2  0  0  0
 34 35  1  0  0  0
 35 36  2  0  0  0
 36 32  1  0  0  0
 32 31  1  0  0  0
 31  1  1  0  0  0
  1  2  2  0  0  0
  2  3  1  0  0  0
  3  7  1  0  0  0
  7  8  2  0  0  0
  8  9  1  0  0  0
  9 10  2  0  0  0
 10 11  1  0  0  0
 11 13  1  0  0  0
 13 14  1  0  0  0
 14 15  1  0  0  0
 15 16  2  0  0  0
 16 17  1  0  0  0
 17 18  2  0  0  0
 18 19  1  0  0  0
 18 20  1  0  0  0
 20 23  1  0  0  0
 23 24  2  0  0  0
 23 25  1  0  0  0
 20 21  2  0  0  0
 11 12  2  0  0  0
  3  4  2  0  0  0
  4  5  1  0  0  0
  5 27  1  0  0  0
 27 28  1  0  0  0
 27 29  1  0  0  0
 27 30  1  0  0  0
  5  6  2  0  0  0
 36 37  1  0  0  0
 37 38  2  0  0  0
 38 33  1  0  0  0
  6  1  1  0  0  0
 12  7  1  0  0  0
 21 15  1  0  0  0
 19 22  1  0  0  0
 25 26  1  0  0  0
M  END
> <score>
-0.30878

> <minimizedAffinity>
-7.51205

> <CNNscore>
0.7148609757

> <CNNaffinity>
7.2481393814

> <CNN_VS>
5.1814122200

$$$$
HIPS6135


 40 43  0  0  0  0  0  0  0  0999 V2000
   67.4988   76.6470   89.4218 C   0  0  0  0  0  0  0  0  0  0  0  0
   67.5261   78.0264   89.6790 C   0  0  0  0  0  0  0  0  0  0  0  0
   67.4331   78.9495   88.6236 C   0  0  0  0  0  0  0  0  0  0  0  0
   67.3315   78.4724   87.3040 C   0  0  0  0  0  0  0  0  0  0  0  0
   67.3261   77.0933   87.0351 C   0  0  0  0  0  0  0  0  0  0  0  0
   67.3757   76.1882   88.1081 C   0  0  0  0  0  0  0  0  0  0  0  0
   67.4052   80.4094   88.8920 C   0  0  0  0  0  0  0  0  0  0  0  0
   67.4102   80.8858   90.2138 C   0  0  0  0  0  0  0  0  0  0  0  0
   67.4530   82.2569   90.4715 C   0  0  0  0  0  0  0  0  0  0  0  0
   67.4965   83.1686   89.4165 C   0  0  0  0  0  0  0  0  0  0  0  0
   67.4746   82.7165   88.0889 C   0  0  0  0  0  0  0  0  0  0  0  0
   67.4172   81.3361   87.8325 C   0  0  0  0  0  0  0  0  0  0  0  0
   67.5047   83.6921   86.9401 C   0  0  0  0  0  0  0  0  0  0  0  0
   68.8380   83.8503   86.4500 O   0  0  0  0  0  0  0  0  0  0  0  0
   69.8331   84.6634   87.0182 C   0  0  0  0  0  0  0  0  0  0  0  0
   71.1188   84.1344   87.1431 C   0  0  0  0  0  0  0  0  0  0  0  0
   72.1501   84.8991   87.6885 C   0  0  0  0  0  0  0  0  0  0  0  0
   71.9204   86.2122   88.1101 C   0  0  0  0  0  0  0  0  0  0  0  0
   73.0178   86.9507   88.5596 O   0  0  0  0  0  0  0  0  0  0  0  0
   70.6107   86.7489   88.0414 C   0  0  0  0  0  0  0  0  0  0  0  0
   69.5814   85.9667   87.4857 C   0  0  0  0  0  0  0  0  0  0  0  0
   73.8674   86.5565   88.5891 H   0  0  0  0  0  0  0  0  0  0  0  0
   70.2640   88.0869   88.5704 C   0  0  0  0  0  0  0  0  0  0  0  0
   70.6414   88.4460   89.7173 O   0  0  0  0  0  0  0  0  0  0  0  0
   69.4583   88.9403   87.8224 O   0  0  0  0  0  0  0  0  0  0  0  0
   69.1711   88.6844   86.9680 H   0  0  0  0  0  0  0  0  0  0  0  0
   67.1624   76.5962   85.6203 C   0  0  0  0  0  0  0  0  0  0  0  0
   67.2664   75.2179   85.6078 F   0  0  0  0  0  0  0  0  0  0  0  0
   68.1382   77.1285   84.7953 F   0  0  0  0  0  0  0  0  0  0  0  0
   65.9252   76.9600   85.1160 F   0  0  0  0  0  0  0  0  0  0  0  0
   67.5608   75.7110   90.4595 O   0  0  0  0  0  0  0  0  0  0  0  0
   68.1639   75.9890   91.7217 C   0  0  0  0  0  0  0  0  0  0  0  0
   69.8352   72.4203   93.4845 C   0  0  0  0  0  0  0  0  0  0  0  0
   69.7609   72.5532   92.0846 C   0  0  0  0  0  0  0  0  0  0  0  0
   69.2310   73.7128   91.5142 C   0  0  0  0  0  0  0  0  0  0  0  0
   68.7670   74.7549   92.3313 C   0  0  0  0  0  0  0  0  0  0  0  0
   68.8514   74.6268   93.7261 C   0  0  0  0  0  0  0  0  0  0  0  0
   69.3913   73.4712   94.2959 C   0  0  0  0  0  0  0  0  0  0  0  0
   71.7142   70.9281   94.1798 C   0  0  0  0  0  0  0  0  0  0  0  0
   70.3331   71.2652   94.1023 O   0  0  0  0  0  0  0  0  0  0  0  0
 39 40  1  0  0  0
 40 33  1  0  0  0
 33 34  2  0  0  0
 34 35  1  0  0  0
 35 36  2  0  0  0
 36 32  1  0  0  0
 32 31  1  0  0  0
 31  1  1  0  0  0
  1  2  2  0  0  0
  2  3  1  0  0  0
  3  7  1  0  0  0
  7  8  2  0  0  0
  8  9  1  0  0  0
  9 10  2  0  0  0
 10 11  1  0  0  0
 11 13  1  0  0  0
 13 14  1  0  0  0
 14 15  1  0  0  0
 15 16  2  0  0  0
 16 17  1  0  0  0
 17 18  2  0  0  0
 18 19  1  0  0  0
 18 20  1  0  0  0
 20 23  1  0  0  0
 23 24  2  0  0  0
 23 25  1  0  0  0
 20 21  2  0  0  0
 11 12  2  0  0  0
  3  4  2  0  0  0
  4  5  1  0  0  0
  5 27  1  0  0  0
 27 28  1  0  0  0
 27 29  1  0  0  0
 27 30  1  0  0  0
  5  6  2  0  0  0
 36 37  1  0  0  0
 37 38  2  0  0  0
 38 33  1  0  0  0
  6  1  1  0  0  0
 12  7  1  0  0  0
 21 15  1  0  0  0
 19 22  1  0  0  0
 25 26  1  0  0  0
M  END
> <score>
-0.30878

> <minimizedAffinity>
-8.86444

> <CNNscore>
0.6463665366

> <CNNaffinity>
6.8247337341

> <CNN_VS>
4.4112796783

$$$$
HIPS6136


 28 30  0  0  0  0  0  0  0  0999 V2000
   67.2855   81.9292   89.7469 C   0  0  0  0  0  0  0  0  0  0  0  0
   67.0409   82.1693   91.1108 C   0  0  0  0  0  0  0  0  0  0  0  0
   66.6632   81.1240   91.9567 C   0  0  0  0  0  0  0  0  0  0  0  0
   66.5186   79.8300   91.4534 C   0  0  0  0  0  0  0  0  0  0  0  0
   66.7440   79.5721   90.0931 C   0  0  0  0  0  0  0  0  0  0  0  0
   67.1400   80.6216   89.2482 C   0  0  0  0  0  0  0  0  0  0  0  0
   68.6288   85.2749   88.5205 C   0  0  0  0  0  0  0  0  0  0  0  0
   68.4520   85.1370   87.1398 C   0  0  0  0  0  0  0  0  0  0  0  0
   67.9012   83.9692   86.6095 C   0  0  0  0  0  0  0  0  0  0  0  0
   67.5211   82.9252   87.4551 C   0  0  0  0  0  0  0  0  0  0  0  0
   67.6896   83.0389   88.8464 C   0  0  0  0  0  0  0  0  0  0  0  0
   68.2454   84.2204   89.3728 C   0  0  0  0  0  0  0  0  0  0  0  0
   69.0877   86.9141   90.3527 C   0  0  0  0  0  0  0  0  0  0  0  0
   69.1840   86.4694   89.0035 O   0  0  0  0  0  0  0  0  0  0  0  0
   66.5917   78.1774   89.5446 C   0  0  0  0  0  0  0  0  0  0  0  0
   67.8517   77.6589   89.1158 O   0  0  0  0  0  0  0  0  0  0  0  0
   68.9982   77.5446   89.9190 C   0  0  0  0  0  0  0  0  0  0  0  0
   70.1770   78.2645   89.6633 C   0  0  0  0  0  0  0  0  0  0  0  0
   71.2808   78.1262   90.5051 C   0  0  0  0  0  0  0  0  0  0  0  0
   71.2341   77.2723   91.6122 C   0  0  0  0  0  0  0  0  0  0  0  0
   72.3466   77.2427   92.4562 O   0  0  0  0  0  0  0  0  0  0  0  0
   70.0676   76.5049   91.8553 C   0  0  0  0  0  0  0  0  0  0  0  0
   68.9557   76.6703   91.0100 C   0  0  0  0  0  0  0  0  0  0  0  0
   73.0984   77.7660   92.2590 H   0  0  0  0  0  0  0  0  0  0  0  0
   69.9766   75.5093   92.9461 C   0  0  0  0  0  0  0  0  0  0  0  0
   69.6544   75.8588   94.1130 O   0  0  0  0  0  0  0  0  0  0  0  0
   70.3096   74.1798   92.6999 O   0  0  0  0  0  0  0  0  0  0  0  0
   70.5507   73.9095   91.8357 H   0  0  0  0  0  0  0  0  0  0  0  0
 13 14  1  0  0  0
 14  7  1  0  0  0
  7  8  2  0  0  0
  8  9  1  0  0  0
  9 10  2  0  0  0
 10 11  1  0  0  0
 11  1  1  0  0  0
  1  2  2  0  0  0
  2  3  1  0  0  0
  3  4  2  0  0  0
  4  5  1  0  0  0
  5 15  1  0  0  0
 15 16  1  0  0  0
 16 17  1  0  0  0
 17 18  2  0  0  0
 18 19  1  0  0  0
 19 20  2  0  0  0
 20 21  1  0  0  0
 20 22  1  0  0  0
 22 25  1  0  0  0
 25 26  2  0  0  0
 25 27  1  0  0  0
 22 23  2  0  0  0
  5  6  2  0  0  0
 11 12  2  0  0  0
 12  7  1  0  0  0
  6  1  1  0  0  0
 23 17  1  0  0  0
 21 24  1  0  0  0
 27 28  1  0  0  0
M  END
> <score>
0.143121

> <minimizedAffinity>
-7.05727

> <CNNscore>
0.7320382595

> <CNNaffinity>
5.8259649277

> <CNN_VS>
4.2648291588

$$$$
HIPS6136


 28 30  0  0  0  0  0  0  0  0999 V2000
   67.1813   76.7656   88.8519 C   0  0  0  0  0  0  0  0  0  0  0  0
   66.9995   77.3733   87.5967 C   0  0  0  0  0  0  0  0  0  0  0  0
   66.9230   78.7637   87.4883 C   0  0  0  0  0  0  0  0  0  0  0  0
   67.0204   79.5639   88.6280 C   0  0  0  0  0  0  0  0  0  0  0  0
   67.1877   78.9768   89.8909 C   0  0  0  0  0  0  0  0  0  0  0  0
   67.2811   77.5795   89.9953 C   0  0  0  0  0  0  0  0  0  0  0  0
   66.7336   73.0558   88.1177 C   0  0  0  0  0  0  0  0  0  0  0  0
   67.4251   72.4911   89.1945 C   0  0  0  0  0  0  0  0  0  0  0  0
   68.0317   73.3057   90.1519 C   0  0  0  0  0  0  0  0  0  0  0  0
   67.9536   74.6955   90.0427 C   0  0  0  0  0  0  0  0  0  0  0  0
   67.2654   75.2874   88.9690 C   0  0  0  0  0  0  0  0  0  0  0  0
   66.6560   74.4585   88.0081 C   0  0  0  0  0  0  0  0  0  0  0  0
   66.7422   71.7970   85.9566 C   0  0  0  0  0  0  0  0  0  0  0  0
   66.1391   72.1937   87.1838 O   0  0  0  0  0  0  0  0  0  0  0  0
   67.2956   79.8352   91.1240 C   0  0  0  0  0  0  0  0  0  0  0  0
   66.4407   79.3481   92.1595 O   0  0  0  0  0  0  0  0  0  0  0  0
   66.6419   78.1646   92.8886 C   0  0  0  0  0  0  0  0  0  0  0  0
   65.5799   77.3967   93.3943 C   0  0  0  0  0  0  0  0  0  0  0  0
   65.8371   76.2190   94.0964 C   0  0  0  0  0  0  0  0  0  0  0  0
   67.1496   75.7845   94.3091 C   0  0  0  0  0  0  0  0  0  0  0  0
   67.3310   74.5571   94.9505 O   0  0  0  0  0  0  0  0  0  0  0  0
   68.2318   76.5735   93.8449 C   0  0  0  0  0  0  0  0  0  0  0  0
   67.9566   77.7475   93.1209 C   0  0  0  0  0  0  0  0  0  0  0  0
   66.5879   74.0666   95.2421 H   0  0  0  0  0  0  0  0  0  0  0  0
   69.6458   76.2321   94.1153 C   0  0  0  0  0  0  0  0  0  0  0  0
   70.4294   75.9370   93.1738 O   0  0  0  0  0  0  0  0  0  0  0  0
   70.1055   76.1748   95.4285 O   0  0  0  0  0  0  0  0  0  0  0  0
   69.5309   76.3923   96.1359 H   0  0  0  0  0  0  0  0  0  0  0  0
 13 14  1  0  0  0
 14  7  1  0  0  0
  7  8  2  0  0  0
  8  9  1  0  0  0
  9 10  2  0  0  0
 10 11  1  0  0  0
 11  1  1  0  0  0
  1  2  2  0  0  0
  2  3  1  0  0  0
  3  4  2  0  0  0
  4  5  1  0  0  0
  5 15  1  0  0  0
 15 16  1  0  0  0
 16 17  1  0  0  0
 17 18  2  0  0  0
 18 19  1  0  0  0
 19 20  2  0  0  0
 20 21  1  0  0  0
 20 22  1  0  0  0
 22 25  1  0  0  0
 25 26  2  0  0  0
 25 27  1  0  0  0
 22 23  2  0  0  0
  5  6  2  0  0  0
 11 12  2  0  0  0
 12  7  1  0  0  0
  6  1  1  0  0  0
 23 17  1  0  0  0
 21 24  1  0  0  0
 27 28  1  0  0  0
M  END
> <score>
0.143121

> <minimizedAffinity>
-7.77387

> <CNNscore>
0.6872612238

> <CNNaffinity>
5.8912487030

> <CNN_VS>
4.0488266945

$$$$
HIPS6136


 28 30  0  0  0  0  0  0  0  0999 V2000
   69.4170   82.5909   91.0184 C   0  0  0  0  0  0  0  0  0  0  0  0
   69.0257   83.2383   92.2040 C   0  0  0  0  0  0  0  0  0  0  0  0
   67.8947   82.8111   92.9033 C   0  0  0  0  0  0  0  0  0  0  0  0
   67.1374   81.7394   92.4273 C   0  0  0  0  0  0  0  0  0  0  0  0
   67.5025   81.0893   91.2391 C   0  0  0  0  0  0  0  0  0  0  0  0
   68.6496   81.5100   90.5468 C   0  0  0  0  0  0  0  0  0  0  0  0
   71.6606   84.4766   88.5868 C   0  0  0  0  0  0  0  0  0  0  0  0
   72.9000   83.8926   88.8685 C   0  0  0  0  0  0  0  0  0  0  0  0
   73.0086   82.8948   89.8385 C   0  0  0  0  0  0  0  0  0  0  0  0
   71.8777   82.4700   90.5385 C   0  0  0  0  0  0  0  0  0  0  0  0
   70.6207   83.0422   90.2747 C   0  0  0  0  0  0  0  0  0  0  0  0
   70.5201   84.0475   89.2943 C   0  0  0  0  0  0  0  0  0  0  0  0
   70.5984   85.5561   86.5965 C   0  0  0  0  0  0  0  0  0  0  0  0
   71.6041   85.4734   87.6010 O   0  0  0  0  0  0  0  0  0  0  0  0
   66.6905   79.9308   90.7216 C   0  0  0  0  0  0  0  0  0  0  0  0
   66.4929   78.9516   91.7426 O   0  0  0  0  0  0  0  0  0  0  0  0
   67.4382   77.9925   92.1413 C   0  0  0  0  0  0  0  0  0  0  0  0
   67.1899   77.0648   93.1665 C   0  0  0  0  0  0  0  0  0  0  0  0
   68.1587   76.1214   93.5095 C   0  0  0  0  0  0  0  0  0  0  0  0
   69.3880   76.0830   92.8432 C   0  0  0  0  0  0  0  0  0  0  0  0
   70.2792   75.0630   93.1838 O   0  0  0  0  0  0  0  0  0  0  0  0
   69.6698   77.0426   91.8387 C   0  0  0  0  0  0  0  0  0  0  0  0
   68.6757   77.9743   91.4897 C   0  0  0  0  0  0  0  0  0  0  0  0
   70.0539   74.4486   93.8544 H   0  0  0  0  0  0  0  0  0  0  0  0
   70.9808   77.1284   91.1582 C   0  0  0  0  0  0  0  0  0  0  0  0
   71.9806   76.5041   91.6033 O   0  0  0  0  0  0  0  0  0  0  0  0
   71.1321   77.9557   90.0483 O   0  0  0  0  0  0  0  0  0  0  0  0
   70.3949   78.4244   89.7094 H   0  0  0  0  0  0  0  0  0  0  0  0
 13 14  1  0  0  0
 14  7  1  0  0  0
  7  8  2  0  0  0
  8  9  1  0  0  0
  9 10  2  0  0  0
 10 11  1  0  0  0
 11  1  1  0  0  0
  1  2  2  0  0  0
  2  3  1  0  0  0
  3  4  2  0  0  0
  4  5  1  0  0  0
  5 15  1  0  0  0
 15 16  1  0  0  0
 16 17  1  0  0  0
 17 18  2  0  0  0
 18 19  1  0  0  0
 19 20  2  0  0  0
 20 21  1  0  0  0
 20 22  1  0  0  0
 22 25  1  0  0  0
 25 26  2  0  0  0
 25 27  1  0  0  0
 22 23  2  0  0  0
  5  6  2  0  0  0
 11 12  2  0  0  0
 12  7  1  0  0  0
  6  1  1  0  0  0
 23 17  1  0  0  0
 21 24  1  0  0  0
 27 28  1  0  0  0
M  END
> <score>
0.143121

> <minimizedAffinity>
-7.39047

> <CNNscore>
0.6868451238

> <CNNaffinity>
5.7293319702

> <CNN_VS>
3.9351637363

$$$$
HIPS6189


 35 36  0  0  0  0  0  0  0  0999 V2000
   67.0602   76.4316   87.4548 C   0  0  0  0  0  0  0  0  0  0  0  0
   66.9687   75.6173   88.5611 C   0  0  0  0  0  0  0  0  0  0  0  0
   66.8213   74.3689   88.0888 N   0  0  0  0  0  0  0  0  0  0  0  0
   66.8197   74.4161   86.7656 N   0  0  0  0  0  0  0  0  0  0  0  0
   66.9724   75.6652   86.3491 N   0  0  0  0  0  0  0  0  0  0  0  0
   67.1275   77.9267   87.4487 C   0  0  0  0  0  0  0  0  0  0  0  0
   67.8260   78.4038   88.5996 O   0  0  0  0  0  0  0  0  0  0  0  0
   66.7578   81.8672   90.7703 C   0  0  0  0  0  0  0  0  0  0  0  0
   67.6041   81.9401   89.6554 C   0  0  0  0  0  0  0  0  0  0  0  0
   67.9489   80.7824   88.9516 C   0  0  0  0  0  0  0  0  0  0  0  0
   67.4701   79.5319   89.3591 C   0  0  0  0  0  0  0  0  0  0  0  0
   66.6547   79.4529   90.5043 C   0  0  0  0  0  0  0  0  0  0  0  0
   66.3013   80.6107   91.2015 C   0  0  0  0  0  0  0  0  0  0  0  0
   66.9284   84.9913   93.0543 C   0  0  0  0  0  0  0  0  0  0  0  0
   67.2183   83.6204   92.5375 C   0  0  0  0  0  0  0  0  0  0  0  0
   68.1139   82.9275   93.0916 O   0  0  0  0  0  0  0  0  0  0  0  0
   66.4174   83.0686   91.4819 N   0  0  0  0  0  0  0  0  0  0  0  0
   65.5895   83.5389   91.2315 H   0  0  0  0  0  0  0  0  0  0  0  0
   66.5183   73.1737   88.8690 C   0  0  0  0  0  0  0  0  0  0  0  0
   67.7708   72.6881   89.6036 C   0  0  0  0  0  0  0  0  0  0  0  0
   67.6389   72.8963   91.0455 N   0  0  0  0  0  0  0  0  0  0  0  0
   68.5141   73.7760   91.7727 C   0  0  0  0  0  0  0  0  0  0  0  0
   69.4109   74.4140   91.1564 O   0  0  0  0  0  0  0  0  0  0  0  0
   66.9291   72.4194   91.5333 H   0  0  0  0  0  0  0  0  0  0  0  0
   68.4148   73.9391   93.2699 C   0  0  0  0  0  0  0  0  0  0  0  0
   69.6320   73.4191   94.0023 C   0  0  0  0  0  0  0  0  0  0  0  0
   69.8215   73.6856   95.2183 O   0  0  0  0  0  0  0  0  0  0  0  0
   70.5778   72.5999   93.3083 N   0  0  0  0  0  0  0  0  0  0  0  0
   71.5868   71.9931   93.9775 O   0  0  0  0  0  0  0  0  0  0  0  0
   70.4942   72.4762   92.3352 H   0  0  0  0  0  0  0  0  0  0  0  0
   71.5286   72.2142   94.9202 H   0  0  0  0  0  0  0  0  0  0  0  0
   67.9169   75.3401   93.7404 C   0  0  0  0  0  0  0  0  0  0  0  0
   66.5701   75.4869   94.5069 C   0  0  0  0  0  0  0  0  0  0  0  0
   65.7687   74.1808   94.6165 C   0  0  0  0  0  0  0  0  0  0  0  0
   65.6906   76.6397   94.0177 C   0  0  0  0  0  0  0  0  0  0  0  0
 14 15  1  0  0  0
 15 16  2  0  0  0
 15 17  1  0  0  0
 17  8  1  0  0  0
  8  9  2  0  0  0
  9 10  1  0  0  0
 10 11  2  0  0  0
 11  7  1  0  0  0
  7  6  1  0  0  0
  6  1  1  0  0  0
  1  2  2  0  0  0
  2  3  1  0  0  0
  3 19  1  0  0  0
 19 20  1  0  0  0
 20 21  1  0  0  0
 21 22  1  0  0  0
 22 23  2  0  0  0
 22 25  1  0  0  0
 25 32  1  0  0  0
 32 33  1  0  0  0
 33 34  1  0  0  0
 33 35  1  0  0  0
 25 26  1  0  0  0
 26 27  2  0  0  0
 26 28  1  0  0  0
 28 29  1  0  0  0
  3  4  1  0  0  0
  4  5  2  0  0  0
 11 12  1  0  0  0
 12 13  2  0  0  0
 13  8  1  0  0  0
  5  1  2  0  0  0
 17 18  1  0  0  0
 21 24  1  0  0  0
 28 30  1  0  0  0
 29 31  1  0  0  0
M  END
> <score>
0.752059

> <minimizedAffinity>
-6.15510

> <CNNscore>
0.4911943376

> <CNNaffinity>
6.4577846527

> <CNN_VS>
3.1720273495

$$$$
HIPS6189


 35 36  0  0  0  0  0  0  0  0999 V2000
   67.0645   81.2723   88.3980 C   0  0  0  0  0  0  0  0  0  0  0  0
   67.3347   81.5691   89.7150 C   0  0  0  0  0  0  0  0  0  0  0  0
   66.6528   80.6701   90.4430 N   0  0  0  0  0  0  0  0  0  0  0  0
   65.9983   79.8682   89.6174 N   0  0  0  0  0  0  0  0  0  0  0  0
   66.2378   80.2080   88.3587 N   0  0  0  0  0  0  0  0  0  0  0  0
   67.5037   82.0514   87.1981 C   0  0  0  0  0  0  0  0  0  0  0  0
   67.2131   83.4398   87.3653 O   0  0  0  0  0  0  0  0  0  0  0  0
   70.0789   86.4416   88.1556 C   0  0  0  0  0  0  0  0  0  0  0  0
   69.1246   86.0768   89.1152 C   0  0  0  0  0  0  0  0  0  0  0  0
   68.1822   85.0831   88.8340 C   0  0  0  0  0  0  0  0  0  0  0  0
   68.1648   84.4507   87.5855 C   0  0  0  0  0  0  0  0  0  0  0  0
   69.0958   84.8468   86.6062 C   0  0  0  0  0  0  0  0  0  0  0  0
   70.0445   85.8321   86.8906 C   0  0  0  0  0  0  0  0  0  0  0  0
   73.3809   88.4349   88.5155 C   0  0  0  0  0  0  0  0  0  0  0  0
   72.4580   87.2642   88.4245 C   0  0  0  0  0  0  0  0  0  0  0  0
   72.9383   86.0990   88.3973 O   0  0  0  0  0  0  0  0  0  0  0  0
   71.0375   87.4672   88.4632 N   0  0  0  0  0  0  0  0  0  0  0  0
   70.7015   88.3579   88.7144 H   0  0  0  0  0  0  0  0  0  0  0  0
   66.4860   80.6709   91.8925 C   0  0  0  0  0  0  0  0  0  0  0  0
   66.2032   79.2524   92.3947 C   0  0  0  0  0  0  0  0  0  0  0  0
   67.2548   78.3314   91.9640 N   0  0  0  0  0  0  0  0  0  0  0  0
   67.2307   76.9337   92.3025 C   0  0  0  0  0  0  0  0  0  0  0  0
   66.2656   76.4692   92.9688 O   0  0  0  0  0  0  0  0  0  0  0  0
   68.0023   78.6789   91.4258 H   0  0  0  0  0  0  0  0  0  0  0  0
   68.3497   75.9999   91.9101 C   0  0  0  0  0  0  0  0  0  0  0  0
   69.4439   75.9193   92.9515 C   0  0  0  0  0  0  0  0  0  0  0  0
   70.6373   75.6876   92.6234 O   0  0  0  0  0  0  0  0  0  0  0  0
   69.1229   76.1227   94.3309 N   0  0  0  0  0  0  0  0  0  0  0  0
   70.1030   76.2138   95.2611 O   0  0  0  0  0  0  0  0  0  0  0  0
   68.1806   76.1972   94.6064 H   0  0  0  0  0  0  0  0  0  0  0  0
   70.9671   76.1209   94.8305 H   0  0  0  0  0  0  0  0  0  0  0  0
   67.8812   74.6238   91.3454 C   0  0  0  0  0  0  0  0  0  0  0  0
   67.8736   74.3568   89.8119 C   0  0  0  0  0  0  0  0  0  0  0  0
   67.2365   75.4842   88.9852 C   0  0  0  0  0  0  0  0  0  0  0  0
   67.3120   72.9900   89.4143 C   0  0  0  0  0  0  0  0  0  0  0  0
 14 15  1  0  0  0
 15 16  2  0  0  0
 15 17  1  0  0  0
 17  8  1  0  0  0
  8  9  2  0  0  0
  9 10  1  0  0  0
 10 11  2  0  0  0
 11  7  1  0  0  0
  7  6  1  0  0  0
  6  1  1  0  0  0
  1  2  2  0  0  0
  2  3  1  0  0  0
  3 19  1  0  0  0
 19 20  1  0  0  0
 20 21  1  0  0  0
 21 22  1  0  0  0
 22 23  2  0  0  0
 22 25  1  0  0  0
 25 32  1  0  0  0
 32 33  1  0  0  0
 33 34  1  0  0  0
 33 35  1  0  0  0
 25 26  1  0  0  0
 26 27  2  0  0  0
 26 28  1  0  0  0
 28 29  1  0  0  0
  3  4  1  0  0  0
  4  5  2  0  0  0
 11 12  1  0  0  0
 12 13  2  0  0  0
 13  8  1  0  0  0
  5  1  2  0  0  0
 17 18  1  0  0  0
 21 24  1  0  0  0
 28 30  1  0  0  0
 29 31  1  0  0  0
M  END
> <score>
0.752059

> <minimizedAffinity>
-7.33176

> <CNNscore>
0.4518771172

> <CNNaffinity>
6.1113233566

> <CNN_VS>
2.7615671158

$$$$
HIPS6189


 35 36  0  0  0  0  0  0  0  0999 V2000
   69.9737   77.2995   91.5558 C   0  0  0  0  0  0  0  0  0  0  0  0
   68.8804   77.2048   92.3871 C   0  0  0  0  0  0  0  0  0  0  0  0
   69.2870   76.4945   93.4516 N   0  0  0  0  0  0  0  0  0  0  0  0
   70.5591   76.1694   93.2807 N   0  0  0  0  0  0  0  0  0  0  0  0
   71.0085   76.6557   92.1323 N   0  0  0  0  0  0  0  0  0  0  0  0
   70.0063   77.9053   90.1877 C   0  0  0  0  0  0  0  0  0  0  0  0
   69.2374   79.1085   90.1514 O   0  0  0  0  0  0  0  0  0  0  0  0
   70.9078   82.9375   89.5213 C   0  0  0  0  0  0  0  0  0  0  0  0
   71.6970   81.8615   89.9506 C   0  0  0  0  0  0  0  0  0  0  0  0
   71.1255   80.6024   90.1566 C   0  0  0  0  0  0  0  0  0  0  0  0
   69.7551   80.4007   89.9557 C   0  0  0  0  0  0  0  0  0  0  0  0
   68.9541   81.4912   89.5660 C   0  0  0  0  0  0  0  0  0  0  0  0
   69.5268   82.7470   89.3496 C   0  0  0  0  0  0  0  0  0  0  0  0
   72.1652   86.2221   87.8979 C   0  0  0  0  0  0  0  0  0  0  0  0
   71.7630   84.7891   88.0218 C   0  0  0  0  0  0  0  0  0  0  0  0
   71.7264   84.0659   86.9899 O   0  0  0  0  0  0  0  0  0  0  0  0
   71.5139   84.2245   89.3178 N   0  0  0  0  0  0  0  0  0  0  0  0
   71.7725   84.7477   90.1107 H   0  0  0  0  0  0  0  0  0  0  0  0
   68.4470   75.9871   94.5315 C   0  0  0  0  0  0  0  0  0  0  0  0
   68.7584   74.5117   94.7971 C   0  0  0  0  0  0  0  0  0  0  0  0
   68.5598   73.7144   93.5869 N   0  0  0  0  0  0  0  0  0  0  0  0
   69.5931   72.8693   93.0517 C   0  0  0  0  0  0  0  0  0  0  0  0
   70.7010   72.7834   93.6487 O   0  0  0  0  0  0  0  0  0  0  0  0
   67.6917   73.7577   93.1244 H   0  0  0  0  0  0  0  0  0  0  0  0
   69.4056   72.0976   91.7682 C   0  0  0  0  0  0  0  0  0  0  0  0
   69.8009   70.6426   91.8910 C   0  0  0  0  0  0  0  0  0  0  0  0
   70.1022   69.9633   90.8745 O   0  0  0  0  0  0  0  0  0  0  0  0
   69.8473   70.0296   93.1830 N   0  0  0  0  0  0  0  0  0  0  0  0
   70.3489   68.7811   93.3366 O   0  0  0  0  0  0  0  0  0  0  0  0
   69.5113   70.5201   93.9678 H   0  0  0  0  0  0  0  0  0  0  0  0
   70.6348   68.4392   92.4751 H   0  0  0  0  0  0  0  0  0  0  0  0
   68.0430   72.3472   91.0519 C   0  0  0  0  0  0  0  0  0  0  0  0
   67.9721   73.2175   89.7633 C   0  0  0  0  0  0  0  0  0  0  0  0
   67.9561   74.7301   90.0317 C   0  0  0  0  0  0  0  0  0  0  0  0
   66.8610   72.8133   88.7918 C   0  0  0  0  0  0  0  0  0  0  0  0
 14 15  1  0  0  0
 15 16  2  0  0  0
 15 17  1  0  0  0
 17  8  1  0  0  0
  8  9  2  0  0  0
  9 10  1  0  0  0
 10 11  2  0  0  0
 11  7  1  0  0  0
  7  6  1  0  0  0
  6  1  1  0  0  0
  1  2  2  0  0  0
  2  3  1  0  0  0
  3 19  1  0  0  0
 19 20  1  0  0  0
 20 21  1  0  0  0
 21 22  1  0  0  0
 22 23  2  0  0  0
 22 25  1  0  0  0
 25 32  1  0  0  0
 32 33  1  0  0  0
 33 34  1  0  0  0
 33 35  1  0  0  0
 25 26  1  0  0  0
 26 27  2  0  0  0
 26 28  1  0  0  0
 28 29  1  0  0  0
  3  4  1  0  0  0
  4  5  2  0  0  0
 11 12  1  0  0  0
 12 13  2  0  0  0
 13  8  1  0  0  0
  5  1  2  0  0  0
 17 18  1  0  0  0
 21 24  1  0  0  0
 28 30  1  0  0  0
 29 31  1  0  0  0
M  END
> <score>
0.752059

> <minimizedAffinity>
-7.46793

> <CNNscore>
0.4017912447

> <CNNaffinity>
6.2822055817

> <CNN_VS>
2.5241351128

$$$$
HIPS6202


 25 27  0  0  0  0  0  0  0  0999 V2000
   66.9263   77.1085   92.3602 N   0  0  0  0  0  0  0  0  0  0  0  0
   66.5340   77.9823   92.5880 H   0  0  0  0  0  0  0  0  0  0  0  0
   68.1455   74.3181   94.6006 C   0  0  0  0  0  0  0  0  0  0  0  0
   68.1167   75.3025   93.5924 C   0  0  0  0  0  0  0  0  0  0  0  0
   66.9794   76.1068   93.3947 C   0  0  0  0  0  0  0  0  0  0  0  0
   65.8710   75.9336   94.2321 C   0  0  0  0  0  0  0  0  0  0  0  0
   65.8854   74.9663   95.2361 C   0  0  0  0  0  0  0  0  0  0  0  0
   67.0109   74.1541   95.4266 C   0  0  0  0  0  0  0  0  0  0  0  0
   66.9937   73.1906   96.4351 O   0  0  0  0  0  0  0  0  0  0  0  0
   66.2349   73.0921   96.9759 H   0  0  0  0  0  0  0  0  0  0  0  0
   69.5344   72.8205   95.8323 O   0  0  0  0  0  0  0  0  0  0  0  0
   69.3620   73.4805   94.7715 C   0  0  0  0  0  0  0  0  0  0  0  0
   70.3277   73.4089   93.7713 O   0  0  0  0  0  0  0  0  0  0  0  0
   70.2160   73.8926   92.9766 H   0  0  0  0  0  0  0  0  0  0  0  0
   67.4156   76.9165   90.9936 C   0  0  0  0  0  0  0  0  0  0  0  0
   68.5719   77.8385   90.7046 C   0  0  0  0  0  0  0  0  0  0  0  0
   68.3690   79.1100   90.1195 C   0  0  0  0  0  0  0  0  0  0  0  0
   69.4619   79.9693   89.8633 C   0  0  0  0  0  0  0  0  0  0  0  0
   70.7735   79.5718   90.1793 C   0  0  0  0  0  0  0  0  0  0  0  0
   70.9458   78.3116   90.7446 C   0  0  0  0  0  0  0  0  0  0  0  0
   72.0893   77.7181   91.1181 N   0  0  0  0  0  0  0  0  0  0  0  0
   71.7991   76.5163   91.6032 N   0  0  0  0  0  0  0  0  0  0  0  0
   70.4569   76.3405   91.5400 C   0  0  0  0  0  0  0  0  0  0  0  0
   69.8935   77.4777   90.9949 C   0  0  0  0  0  0  0  0  0  0  0  0
   72.9907   78.1073   91.0451 H   0  0  0  0  0  0  0  0  0  0  0  0
 11 12  2  0  0  0
 12 13  1  0  0  0
 12  3  1  0  0  0
  3  4  2  0  0  0
  4  5  1  0  0  0
  5  1  1  0  0  0
  1 15  1  0  0  0
 15 16  1  0  0  0
 16 17  2  0  0  0
 17 18  1  0  0  0
 18 19  2  0  0  0
 19 20  1  0  0  0
 20 21  1  0  0  0
 21 22  1  0  0  0
 22 23  2  0  0  0
 23 24  1  0  0  0
  5  6  2  0  0  0
  6  7  1  0  0  0
  7  8  2  0  0  0
  8  9  1  0  0  0
  8  3  1  0  0  0
 24 16  1  0  0  0
 24 20  2  0  0  0
 13 14  1  0  0  0
  1  2  1  0  0  0
 21 25  1  0  0  0
  9 10  1  0  0  0
M  END
> <score>
1.153769

> <minimizedAffinity>
-7.38827

> <CNNscore>
0.5821059942

> <CNNaffinity>
5.0412111282

> <CNN_VS>
2.9345192909

$$$$
HIPS6202


 25 27  0  0  0  0  0  0  0  0999 V2000
   68.7372   80.3615   89.7497 N   0  0  0  0  0  0  0  0  0  0  0  0
   68.6170   80.2891   88.7753 H   0  0  0  0  0  0  0  0  0  0  0  0
   68.9990   77.0123   91.4837 C   0  0  0  0  0  0  0  0  0  0  0  0
   69.3287   78.1406   90.7062 C   0  0  0  0  0  0  0  0  0  0  0  0
   68.4233   79.2064   90.5519 C   0  0  0  0  0  0  0  0  0  0  0  0
   67.1854   79.1456   91.2029 C   0  0  0  0  0  0  0  0  0  0  0  0
   66.8459   78.0377   91.9783 C   0  0  0  0  0  0  0  0  0  0  0  0
   67.7395   76.9684   92.1225 C   0  0  0  0  0  0  0  0  0  0  0  0
   67.3694   75.8706   92.8994 O   0  0  0  0  0  0  0  0  0  0  0  0
   66.5312   75.8539   93.3177 H   0  0  0  0  0  0  0  0  0  0  0  0
   69.6172   74.7098   91.4127 O   0  0  0  0  0  0  0  0  0  0  0  0
   69.9785   75.9013   91.6139 C   0  0  0  0  0  0  0  0  0  0  0  0
   71.3038   76.1525   91.9583 O   0  0  0  0  0  0  0  0  0  0  0  0
   71.5895   77.0316   92.1114 H   0  0  0  0  0  0  0  0  0  0  0  0
   69.2226   81.6354   90.2839 C   0  0  0  0  0  0  0  0  0  0  0  0
   69.8254   82.4793   89.1906 C   0  0  0  0  0  0  0  0  0  0  0  0
   69.0664   82.8736   88.0642 C   0  0  0  0  0  0  0  0  0  0  0  0
   69.6415   83.6741   87.0508 C   0  0  0  0  0  0  0  0  0  0  0  0
   70.9829   84.0873   87.1409 C   0  0  0  0  0  0  0  0  0  0  0  0
   71.7098   83.6766   88.2545 C   0  0  0  0  0  0  0  0  0  0  0  0
   72.9919   83.9359   88.5514 N   0  0  0  0  0  0  0  0  0  0  0  0
   73.2831   83.3452   89.7048 N   0  0  0  0  0  0  0  0  0  0  0  0
   72.1759   82.7030   90.1497 C   0  0  0  0  0  0  0  0  0  0  0  0
   71.1590   82.9038   89.2369 C   0  0  0  0  0  0  0  0  0  0  0  0
   73.6118   84.4729   88.0069 H   0  0  0  0  0  0  0  0  0  0  0  0
 11 12  2  0  0  0
 12 13  1  0  0  0
 12  3  1  0  0  0
  3  4  2  0  0  0
  4  5  1  0  0  0
  5  1  1  0  0  0
  1 15  1  0  0  0
 15 16  1  0  0  0
 16 17  2  0  0  0
 17 18  1  0  0  0
 18 19  2  0  0  0
 19 20  1  0  0  0
 20 21  1  0  0  0
 21 22  1  0  0  0
 22 23  2  0  0  0
 23 24  1  0  0  0
  5  6  2  0  0  0
  6  7  1  0  0  0
  7  8  2  0  0  0
  8  9  1  0  0  0
  8  3  1  0  0  0
 24 16  1  0  0  0
 24 20  2  0  0  0
 13 14  1  0  0  0
  1  2  1  0  0  0
 21 25  1  0  0  0
  9 10  1  0  0  0
M  END
> <score>
1.153769

> <minimizedAffinity>
-6.23727

> <CNNscore>
0.5093816519

> <CNNaffinity>
4.8809328079

> <CNN_VS>
2.4862575531

$$$$
HIPS6202


 25 27  0  0  0  0  0  0  0  0999 V2000
   69.4724   80.3331   89.6163 N   0  0  0  0  0  0  0  0  0  0  0  0
   69.1724   80.3303   88.6786 H   0  0  0  0  0  0  0  0  0  0  0  0
   69.0604   76.9736   91.3004 C   0  0  0  0  0  0  0  0  0  0  0  0
   68.7518   78.2060   90.6902 C   0  0  0  0  0  0  0  0  0  0  0  0
   69.7680   79.0633   90.2298 C   0  0  0  0  0  0  0  0  0  0  0  0
   71.1040   78.6671   90.3650 C   0  0  0  0  0  0  0  0  0  0  0  0
   71.4251   77.4495   90.9634 C   0  0  0  0  0  0  0  0  0  0  0  0
   70.4163   76.5998   91.4357 C   0  0  0  0  0  0  0  0  0  0  0  0
   70.7684   75.3909   92.0357 O   0  0  0  0  0  0  0  0  0  0  0  0
   71.6714   75.1549   92.1193 H   0  0  0  0  0  0  0  0  0  0  0  0
   68.0391   74.8477   91.6563 O   0  0  0  0  0  0  0  0  0  0  0  0
   67.9588   76.0999   91.7838 C   0  0  0  0  0  0  0  0  0  0  0  0
   66.8251   76.6429   92.3822 O   0  0  0  0  0  0  0  0  0  0  0  0
   66.7486   77.5710   92.4851 H   0  0  0  0  0  0  0  0  0  0  0  0
   69.5873   81.6274   90.2912 C   0  0  0  0  0  0  0  0  0  0  0  0
   70.7150   82.4378   89.7062 C   0  0  0  0  0  0  0  0  0  0  0  0
   72.0081   82.4172   90.2786 C   0  0  0  0  0  0  0  0  0  0  0  0
   73.0597   83.1744   89.7134 C   0  0  0  0  0  0  0  0  0  0  0  0
   72.8368   83.9687   88.5743 C   0  0  0  0  0  0  0  0  0  0  0  0
   71.5526   83.9788   88.0375 C   0  0  0  0  0  0  0  0  0  0  0  0
   71.1031   84.6581   86.9718 N   0  0  0  0  0  0  0  0  0  0  0  0
   69.8131   84.3845   86.8136 N   0  0  0  0  0  0  0  0  0  0  0  0
   69.4349   83.5210   87.7871 C   0  0  0  0  0  0  0  0  0  0  0  0
   70.5332   83.2487   88.5791 C   0  0  0  0  0  0  0  0  0  0  0  0
   71.6385   85.2578   86.4035 H   0  0  0  0  0  0  0  0  0  0  0  0
 11 12  2  0  0  0
 12 13  1  0  0  0
 12  3  1  0  0  0
  3  4  2  0  0  0
  4  5  1  0  0  0
  5  1  1  0  0  0
  1 15  1  0  0  0
 15 16  1  0  0  0
 16 17  2  0  0  0
 17 18  1  0  0  0
 18 19  2  0  0  0
 19 20  1  0  0  0
 20 21  1  0  0  0
 21 22  1  0  0  0
 22 23  2  0  0  0
 23 24  1  0  0  0
  5  6  2  0  0  0
  6  7  1  0  0  0
  7  8  2  0  0  0
  8  9  1  0  0  0
  8  3  1  0  0  0
 24 16  1  0  0  0
 24 20  2  0  0  0
 13 14  1  0  0  0
  1  2  1  0  0  0
 21 25  1  0  0  0
  9 10  1  0  0  0
M  END
> <score>
1.153769

> <minimizedAffinity>
-7.06519

> <CNNscore>
0.5031217933

> <CNNaffinity>
4.9537162781

> <CNN_VS>
2.4923226833

$$$$
HIPS6245


 35 37  0  0  0  0  0  0  0  0999 V2000
   67.0469   80.1781   90.6303 C   0  0  0  0  0  0  0  0  0  0  0  0
   66.3301   80.5816   91.7712 C   0  0  0  0  0  0  0  0  0  0  0  0
   66.1338   79.6960   92.8335 C   0  0  0  0  0  0  0  0  0  0  0  0
   66.6457   78.3986   92.7704 C   0  0  0  0  0  0  0  0  0  0  0  0
   67.3484   77.9718   91.6343 C   0  0  0  0  0  0  0  0  0  0  0  0
   67.5582   78.8682   90.5743 C   0  0  0  0  0  0  0  0  0  0  0  0
   67.8121   83.3589   88.6961 C   0  0  0  0  0  0  0  0  0  0  0  0
   67.7084   82.9047   87.3764 C   0  0  0  0  0  0  0  0  0  0  0  0
   67.3809   81.5726   87.1170 C   0  0  0  0  0  0  0  0  0  0  0  0
   67.1613   80.6848   88.1732 C   0  0  0  0  0  0  0  0  0  0  0  0
   67.2683   81.1226   89.5058 C   0  0  0  0  0  0  0  0  0  0  0  0
   67.5960   82.4679   89.7570 C   0  0  0  0  0  0  0  0  0  0  0  0
   68.2631   85.0337   89.0117 S   0  0  0  0  0  0  0  0  0  0  0  0
   67.2299   85.7020   89.8773 O   0  0  0  0  0  0  0  0  0  0  0  0
   68.3241   85.7696   87.7031 O   0  0  0  0  0  0  0  0  0  0  0  0
   69.7862   85.1080   89.7514 O   0  0  0  0  0  0  0  0  0  0  0  0
   70.5243   83.9626   89.3886 C   0  0  0  0  0  0  0  0  0  0  0  0
   72.9952   83.7762   88.8768 C   0  0  0  0  0  0  0  0  0  0  0  0
   71.6441   84.3381   88.3900 C   0  0  0  0  0  0  0  0  0  0  0  0
   71.3218   83.7679   86.9939 C   0  0  0  0  0  0  0  0  0  0  0  0
   71.7424   85.8737   88.2961 C   0  0  0  0  0  0  0  0  0  0  0  0
   67.9405   76.5938   91.5838 C   0  0  0  0  0  0  0  0  0  0  0  0
   66.9598   75.6489   92.0026 O   0  0  0  0  0  0  0  0  0  0  0  0
   66.9828   74.9710   93.2302 C   0  0  0  0  0  0  0  0  0  0  0  0
   65.8436   74.8434   94.0423 C   0  0  0  0  0  0  0  0  0  0  0  0
   65.9223   74.1677   95.2606 C   0  0  0  0  0  0  0  0  0  0  0  0
   67.1306   73.6107   95.6930 C   0  0  0  0  0  0  0  0  0  0  0  0
   67.1586   73.0178   96.9569 O   0  0  0  0  0  0  0  0  0  0  0  0
   68.2766   73.6963   94.8653 C   0  0  0  0  0  0  0  0  0  0  0  0
   68.1883   74.3984   93.6492 C   0  0  0  0  0  0  0  0  0  0  0  0
   66.3784   72.9809   97.4745 H   0  0  0  0  0  0  0  0  0  0  0  0
   69.5563   73.0410   95.2139 C   0  0  0  0  0  0  0  0  0  0  0  0
   69.6827   72.4554   96.3234 O   0  0  0  0  0  0  0  0  0  0  0  0
   70.6483   73.1167   94.3545 O   0  0  0  0  0  0  0  0  0  0  0  0
   70.5647   73.5497   93.5278 H   0  0  0  0  0  0  0  0  0  0  0  0
 18 19  1  0  0  0
 19 20  1  0  0  0
 19 21  1  0  0  0
 19 17  1  0  0  0
 17 16  1  0  0  0
 16 13  1  0  0  0
 13 14  2  0  0  0
 13 15  2  0  0  0
 13  7  1  0  0  0
  7  8  2  0  0  0
  8  9  1  0  0  0
  9 10  2  0  0  0
 10 11  1  0  0  0
 11  1  1  0  0  0
  1  2  2  0  0  0
  2  3  1  0  0  0
  3  4  2  0  0  0
  4  5  1  0  0  0
  5 22  1  0  0  0
 22 23  1  0  0  0
 23 24  1  0  0  0
 24 25  2  0  0  0
 25 26  1  0  0  0
 26 27  2  0  0  0
 27 28  1  0  0  0
 27 29  1  0  0  0
 29 32  1  0  0  0
 32 33  2  0  0  0
 32 34  1  0  0  0
 29 30  2  0  0  0
  5  6  2  0  0  0
 11 12  2  0  0  0
 12  7  1  0  0  0
  6  1  1  0  0  0
 30 24  1  0  0  0
 28 31  1  0  0  0
 34 35  1  0  0  0
M  END
> <score>
0.047374

> <minimizedAffinity>
-8.00186

> <CNNscore>
0.5665382147

> <CNNaffinity>
6.2480478287

> <CNN_VS>
3.5397579670

$$$$
HIPS6245


 35 37  0  0  0  0  0  0  0  0999 V2000
   67.2680   76.4518   87.7642 C   0  0  0  0  0  0  0  0  0  0  0  0
   67.5182   76.6846   86.3998 C   0  0  0  0  0  0  0  0  0  0  0  0
   67.5676   77.9887   85.9017 C   0  0  0  0  0  0  0  0  0  0  0  0
   67.3652   79.0749   86.7553 C   0  0  0  0  0  0  0  0  0  0  0  0
   67.0974   78.8631   88.1155 C   0  0  0  0  0  0  0  0  0  0  0  0
   67.0637   77.5523   88.6173 C   0  0  0  0  0  0  0  0  0  0  0  0
   67.7241   73.4676   90.0730 C   0  0  0  0  0  0  0  0  0  0  0  0
   67.1347   72.4480   89.3168 C   0  0  0  0  0  0  0  0  0  0  0  0
   66.6009   72.7279   88.0576 C   0  0  0  0  0  0  0  0  0  0  0  0
   66.6465   74.0282   87.5486 C   0  0  0  0  0  0  0  0  0  0  0  0
   67.2287   75.0666   88.2980 C   0  0  0  0  0  0  0  0  0  0  0  0
   67.7668   74.7739   89.5649 C   0  0  0  0  0  0  0  0  0  0  0  0
   68.3611   73.1100   91.6773 S   0  0  0  0  0  0  0  0  0  0  0  0
   69.8572   72.9595   91.6273 O   0  0  0  0  0  0  0  0  0  0  0  0
   67.7754   71.8088   92.1479 O   0  0  0  0  0  0  0  0  0  0  0  0
   67.9298   74.3303   92.7717 O   0  0  0  0  0  0  0  0  0  0  0  0
   67.2176   73.7505   93.8417 C   0  0  0  0  0  0  0  0  0  0  0  0
   66.9287   73.7593   96.3554 C   0  0  0  0  0  0  0  0  0  0  0  0
   67.8690   74.1328   95.1915 C   0  0  0  0  0  0  0  0  0  0  0  0
   69.2133   73.3959   95.3583 C   0  0  0  0  0  0  0  0  0  0  0  0
   68.1218   75.6533   95.2171 C   0  0  0  0  0  0  0  0  0  0  0  0
   66.9268   80.0296   89.0440 C   0  0  0  0  0  0  0  0  0  0  0  0
   68.0862   80.1468   89.8639 O   0  0  0  0  0  0  0  0  0  0  0  0
   68.6882   79.0794   90.5461 C   0  0  0  0  0  0  0  0  0  0  0  0
   67.9882   78.2832   91.4678 C   0  0  0  0  0  0  0  0  0  0  0  0
   68.6369   77.2391   92.1282 C   0  0  0  0  0  0  0  0  0  0  0  0
   69.9884   76.9701   91.8868 C   0  0  0  0  0  0  0  0  0  0  0  0
   70.5960   75.9628   92.6392 O   0  0  0  0  0  0  0  0  0  0  0  0
   70.6950   77.7386   90.9298 C   0  0  0  0  0  0  0  0  0  0  0  0
   70.0343   78.8014   90.2868 C   0  0  0  0  0  0  0  0  0  0  0  0
   70.0938   75.4763   93.2630 H   0  0  0  0  0  0  0  0  0  0  0  0
   72.0939   77.4412   90.5517 C   0  0  0  0  0  0  0  0  0  0  0  0
   72.8365   76.7961   91.3405 O   0  0  0  0  0  0  0  0  0  0  0  0
   72.6221   77.9208   89.3568 O   0  0  0  0  0  0  0  0  0  0  0  0
   72.0787   78.4014   88.7637 H   0  0  0  0  0  0  0  0  0  0  0  0
 18 19  1  0  0  0
 19 20  1  0  0  0
 19 21  1  0  0  0
 19 17  1  0  0  0
 17 16  1  0  0  0
 16 13  1  0  0  0
 13 14  2  0  0  0
 13 15  2  0  0  0
 13  7  1  0  0  0
  7  8  2  0  0  0
  8  9  1  0  0  0
  9 10  2  0  0  0
 10 11  1  0  0  0
 11  1  1  0  0  0
  1  2  2  0  0  0
  2  3  1  0  0  0
  3  4  2  0  0  0
  4  5  1  0  0  0
  5 22  1  0  0  0
 22 23  1  0  0  0
 23 24  1  0  0  0
 24 25  2  0  0  0
 25 26  1  0  0  0
 26 27  2  0  0  0
 27 28  1  0  0  0
 27 29  1  0  0  0
 29 32  1  0  0  0
 32 33  2  0  0  0
 32 34  1  0  0  0
 29 30  2  0  0  0
  5  6  2  0  0  0
 11 12  2  0  0  0
 12  7  1  0  0  0
  6  1  1  0  0  0
 30 24  1  0  0  0
 28 31  1  0  0  0
 34 35  1  0  0  0
M  END
> <score>
0.047374

> <minimizedAffinity>
-8.01468

> <CNNscore>
0.5396121144

> <CNNaffinity>
6.7450494766

> <CNN_VS>
3.6397104263

$$$$
HIPS6245


 35 37  0  0  0  0  0  0  0  0999 V2000
   67.1472   79.0031   89.0537 C   0  0  0  0  0  0  0  0  0  0  0  0
   66.9575   78.6306   87.7107 C   0  0  0  0  0  0  0  0  0  0  0  0
   66.9861   77.2844   87.3388 C   0  0  0  0  0  0  0  0  0  0  0  0
   67.2074   76.2949   88.2985 C   0  0  0  0  0  0  0  0  0  0  0  0
   67.4160   76.6470   89.6399 C   0  0  0  0  0  0  0  0  0  0  0  0
   67.3711   77.9994   90.0144 C   0  0  0  0  0  0  0  0  0  0  0  0
   67.7276   82.7590   89.0639 C   0  0  0  0  0  0  0  0  0  0  0  0
   67.0021   83.1417   90.1978 C   0  0  0  0  0  0  0  0  0  0  0  0
   66.3359   82.1814   90.9613 C   0  0  0  0  0  0  0  0  0  0  0  0
   66.3847   80.8344   90.5938 C   0  0  0  0  0  0  0  0  0  0  0  0
   67.1034   80.4327   89.4531 C   0  0  0  0  0  0  0  0  0  0  0  0
   67.7740   81.4079   88.6917 C   0  0  0  0  0  0  0  0  0  0  0  0
   68.5336   83.9848   88.0864 S   0  0  0  0  0  0  0  0  0  0  0  0
   67.7171   85.2480   88.0494 O   0  0  0  0  0  0  0  0  0  0  0  0
   68.6629   83.4699   86.6808 O   0  0  0  0  0  0  0  0  0  0  0  0
   70.0826   84.3043   88.6955 O   0  0  0  0  0  0  0  0  0  0  0  0
   70.8959   83.1715   88.4867 C   0  0  0  0  0  0  0  0  0  0  0  0
   71.2071   81.1365   89.9578 C   0  0  0  0  0  0  0  0  0  0  0  0
   71.4536   82.6538   89.8333 C   0  0  0  0  0  0  0  0  0  0  0  0
   72.9662   82.9394   89.9250 C   0  0  0  0  0  0  0  0  0  0  0  0
   70.7338   83.3769   90.9889 C   0  0  0  0  0  0  0  0  0  0  0  0
   67.6064   75.5832   90.6810 C   0  0  0  0  0  0  0  0  0  0  0  0
   66.9768   75.9959   91.8906 O   0  0  0  0  0  0  0  0  0  0  0  0
   67.0012   75.2663   93.0883 C   0  0  0  0  0  0  0  0  0  0  0  0
   65.8713   75.1315   93.9119 C   0  0  0  0  0  0  0  0  0  0  0  0
   65.9513   74.4033   95.0995 C   0  0  0  0  0  0  0  0  0  0  0  0
   67.1519   73.8002   95.4893 C   0  0  0  0  0  0  0  0  0  0  0  0
   67.1840   73.1539   96.7267 O   0  0  0  0  0  0  0  0  0  0  0  0
   68.2875   73.8935   94.6482 C   0  0  0  0  0  0  0  0  0  0  0  0
   68.1984   74.6483   93.4640 C   0  0  0  0  0  0  0  0  0  0  0  0
   66.4107   73.1135   97.2543 H   0  0  0  0  0  0  0  0  0  0  0  0
   69.5558   73.1940   94.9490 C   0  0  0  0  0  0  0  0  0  0  0  0
   70.4961   73.2051   94.1092 O   0  0  0  0  0  0  0  0  0  0  0  0
   69.7022   72.4677   96.1270 O   0  0  0  0  0  0  0  0  0  0  0  0
   69.0092   72.4530   96.7576 H   0  0  0  0  0  0  0  0  0  0  0  0
 18 19  1  0  0  0
 19 20  1  0  0  0
 19 21  1  0  0  0
 19 17  1  0  0  0
 17 16  1  0  0  0
 16 13  1  0  0  0
 13 14  2  0  0  0
 13 15  2  0  0  0
 13  7  1  0  0  0
  7  8  2  0  0  0
  8  9  1  0  0  0
  9 10  2  0  0  0
 10 11  1  0  0  0
 11  1  1  0  0  0
  1  2  2  0  0  0
  2  3  1  0  0  0
  3  4  2  0  0  0
  4  5  1  0  0  0
  5 22  1  0  0  0
 22 23  1  0  0  0
 23 24  1  0  0  0
 24 25  2  0  0  0
 25 26  1  0  0  0
 26 27  2  0  0  0
 27 28  1  0  0  0
 27 29  1  0  0  0
 29 32  1  0  0  0
 32 33  2  0  0  0
 32 34  1  0  0  0
 29 30  2  0  0  0
  5  6  2  0  0  0
 11 12  2  0  0  0
 12  7  1  0  0  0
  6  1  1  0  0  0
 30 24  1  0  0  0
 28 31  1  0  0  0
 34 35  1  0  0  0
M  END
> <score>
0.047374

> <minimizedAffinity>
-8.37710

> <CNNscore>
0.4524128139

> <CNNaffinity>
6.5428085327

> <CNN_VS>
2.9600503445

$$$$
HIPS6246


 34 37  0  0  0  0  0  0  0  0999 V2000
   67.0699   76.2958   88.1460 C   0  0  0  0  0  0  0  0  0  0  0  0
   66.1578   76.9775   87.3976 C   0  0  0  0  0  0  0  0  0  0  0  0
   66.2646   78.3473   87.2972 C   0  0  0  0  0  0  0  0  0  0  0  0
   67.2785   79.0196   87.9443 C   0  0  0  0  0  0  0  0  0  0  0  0
   68.2220   78.3642   88.7124 C   0  0  0  0  0  0  0  0  0  0  0  0
   68.0914   77.0001   88.7946 C   0  0  0  0  0  0  0  0  0  0  0  0
   69.2709   79.1330   89.3721 C   0  0  0  0  0  0  0  0  0  0  0  0
   70.4066   78.5400   89.8833 C   0  0  0  0  0  0  0  0  0  0  0  0
   71.3973   79.2671   90.5067 C   0  0  0  0  0  0  0  0  0  0  0  0
   71.2810   80.6485   90.6426 C   0  0  0  0  0  0  0  0  0  0  0  0
   70.1587   81.2656   90.1411 C   0  0  0  0  0  0  0  0  0  0  0  0
   69.1649   80.4916   89.5098 C   0  0  0  0  0  0  0  0  0  0  0  0
   70.0061   82.6056   90.2489 O   0  0  0  0  0  0  0  0  0  0  0  0
   70.0492   83.6582   89.3868 C   0  0  0  0  0  0  0  0  0  0  0  0
   70.9434   83.5599   88.1928 C   0  0  0  0  0  0  0  0  0  0  0  0
   72.3013   84.1323   88.6330 C   0  0  0  0  0  0  0  0  0  0  0  0
   72.5326   85.5139   88.1169 C   0  0  0  0  0  0  0  0  0  0  0  0
   71.3227   86.3913   88.1157 C   0  0  0  0  0  0  0  0  0  0  0  0
   70.1587   85.7238   87.7605 O   0  0  0  0  0  0  0  0  0  0  0  0
   70.4763   84.5448   87.1043 C   0  0  0  0  0  0  0  0  0  0  0  0
   67.0050   74.8099   88.2787 C   0  0  0  0  0  0  0  0  0  0  0  0
   67.0636   74.2912   89.5102 O   0  0  0  0  0  0  0  0  0  0  0  0
   69.4430   74.4807   92.3132 C   0  0  0  0  0  0  0  0  0  0  0  0
   68.5099   74.8689   91.3496 C   0  0  0  0  0  0  0  0  0  0  0  0
   67.9659   73.9840   90.4595 C   0  0  0  0  0  0  0  0  0  0  0  0
   68.4140   72.6445   90.5805 C   0  0  0  0  0  0  0  0  0  0  0  0
   69.3186   72.2273   91.5022 C   0  0  0  0  0  0  0  0  0  0  0  0
   69.8312   73.1663   92.3727 C   0  0  0  0  0  0  0  0  0  0  0  0
   70.7572   72.7765   93.3279 O   0  0  0  0  0  0  0  0  0  0  0  0
   71.0300   71.8814   93.3781 H   0  0  0  0  0  0  0  0  0  0  0  0
   70.7507   76.3524   92.8388 O   0  0  0  0  0  0  0  0  0  0  0  0
   69.9990   75.4427   93.2406 C   0  0  0  0  0  0  0  0  0  0  0  0
   69.7220   75.3925   94.5966 O   0  0  0  0  0  0  0  0  0  0  0  0
   69.1611   74.7230   94.9357 H   0  0  0  0  0  0  0  0  0  0  0  0
 31 32  2  0  0  0
 32 33  1  0  0  0
 32 23  1  0  0  0
 23 24  2  0  0  0
 24 25  1  0  0  0
 25 22  1  0  0  0
 22 21  1  0  0  0
 21  1  1  0  0  0
  1  2  2  0  0  0
  2  3  1  0  0  0
  3  4  2  0  0  0
  4  5  1  0  0  0
  5  7  1  0  0  0
  7  8  2  0  0  0
  8  9  1  0  0  0
  9 10  2  0  0  0
 10 11  1  0  0  0
 11 13  1  0  0  0
 13 14  1  0  0  0
 15 14  1  0  0  0
 15 16  1  0  0  0
 16 17  1  0  0  0
 17 18  1  0  0  0
 18 19  1  0  0  0
 19 20  1  0  0  0
 11 12  2  0  0  0
  5  6  2  0  0  0
 25 26  2  0  0  0
 26 27  1  0  0  0
 27 28  2  0  0  0
 28 29  1  0  0  0
 28 23  1  0  0  0
  6  1  1  0  0  0
 12  7  1  0  0  0
 20 15  1  0  0  0
 33 34  1  0  0  0
 29 30  1  0  0  0
M  END
> <score>
-0.091551

> <minimizedAffinity>
-8.11590

> <CNNscore>
0.7217354774

> <CNNaffinity>
6.4815597534

> <CNN_VS>
4.6779718399

$$$$
HIPS6246


 34 37  0  0  0  0  0  0  0  0999 V2000
   66.8080   77.4687   93.1442 C   0  0  0  0  0  0  0  0  0  0  0  0
   65.8662   78.0197   93.9602 C   0  0  0  0  0  0  0  0  0  0  0  0
   65.2762   79.2093   93.5930 C   0  0  0  0  0  0  0  0  0  0  0  0
   65.6330   79.8341   92.4178 C   0  0  0  0  0  0  0  0  0  0  0  0
   66.5836   79.3072   91.5643 C   0  0  0  0  0  0  0  0  0  0  0  0
   67.1546   78.1215   91.9551 C   0  0  0  0  0  0  0  0  0  0  0  0
   66.9171   80.0168   90.3349 C   0  0  0  0  0  0  0  0  0  0  0  0
   66.1305   79.9393   89.2044 C   0  0  0  0  0  0  0  0  0  0  0  0
   66.4463   80.6100   88.0428 C   0  0  0  0  0  0  0  0  0  0  0  0
   67.5903   81.4016   87.9725 C   0  0  0  0  0  0  0  0  0  0  0  0
   68.3924   81.4971   89.0858 C   0  0  0  0  0  0  0  0  0  0  0  0
   68.0397   80.7976   90.2571 C   0  0  0  0  0  0  0  0  0  0  0  0
   69.5115   82.2571   89.0625 O   0  0  0  0  0  0  0  0  0  0  0  0
   69.8190   83.5167   88.6480 C   0  0  0  0  0  0  0  0  0  0  0  0
   70.8123   83.6759   87.5423 C   0  0  0  0  0  0  0  0  0  0  0  0
   72.1255   84.1129   88.2129 C   0  0  0  0  0  0  0  0  0  0  0  0
   72.3950   85.5714   88.0437 C   0  0  0  0  0  0  0  0  0  0  0  0
   71.1864   86.4455   88.1389 C   0  0  0  0  0  0  0  0  0  0  0  0
   70.0595   85.8936   87.5454 O   0  0  0  0  0  0  0  0  0  0  0  0
   70.4364   84.8880   86.6689 C   0  0  0  0  0  0  0  0  0  0  0  0
   67.4700   76.1759   93.4908 C   0  0  0  0  0  0  0  0  0  0  0  0
   67.4643   75.2063   92.5694 O   0  0  0  0  0  0  0  0  0  0  0  0
   69.5798   72.1976   92.7327 C   0  0  0  0  0  0  0  0  0  0  0  0
   68.9452   73.3831   93.1094 C   0  0  0  0  0  0  0  0  0  0  0  0
   68.1068   74.0631   92.2692 C   0  0  0  0  0  0  0  0  0  0  0  0
   67.9255   73.4833   90.9884 C   0  0  0  0  0  0  0  0  0  0  0  0
   68.5234   72.3340   90.5841 C   0  0  0  0  0  0  0  0  0  0  0  0
   69.3577   71.6936   91.4763 C   0  0  0  0  0  0  0  0  0  0  0  0
   69.9855   70.5169   91.0982 O   0  0  0  0  0  0  0  0  0  0  0  0
   69.8415   70.1630   90.2426 H   0  0  0  0  0  0  0  0  0  0  0  0
   71.4464   72.0816   94.1440 O   0  0  0  0  0  0  0  0  0  0  0  0
   70.4610   71.5024   93.6465 C   0  0  0  0  0  0  0  0  0  0  0  0
   70.2479   70.1809   94.0014 O   0  0  0  0  0  0  0  0  0  0  0  0
   69.5175   69.7127   93.6476 H   0  0  0  0  0  0  0  0  0  0  0  0
 31 32  2  0  0  0
 32 33  1  0  0  0
 32 23  1  0  0  0
 23 24  2  0  0  0
 24 25  1  0  0  0
 25 22  1  0  0  0
 22 21  1  0  0  0
 21  1  1  0  0  0
  1  2  2  0  0  0
  2  3  1  0  0  0
  3  4  2  0  0  0
  4  5  1  0  0  0
  5  7  1  0  0  0
  7  8  2  0  0  0
  8  9  1  0  0  0
  9 10  2  0  0  0
 10 11  1  0  0  0
 11 13  1  0  0  0
 13 14  1  0  0  0
 15 14  1  0  0  0
 15 16  1  0  0  0
 16 17  1  0  0  0
 17 18  1  0  0  0
 18 19  1  0  0  0
 19 20  1  0  0  0
 11 12  2  0  0  0
  5  6  2  0  0  0
 25 26  2  0  0  0
 26 27  1  0  0  0
 27 28  2  0  0  0
 28 29  1  0  0  0
 28 23  1  0  0  0
  6  1  1  0  0  0
 12  7  1  0  0  0
 20 15  1  0  0  0
 33 34  1  0  0  0
 29 30  1  0  0  0
M  END
> <score>
-0.091551

> <minimizedAffinity>
-8.33282

> <CNNscore>
0.5560283661

> <CNNaffinity>
5.9938097000

> <CNN_VS>
3.3327281475

$$$$
HIPS6246


 34 37  0  0  0  0  0  0  0  0999 V2000
   66.5540   79.1585   90.8382 C   0  0  0  0  0  0  0  0  0  0  0  0
   66.1126   78.5303   91.9638 C   0  0  0  0  0  0  0  0  0  0  0  0
   66.2518   79.1614   93.1804 C   0  0  0  0  0  0  0  0  0  0  0  0
   66.8294   80.4100   93.2592 C   0  0  0  0  0  0  0  0  0  0  0  0
   67.2894   81.0790   92.1410 C   0  0  0  0  0  0  0  0  0  0  0  0
   67.1377   80.4268   90.9425 C   0  0  0  0  0  0  0  0  0  0  0  0
   67.8911   82.3988   92.2906 C   0  0  0  0  0  0  0  0  0  0  0  0
   67.9242   83.0592   93.5012 C   0  0  0  0  0  0  0  0  0  0  0  0
   68.4929   84.3064   93.6419 C   0  0  0  0  0  0  0  0  0  0  0  0
   69.0624   84.9512   92.5463 C   0  0  0  0  0  0  0  0  0  0  0  0
   69.0436   84.3148   91.3270 C   0  0  0  0  0  0  0  0  0  0  0  0
   68.4536   83.0398   91.2188 C   0  0  0  0  0  0  0  0  0  0  0  0
   69.5879   84.9033   90.2371 O   0  0  0  0  0  0  0  0  0  0  0  0
   69.2949   84.9413   88.9083 C   0  0  0  0  0  0  0  0  0  0  0  0
   70.0556   84.0407   87.9891 C   0  0  0  0  0  0  0  0  0  0  0  0
   71.3050   83.5977   88.7690 C   0  0  0  0  0  0  0  0  0  0  0  0
   72.5362   84.3204   88.3325 C   0  0  0  0  0  0  0  0  0  0  0  0
   72.3329   85.7669   88.0162 C   0  0  0  0  0  0  0  0  0  0  0  0
   71.1326   86.0257   87.3688 O   0  0  0  0  0  0  0  0  0  0  0  0
   70.6359   84.8550   86.8172 C   0  0  0  0  0  0  0  0  0  0  0  0
   66.4174   78.5224   89.4941 C   0  0  0  0  0  0  0  0  0  0  0  0
   67.2708   77.5418   89.1793 O   0  0  0  0  0  0  0  0  0  0  0  0
   69.0906   75.0199   91.1495 C   0  0  0  0  0  0  0  0  0  0  0  0
   68.6506   76.2605   90.6836 C   0  0  0  0  0  0  0  0  0  0  0  0
   67.7368   76.3803   89.6728 C   0  0  0  0  0  0  0  0  0  0  0  0
   67.2660   75.1589   89.1287 C   0  0  0  0  0  0  0  0  0  0  0  0
   67.6683   73.9341   89.5529 C   0  0  0  0  0  0  0  0  0  0  0  0
   68.5916   73.8780   90.5759 C   0  0  0  0  0  0  0  0  0  0  0  0
   69.0256   72.6441   91.0354 O   0  0  0  0  0  0  0  0  0  0  0  0
   68.6919   71.8573   90.6514 H   0  0  0  0  0  0  0  0  0  0  0  0
   70.3174   73.8305   92.7528 O   0  0  0  0  0  0  0  0  0  0  0  0
   70.0587   74.9282   92.2215 C   0  0  0  0  0  0  0  0  0  0  0  0
   70.7296   76.0432   92.6954 O   0  0  0  0  0  0  0  0  0  0  0  0
   70.5615   76.8855   92.3207 H   0  0  0  0  0  0  0  0  0  0  0  0
 31 32  2  0  0  0
 32 33  1  0  0  0
 32 23  1  0  0  0
 23 24  2  0  0  0
 24 25  1  0  0  0
 25 22  1  0  0  0
 22 21  1  0  0  0
 21  1  1  0  0  0
  1  2  2  0  0  0
  2  3  1  0  0  0
  3  4  2  0  0  0
  4  5  1  0  0  0
  5  7  1  0  0  0
  7  8  2  0  0  0
  8  9  1  0  0  0
  9 10  2  0  0  0
 10 11  1  0  0  0
 11 13  1  0  0  0
 13 14  1  0  0  0
 15 14  1  0  0  0
 15 16  1  0  0  0
 16 17  1  0  0  0
 17 18  1  0  0  0
 18 19  1  0  0  0
 19 20  1  0  0  0
 11 12  2  0  0  0
  5  6  2  0  0  0
 25 26  2  0  0  0
 26 27  1  0  0  0
 27 28  2  0  0  0
 28 29  1  0  0  0
 28 23  1  0  0  0
  6  1  1  0  0  0
 12  7  1  0  0  0
 20 15  1  0  0  0
 33 34  1  0  0  0
 29 30  1  0  0  0
M  END
> <score>
-0.091551

> <minimizedAffinity>
-7.97462

> <CNNscore>
0.4989496469

> <CNNaffinity>
6.1992540359

> <CNN_VS>
3.0931155682

$$$$
HIPS6247


 35 37  0  0  0  0  0  0  0  0999 V2000
   66.3782   80.8616   90.3247 C   0  0  0  0  0  0  0  0  0  0  0  0
   64.9770   80.9767   90.3367 C   0  0  0  0  0  0  0  0  0  0  0  0
   64.2297   80.4061   91.3695 C   0  0  0  0  0  0  0  0  0  0  0  0
   64.8681   79.7063   92.3952 C   0  0  0  0  0  0  0  0  0  0  0  0
   66.2639   79.5680   92.3934 C   0  0  0  0  0  0  0  0  0  0  0  0
   67.0144   80.1674   91.3688 C   0  0  0  0  0  0  0  0  0  0  0  0
   69.0873   82.7652   88.4621 C   0  0  0  0  0  0  0  0  0  0  0  0
   68.6872   82.5720   87.1344 C   0  0  0  0  0  0  0  0  0  0  0  0
   67.5475   81.8188   86.8459 C   0  0  0  0  0  0  0  0  0  0  0  0
   66.7957   81.2581   87.8811 C   0  0  0  0  0  0  0  0  0  0  0  0
   67.1759   81.4513   89.2209 C   0  0  0  0  0  0  0  0  0  0  0  0
   68.3270   82.2103   89.5020 C   0  0  0  0  0  0  0  0  0  0  0  0
   70.5448   83.6986   88.8089 S   0  0  0  0  0  0  0  0  0  0  0  0
   71.2850   83.0103   89.9196 O   0  0  0  0  0  0  0  0  0  0  0  0
   71.4398   83.7313   87.6029 O   0  0  0  0  0  0  0  0  0  0  0  0
   70.1271   85.3141   89.3354 N   0  0  0  0  0  0  0  0  0  0  0  0
   69.1361   85.3135   89.5770 H   0  0  0  0  0  0  0  0  0  0  0  0
   71.8640   86.4662   88.0490 C   0  0  0  0  0  0  0  0  0  0  0  0
   70.3521   86.4139   88.3625 C   0  0  0  0  0  0  0  0  0  0  0  0
   69.6151   86.1184   87.0403 C   0  0  0  0  0  0  0  0  0  0  0  0
   69.9300   87.7938   88.9138 C   0  0  0  0  0  0  0  0  0  0  0  0
   66.9556   78.8108   93.4982 C   0  0  0  0  0  0  0  0  0  0  0  0
   67.2484   77.4712   93.0963 O   0  0  0  0  0  0  0  0  0  0  0  0
   67.1320   76.3368   93.9164 C   0  0  0  0  0  0  0  0  0  0  0  0
   65.9263   75.9761   94.5406 C   0  0  0  0  0  0  0  0  0  0  0  0
   65.8642   74.8362   95.3412 C   0  0  0  0  0  0  0  0  0  0  0  0
   66.9960   74.0383   95.5389 C   0  0  0  0  0  0  0  0  0  0  0  0
   66.8819   72.9548   96.4125 O   0  0  0  0  0  0  0  0  0  0  0  0
   68.2092   74.3699   94.8861 C   0  0  0  0  0  0  0  0  0  0  0  0
   68.2634   75.5359   94.1017 C   0  0  0  0  0  0  0  0  0  0  0  0
   66.0609   72.7694   96.8242 H   0  0  0  0  0  0  0  0  0  0  0  0
   69.4173   73.5192   94.9618 C   0  0  0  0  0  0  0  0  0  0  0  0
   70.3417   73.6359   94.1136 O   0  0  0  0  0  0  0  0  0  0  0  0
   69.5676   72.6225   96.0168 O   0  0  0  0  0  0  0  0  0  0  0  0
   68.8857   72.5286   96.6526 H   0  0  0  0  0  0  0  0  0  0  0  0
 18 19  1  0  0  0
 19 20  1  0  0  0
 19 21  1  0  0  0
 19 16  1  0  0  0
 16 13  1  0  0  0
 13 14  2  0  0  0
 13 15  2  0  0  0
 13  7  1  0  0  0
  7  8  2  0  0  0
  8  9  1  0  0  0
  9 10  2  0  0  0
 10 11  1  0  0  0
 11  1  1  0  0  0
  1  2  2  0  0  0
  2  3  1  0  0  0
  3  4  2  0  0  0
  4  5  1  0  0  0
  5 22  1  0  0  0
 22 23  1  0  0  0
 23 24  1  0  0  0
 24 25  2  0  0  0
 25 26  1  0  0  0
 26 27  2  0  0  0
 27 28  1  0  0  0
 27 29  1  0  0  0
 29 32  1  0  0  0
 32 33  2  0  0  0
 32 34  1  0  0  0
 29 30  2  0  0  0
  5  6  2  0  0  0
 11 12  2  0  0  0
 12  7  1  0  0  0
  6  1  1  0  0  0
 30 24  1  0  0  0
 16 17  1  0  0  0
 28 31  1  0  0  0
 34 35  1  0  0  0
M  END
> <score>
0.265994

> <minimizedAffinity>
-8.27255

> <CNNscore>
0.6247520447

> <CNNaffinity>
6.2581243515

> <CNN_VS>
3.9097759724

$$$$
HIPS6247


 35 37  0  0  0  0  0  0  0  0999 V2000
   70.5351   79.6522   90.3732 C   0  0  0  0  0  0  0  0  0  0  0  0
   71.5310   78.6599   90.3554 C   0  0  0  0  0  0  0  0  0  0  0  0
   71.2080   77.3292   90.6302 C   0  0  0  0  0  0  0  0  0  0  0  0
   69.8928   76.9739   90.9356 C   0  0  0  0  0  0  0  0  0  0  0  0
   68.8876   77.9515   90.9728 C   0  0  0  0  0  0  0  0  0  0  0  0
   69.2106   79.2838   90.6679 C   0  0  0  0  0  0  0  0  0  0  0  0
   70.1737   83.3661   89.6597 C   0  0  0  0  0  0  0  0  0  0  0  0
   71.5159   83.7555   89.5759 C   0  0  0  0  0  0  0  0  0  0  0  0
   72.5332   82.8170   89.7597 C   0  0  0  0  0  0  0  0  0  0  0  0
   72.2179   81.4819   90.0225 C   0  0  0  0  0  0  0  0  0  0  0  0
   70.8756   81.0703   90.0988 C   0  0  0  0  0  0  0  0  0  0  0  0
   69.8570   82.0236   89.9140 C   0  0  0  0  0  0  0  0  0  0  0  0
   68.8995   84.5695   89.4502 S   0  0  0  0  0  0  0  0  0  0  0  0
   68.3264   84.4054   88.0718 O   0  0  0  0  0  0  0  0  0  0  0  0
   67.7971   84.3370   90.4437 O   0  0  0  0  0  0  0  0  0  0  0  0
   69.5539   86.1860   89.5923 N   0  0  0  0  0  0  0  0  0  0  0  0
   68.8022   86.7962   89.9131 H   0  0  0  0  0  0  0  0  0  0  0  0
   69.8174   88.3004   88.3846 C   0  0  0  0  0  0  0  0  0  0  0  0
   70.1260   86.7868   88.3601 C   0  0  0  0  0  0  0  0  0  0  0  0
   71.6600   86.6273   88.3489 C   0  0  0  0  0  0  0  0  0  0  0  0
   69.5169   86.1954   87.0696 C   0  0  0  0  0  0  0  0  0  0  0  0
   67.4672   77.5712   91.3048 C   0  0  0  0  0  0  0  0  0  0  0  0
   67.2378   77.6260   92.7141 O   0  0  0  0  0  0  0  0  0  0  0  0
   67.0795   76.5098   93.5520 C   0  0  0  0  0  0  0  0  0  0  0  0
   65.8478   76.1734   94.1377 C   0  0  0  0  0  0  0  0  0  0  0  0
   65.7443   75.0508   94.9584 C   0  0  0  0  0  0  0  0  0  0  0  0
   66.8598   74.2466   95.2144 C   0  0  0  0  0  0  0  0  0  0  0  0
   66.7023   73.1824   96.1047 O   0  0  0  0  0  0  0  0  0  0  0  0
   68.0998   74.5533   94.6009 C   0  0  0  0  0  0  0  0  0  0  0  0
   68.1950   75.7024   93.7956 C   0  0  0  0  0  0  0  0  0  0  0  0
   65.8646   73.0132   96.4891 H   0  0  0  0  0  0  0  0  0  0  0  0
   69.2956   73.6930   94.7389 C   0  0  0  0  0  0  0  0  0  0  0  0
   70.2203   73.7331   93.8841 O   0  0  0  0  0  0  0  0  0  0  0  0
   69.4343   72.8748   95.8574 O   0  0  0  0  0  0  0  0  0  0  0  0
   68.7521   72.8383   96.4987 H   0  0  0  0  0  0  0  0  0  0  0  0
 18 19  1  0  0  0
 19 20  1  0  0  0
 19 21  1  0  0  0
 19 16  1  0  0  0
 16 13  1  0  0  0
 13 14  2  0  0  0
 13 15  2  0  0  0
 13  7  1  0  0  0
  7  8  2  0  0  0
  8  9  1  0  0  0
  9 10  2  0  0  0
 10 11  1  0  0  0
 11  1  1  0  0  0
  1  2  2  0  0  0
  2  3  1  0  0  0
  3  4  2  0  0  0
  4  5  1  0  0  0
  5 22  1  0  0  0
 22 23  1  0  0  0
 23 24  1  0  0  0
 24 25  2  0  0  0
 25 26  1  0  0  0
 26 27  2  0  0  0
 27 28  1  0  0  0
 27 29  1  0  0  0
 29 32  1  0  0  0
 32 33  2  0  0  0
 32 34  1  0  0  0
 29 30  2  0  0  0
  5  6  2  0  0  0
 11 12  2  0  0  0
 12  7  1  0  0  0
  6  1  1  0  0  0
 30 24  1  0  0  0
 16 17  1  0  0  0
 28 31  1  0  0  0
 34 35  1  0  0  0
M  END
> <score>
0.265994

> <minimizedAffinity>
-8.74436

> <CNNscore>
0.5302430391

> <CNNaffinity>
6.2275447845

> <CNN_VS>
3.3021123409

$$$$
HIPS6247


 35 37  0  0  0  0  0  0  0  0999 V2000
   67.4435   79.3341   88.5569 C   0  0  0  0  0  0  0  0  0  0  0  0
   66.7654   78.4968   87.6536 C   0  0  0  0  0  0  0  0  0  0  0  0
   66.5299   77.1574   87.9718 C   0  0  0  0  0  0  0  0  0  0  0  0
   66.9757   76.6349   89.1873 C   0  0  0  0  0  0  0  0  0  0  0  0
   67.6668   77.4504   90.0956 C   0  0  0  0  0  0  0  0  0  0  0  0
   67.8767   78.8037   89.7848 C   0  0  0  0  0  0  0  0  0  0  0  0
   69.0171   82.7917   88.5282 C   0  0  0  0  0  0  0  0  0  0  0  0
   68.2202   83.4419   87.5783 C   0  0  0  0  0  0  0  0  0  0  0  0
   67.1824   82.7567   86.9436 C   0  0  0  0  0  0  0  0  0  0  0  0
   66.9289   81.4193   87.2570 C   0  0  0  0  0  0  0  0  0  0  0  0
   67.7115   80.7536   88.2168 C   0  0  0  0  0  0  0  0  0  0  0  0
   68.7565   81.4517   88.8500 C   0  0  0  0  0  0  0  0  0  0  0  0
   70.3414   83.6645   89.3031 S   0  0  0  0  0  0  0  0  0  0  0  0
   70.4849   83.1439   90.7044 O   0  0  0  0  0  0  0  0  0  0  0  0
   71.6299   83.4055   88.5757 O   0  0  0  0  0  0  0  0  0  0  0  0
   69.9861   85.3760   89.3786 N   0  0  0  0  0  0  0  0  0  0  0  0
   68.9748   85.4851   89.3025 H   0  0  0  0  0  0  0  0  0  0  0  0
   70.2721   87.7049   88.6759 C   0  0  0  0  0  0  0  0  0  0  0  0
   70.6104   86.2353   88.3400 C   0  0  0  0  0  0  0  0  0  0  0  0
   72.1457   86.0931   88.3792 C   0  0  0  0  0  0  0  0  0  0  0  0
   70.0812   85.9352   86.9201 C   0  0  0  0  0  0  0  0  0  0  0  0
   68.1516   76.8882   91.4076 C   0  0  0  0  0  0  0  0  0  0  0  0
   67.0729   76.7449   92.3337 O   0  0  0  0  0  0  0  0  0  0  0  0
   67.0410   75.8358   93.4040 C   0  0  0  0  0  0  0  0  0  0  0  0
   65.8942   75.6335   94.1896 C   0  0  0  0  0  0  0  0  0  0  0  0
   65.9150   74.7144   95.2381 C   0  0  0  0  0  0  0  0  0  0  0  0
   67.0728   73.9846   95.5268 C   0  0  0  0  0  0  0  0  0  0  0  0
   67.0464   73.1377   96.6367 O   0  0  0  0  0  0  0  0  0  0  0  0
   68.2255   74.1519   94.7197 C   0  0  0  0  0  0  0  0  0  0  0  0
   68.1976   75.1002   93.6814 C   0  0  0  0  0  0  0  0  0  0  0  0
   66.2634   73.0552   97.1446 H   0  0  0  0  0  0  0  0  0  0  0  0
   69.4509   73.3420   94.8964 C   0  0  0  0  0  0  0  0  0  0  0  0
   69.6304   72.6652   95.9439 O   0  0  0  0  0  0  0  0  0  0  0  0
   70.3895   73.2735   93.8697 O   0  0  0  0  0  0  0  0  0  0  0  0
   70.2648   73.7731   93.0869 H   0  0  0  0  0  0  0  0  0  0  0  0
 18 19  1  0  0  0
 19 20  1  0  0  0
 19 21  1  0  0  0
 19 16  1  0  0  0
 16 13  1  0  0  0
 13 14  2  0  0  0
 13 15  2  0  0  0
 13  7  1  0  0  0
  7  8  2  0  0  0
  8  9  1  0  0  0
  9 10  2  0  0  0
 10 11  1  0  0  0
 11  1  1  0  0  0
  1  2  2  0  0  0
  2  3  1  0  0  0
  3  4  2  0  0  0
  4  5  1  0  0  0
  5 22  1  0  0  0
 22 23  1  0  0  0
 23 24  1  0  0  0
 24 25  2  0  0  0
 25 26  1  0  0  0
 26 27  2  0  0  0
 27 28  1  0  0  0
 27 29  1  0  0  0
 29 32  1  0  0  0
 32 33  2  0  0  0
 32 34  1  0  0  0
 29 30  2  0  0  0
  5  6  2  0  0  0
 11 12  2  0  0  0
 12  7  1  0  0  0
  6  1  1  0  0  0
 30 24  1  0  0  0
 16 17  1  0  0  0
 28 31  1  0  0  0
 34 35  1  0  0  0
M  END
> <score>
0.265994

> <minimizedAffinity>
-8.53335

> <CNNscore>
0.4674167931

> <CNNaffinity>
6.1306600571

> <CNN_VS>
2.8655734062

$$$$
HIPS6249


 30 33  0  0  0  0  0  0  0  0999 V2000
   66.7052   79.7771   92.1819 C   0  0  0  0  0  0  0  0  0  0  0  0
   66.7261   78.9258   91.0686 C   0  0  0  0  0  0  0  0  0  0  0  0
   66.8512   79.4457   89.7698 C   0  0  0  0  0  0  0  0  0  0  0  0
   66.9360   80.8393   89.5990 C   0  0  0  0  0  0  0  0  0  0  0  0
   66.9014   81.7086   90.7045 C   0  0  0  0  0  0  0  0  0  0  0  0
   66.7837   81.1633   91.9943 C   0  0  0  0  0  0  0  0  0  0  0  0
   66.9053   78.5352   88.5980 C   0  0  0  0  0  0  0  0  0  0  0  0
   66.4925   77.2152   88.5486 C   0  0  0  0  0  0  0  0  0  0  0  0
   66.7475   76.7876   87.2630 C   0  0  0  0  0  0  0  0  0  0  0  0
   67.2757   77.7666   86.5657 O   0  0  0  0  0  0  0  0  0  0  0  0
   67.3854   78.8272   87.3318 C   0  0  0  0  0  0  0  0  0  0  0  0
   66.9956   83.1789   90.5122 C   0  0  0  0  0  0  0  0  0  0  0  0
   67.4957   83.8459   89.4073 C   0  0  0  0  0  0  0  0  0  0  0  0
   67.3728   85.1898   89.6889 C   0  0  0  0  0  0  0  0  0  0  0  0
   66.8402   85.3475   90.8783 O   0  0  0  0  0  0  0  0  0  0  0  0
   66.6014   84.1666   91.4003 C   0  0  0  0  0  0  0  0  0  0  0  0
   66.5899   79.2139   93.5746 C   0  0  0  0  0  0  0  0  0  0  0  0
   65.8820   77.9732   93.5605 O   0  0  0  0  0  0  0  0  0  0  0  0
   68.3149   75.1205   93.5536 C   0  0  0  0  0  0  0  0  0  0  0  0
   67.7633   76.3937   93.3221 C   0  0  0  0  0  0  0  0  0  0  0  0
   66.4585   76.7057   93.7473 C   0  0  0  0  0  0  0  0  0  0  0  0
   65.6989   75.7248   94.3874 C   0  0  0  0  0  0  0  0  0  0  0  0
   66.2220   74.4494   94.5995 C   0  0  0  0  0  0  0  0  0  0  0  0
   67.5149   74.1277   94.1733 C   0  0  0  0  0  0  0  0  0  0  0  0
   67.9478   72.8118   94.3512 O   0  0  0  0  0  0  0  0  0  0  0  0
   67.3871   72.1862   94.7661 H   0  0  0  0  0  0  0  0  0  0  0  0
   70.3805   75.7724   92.5549 O   0  0  0  0  0  0  0  0  0  0  0  0
   69.7257   74.8884   93.1692 C   0  0  0  0  0  0  0  0  0  0  0  0
   70.3211   73.6566   93.4286 O   0  0  0  0  0  0  0  0  0  0  0  0
   69.8432   72.9920   93.8847 H   0  0  0  0  0  0  0  0  0  0  0  0
 27 28  2  0  0  0
 28 29  1  0  0  0
 28 19  1  0  0  0
 19 20  2  0  0  0
 20 21  1  0  0  0
 21 18  1  0  0  0
 18 17  1  0  0  0
 17  1  1  0  0  0
  1  2  2  0  0  0
  2  3  1  0  0  0
  3  7  1  0  0  0
  7  8  1  0  0  0
  8  9  2  0  0  0
  9 10  1  0  0  0
 10 11  1  0  0  0
  3  4  2  0  0  0
  4  5  1  0  0  0
  5 12  1  0  0  0
 12 13  1  0  0  0
 13 14  2  0  0  0
 14 15  1  0  0  0
 15 16  1  0  0  0
  5  6  2  0  0  0
 21 22  2  0  0  0
 22 23  1  0  0  0
 23 24  2  0  0  0
 24 25  1  0  0  0
 24 19  1  0  0  0
  6  1  1  0  0  0
 11  7  2  0  0  0
 16 12  2  0  0  0
 29 30  1  0  0  0
 25 26  1  0  0  0
M  END
> <score>
0.222504

> <minimizedAffinity>
-7.03182

> <CNNscore>
0.8118886948

> <CNNaffinity>
6.4237775803

> <CNN_VS>
5.2153925896

$$$$
HIPS6249


 30 33  0  0  0  0  0  0  0  0999 V2000
   67.8708   81.5079   90.2638 C   0  0  0  0  0  0  0  0  0  0  0  0
   68.4943   82.2146   89.2263 C   0  0  0  0  0  0  0  0  0  0  0  0
   69.1517   83.4297   89.4796 C   0  0  0  0  0  0  0  0  0  0  0  0
   69.1595   83.9399   90.7903 C   0  0  0  0  0  0  0  0  0  0  0  0
   68.5257   83.2508   91.8403 C   0  0  0  0  0  0  0  0  0  0  0  0
   67.8816   82.0330   91.5627 C   0  0  0  0  0  0  0  0  0  0  0  0
   69.8378   84.1560   88.3810 C   0  0  0  0  0  0  0  0  0  0  0  0
   69.4272   84.2540   87.0630 C   0  0  0  0  0  0  0  0  0  0  0  0
   70.3840   85.0142   86.4249 C   0  0  0  0  0  0  0  0  0  0  0  0
   71.3165   85.3643   87.2802 O   0  0  0  0  0  0  0  0  0  0  0  0
   71.0231   84.8685   88.4600 C   0  0  0  0  0  0  0  0  0  0  0  0
   68.5437   83.7974   93.2217 C   0  0  0  0  0  0  0  0  0  0  0  0
   67.8172   83.3431   94.3087 C   0  0  0  0  0  0  0  0  0  0  0  0
   68.1671   84.1574   95.3648 C   0  0  0  0  0  0  0  0  0  0  0  0
   69.0416   85.0512   94.9656 O   0  0  0  0  0  0  0  0  0  0  0  0
   69.2905   84.8666   93.6897 C   0  0  0  0  0  0  0  0  0  0  0  0
   67.1830   80.1954   89.9909 C   0  0  0  0  0  0  0  0  0  0  0  0
   68.0755   79.2807   89.3528 O   0  0  0  0  0  0  0  0  0  0  0  0
   70.0566   76.6928   91.2063 C   0  0  0  0  0  0  0  0  0  0  0  0
   68.9667   77.3537   90.6112 C   0  0  0  0  0  0  0  0  0  0  0  0
   69.1321   78.6020   89.9828 C   0  0  0  0  0  0  0  0  0  0  0  0
   70.3951   79.1969   89.9738 C   0  0  0  0  0  0  0  0  0  0  0  0
   71.4797   78.5668   90.5836 C   0  0  0  0  0  0  0  0  0  0  0  0
   71.3231   77.3298   91.2176 C   0  0  0  0  0  0  0  0  0  0  0  0
   72.4333   76.7910   91.8715 O   0  0  0  0  0  0  0  0  0  0  0  0
   73.2529   77.2448   91.8544 H   0  0  0  0  0  0  0  0  0  0  0  0
   70.3029   75.0209   92.8893 O   0  0  0  0  0  0  0  0  0  0  0  0
   69.8351   75.3393   91.7636 C   0  0  0  0  0  0  0  0  0  0  0  0
   69.1590   74.3821   91.0113 O   0  0  0  0  0  0  0  0  0  0  0  0
   68.8071   74.6080   90.1729 H   0  0  0  0  0  0  0  0  0  0  0  0
 27 28  2  0  0  0
 28 29  1  0  0  0
 28 19  1  0  0  0
 19 20  2  0  0  0
 20 21  1  0  0  0
 21 18  1  0  0  0
 18 17  1  0  0  0
 17  1  1  0  0  0
  1  2  2  0  0  0
  2  3  1  0  0  0
  3  7  1  0  0  0
  7  8  1  0  0  0
  8  9  2  0  0  0
  9 10  1  0  0  0
 10 11  1  0  0  0
  3  4  2  0  0  0
  4  5  1  0  0  0
  5 12  1  0  0  0
 12 13  1  0  0  0
 13 14  2  0  0  0
 14 15  1  0  0  0
 15 16  1  0  0  0
  5  6  2  0  0  0
 21 22  2  0  0  0
 22 23  1  0  0  0
 23 24  2  0  0  0
 24 25  1  0  0  0
 24 19  1  0  0  0
  6  1  1  0  0  0
 11  7  2  0  0  0
 16 12  2  0  0  0
 29 30  1  0  0  0
 25 26  1  0  0  0
M  END
> <score>
0.222504

> <minimizedAffinity>
-7.08941

> <CNNscore>
0.7238388062

> <CNNaffinity>
6.2226371765

> <CNN_VS>
4.5041861534

$$$$
HIPS6249


 30 33  0  0  0  0  0  0  0  0999 V2000
   66.9352   79.3609   91.1309 C   0  0  0  0  0  0  0  0  0  0  0  0
   68.0116   80.2528   91.0275 C   0  0  0  0  0  0  0  0  0  0  0  0
   68.8685   80.2176   89.9153 C   0  0  0  0  0  0  0  0  0  0  0  0
   68.6430   79.2584   88.9115 C   0  0  0  0  0  0  0  0  0  0  0  0
   67.5763   78.3462   89.0070 C   0  0  0  0  0  0  0  0  0  0  0  0
   66.7282   78.4071   90.1258 C   0  0  0  0  0  0  0  0  0  0  0  0
   69.9871   81.1871   89.7976 C   0  0  0  0  0  0  0  0  0  0  0  0
   69.9421   82.4454   89.2232 C   0  0  0  0  0  0  0  0  0  0  0  0
   71.2156   82.9603   89.3413 C   0  0  0  0  0  0  0  0  0  0  0  0
   71.9922   82.0906   89.9447 O   0  0  0  0  0  0  0  0  0  0  0  0
   71.2915   81.0180   90.2319 C   0  0  0  0  0  0  0  0  0  0  0  0
   67.3454   77.3399   87.9385 C   0  0  0  0  0  0  0  0  0  0  0  0
   67.4094   77.5445   86.5711 C   0  0  0  0  0  0  0  0  0  0  0  0
   67.1253   76.3259   85.9924 C   0  0  0  0  0  0  0  0  0  0  0  0
   66.8992   75.4323   86.9270 O   0  0  0  0  0  0  0  0  0  0  0  0
   67.0219   76.0027   88.1032 C   0  0  0  0  0  0  0  0  0  0  0  0
   66.0072   79.4148   92.3166 C   0  0  0  0  0  0  0  0  0  0  0  0
   66.6037   78.7886   93.4535 O   0  0  0  0  0  0  0  0  0  0  0  0
   68.2321   75.4137   93.5790 C   0  0  0  0  0  0  0  0  0  0  0  0
   68.0592   76.7965   93.3875 C   0  0  0  0  0  0  0  0  0  0  0  0
   66.8103   77.4073   93.6062 C   0  0  0  0  0  0  0  0  0  0  0  0
   65.7267   76.6187   93.9971 C   0  0  0  0  0  0  0  0  0  0  0  0
   65.8756   75.2421   94.1643 C   0  0  0  0  0  0  0  0  0  0  0  0
   67.1111   74.6251   93.9414 C   0  0  0  0  0  0  0  0  0  0  0  0
   67.1713   73.2344   94.0551 O   0  0  0  0  0  0  0  0  0  0  0  0
   66.4064   72.7506   94.2974 H   0  0  0  0  0  0  0  0  0  0  0  0
   70.0002   73.9339   94.1895 O   0  0  0  0  0  0  0  0  0  0  0  0
   69.5928   74.8506   93.4271 C   0  0  0  0  0  0  0  0  0  0  0  0
   70.4602   75.3811   92.4756 O   0  0  0  0  0  0  0  0  0  0  0  0
   70.1677   76.0631   91.9035 H   0  0  0  0  0  0  0  0  0  0  0  0
 27 28  2  0  0  0
 28 29  1  0  0  0
 28 19  1  0  0  0
 19 20  2  0  0  0
 20 21  1  0  0  0
 21 18  1  0  0  0
 18 17  1  0  0  0
 17  1  1  0  0  0
  1  2  2  0  0  0
  2  3  1  0  0  0
  3  7  1  0  0  0
  7  8  1  0  0  0
  8  9  2  0  0  0
  9 10  1  0  0  0
 10 11  1  0  0  0
  3  4  2  0  0  0
  4  5  1  0  0  0
  5 12  1  0  0  0
 12 13  1  0  0  0
 13 14  2  0  0  0
 14 15  1  0  0  0
 15 16  1  0  0  0
  5  6  2  0  0  0
 21 22  2  0  0  0
 22 23  1  0  0  0
 23 24  2  0  0  0
 24 25  1  0  0  0
 24 19  1  0  0  0
  6  1  1  0  0  0
 11  7  2  0  0  0
 16 12  2  0  0  0
 29 30  1  0  0  0
 25 26  1  0  0  0
M  END
> <score>
0.222504

> <minimizedAffinity>
-7.45983

> <CNNscore>
0.7224230766

> <CNNaffinity>
6.3181180954

> <CNN_VS>
4.5643544197

$$$$
HIPS6276


 31 32  0  0  0  0  0  0  0  0999 V2000
   68.2498   79.5051   89.0051 O   0  0  0  0  0  0  0  0  0  0  0  0
   68.2198   77.2759   92.5916 C   0  0  0  0  0  0  0  0  0  0  0  0
   67.0919   77.9867   92.1620 C   0  0  0  0  0  0  0  0  0  0  0  0
   67.1238   78.7241   90.9788 C   0  0  0  0  0  0  0  0  0  0  0  0
   68.2787   78.7591   90.1954 C   0  0  0  0  0  0  0  0  0  0  0  0
   69.4152   78.0435   90.6160 C   0  0  0  0  0  0  0  0  0  0  0  0
   69.3916   77.2740   91.7944 C   0  0  0  0  0  0  0  0  0  0  0  0
   67.5095   74.6218   95.3151 C   0  0  0  0  0  0  0  0  0  0  0  0
   67.5148   75.3097   93.9895 C   0  0  0  0  0  0  0  0  0  0  0  0
   66.9970   74.7396   92.9910 O   0  0  0  0  0  0  0  0  0  0  0  0
   68.1536   76.5865   93.8483 N   0  0  0  0  0  0  0  0  0  0  0  0
   68.5608   77.0043   94.6413 H   0  0  0  0  0  0  0  0  0  0  0  0
   70.5708   76.4380   92.1281 C   0  0  0  0  0  0  0  0  0  0  0  0
   70.4553   75.1854   92.2170 O   0  0  0  0  0  0  0  0  0  0  0  0
   71.8059   77.0253   92.3874 O   0  0  0  0  0  0  0  0  0  0  0  0
   71.9050   77.9549   92.3249 H   0  0  0  0  0  0  0  0  0  0  0  0
   67.5315   80.7249   88.8123 C   0  0  0  0  0  0  0  0  0  0  0  0
   68.2861   81.8838   89.4118 C   0  0  0  0  0  0  0  0  0  0  0  0
   69.3031   82.5026   88.6807 C   0  0  0  0  0  0  0  0  0  0  0  0
   70.0606   83.5576   89.2265 C   0  0  0  0  0  0  0  0  0  0  0  0
   69.7627   83.9733   90.5466 C   0  0  0  0  0  0  0  0  0  0  0  0
   68.7321   83.3678   91.3047 C   0  0  0  0  0  0  0  0  0  0  0  0
   67.9937   82.3299   90.7037 C   0  0  0  0  0  0  0  0  0  0  0  0
   71.1858   84.1943   88.3805 C   0  0  0  0  0  0  0  0  0  0  0  0
   71.1403   85.7418   88.3627 C   0  0  0  0  0  0  0  0  0  0  0  0
   71.0697   83.7098   86.9181 C   0  0  0  0  0  0  0  0  0  0  0  0
   72.5576   83.7741   88.9525 C   0  0  0  0  0  0  0  0  0  0  0  0
   68.4032   83.7827   92.7562 C   0  0  0  0  0  0  0  0  0  0  0  0
   69.6492   84.2083   93.5705 C   0  0  0  0  0  0  0  0  0  0  0  0
   67.7488   82.5930   93.4940 C   0  0  0  0  0  0  0  0  0  0  0  0
   67.4256   84.9783   92.7418 C   0  0  0  0  0  0  0  0  0  0  0  0
  8  9  1  0  0  0
  9 10  2  0  0  0
  9 11  1  0  0  0
 11  2  1  0  0  0
  2  3  2  0  0  0
  3  4  1  0  0  0
  4  5  2  0  0  0
  5  1  1  0  0  0
  1 17  1  0  0  0
 17 18  1  0  0  0
 18 19  2  0  0  0
 19 20  1  0  0  0
 20 24  1  0  0  0
 24 25  1  0  0  0
 24 26  1  0  0  0
 24 27  1  0  0  0
 20 21  2  0  0  0
 21 22  1  0  0  0
 22 28  1  0  0  0
 28 29  1  0  0  0
 28 30  1  0  0  0
 28 31  1  0  0  0
 22 23  2  0  0  0
  5  6  1  0  0  0
  6  7  2  0  0  0
  7 13  1  0  0  0
 13 14  2  0  0  0
 13 15  1  0  0  0
  7  2  1  0  0  0
 23 18  1  0  0  0
 11 12  1  0  0  0
 15 16  1  0  0  0
M  END
> <score>
-0.008874

> <minimizedAffinity>
-7.66560

> <CNNscore>
0.7204511762

> <CNNaffinity>
6.6685390472

> <CNN_VS>
4.8043565750

$$$$
HIPS6276


 31 32  0  0  0  0  0  0  0  0999 V2000
   68.2185   79.4163   88.9923 O   0  0  0  0  0  0  0  0  0  0  0  0
   68.2058   77.2263   92.6031 C   0  0  0  0  0  0  0  0  0  0  0  0
   67.0773   77.9362   92.1735 C   0  0  0  0  0  0  0  0  0  0  0  0
   67.1035   78.6605   90.9820 C   0  0  0  0  0  0  0  0  0  0  0  0
   68.2531   78.6831   90.1905 C   0  0  0  0  0  0  0  0  0  0  0  0
   69.3901   77.9684   90.6111 C   0  0  0  0  0  0  0  0  0  0  0  0
   69.3720   77.2118   91.7980 C   0  0  0  0  0  0  0  0  0  0  0  0
   67.5001   74.6070   95.3612 C   0  0  0  0  0  0  0  0  0  0  0  0
   67.4985   75.2807   94.0283 C   0  0  0  0  0  0  0  0  0  0  0  0
   66.9670   74.7041   93.0408 O   0  0  0  0  0  0  0  0  0  0  0  0
   68.1459   76.5508   93.8676 N   0  0  0  0  0  0  0  0  0  0  0  0
   68.5637   76.9738   94.6524 H   0  0  0  0  0  0  0  0  0  0  0  0
   70.5507   76.3755   92.1327 C   0  0  0  0  0  0  0  0  0  0  0  0
   71.6914   76.9020   92.2420 O   0  0  0  0  0  0  0  0  0  0  0  0
   70.4216   74.9983   92.2892 O   0  0  0  0  0  0  0  0  0  0  0  0
   69.5796   74.5948   92.2104 H   0  0  0  0  0  0  0  0  0  0  0  0
   67.5533   80.6672   88.8087 C   0  0  0  0  0  0  0  0  0  0  0  0
   68.3535   81.7872   89.4228 C   0  0  0  0  0  0  0  0  0  0  0  0
   68.0560   82.2251   90.7157 C   0  0  0  0  0  0  0  0  0  0  0  0
   68.7514   83.2997   91.3039 C   0  0  0  0  0  0  0  0  0  0  0  0
   69.7644   83.9300   90.5418 C   0  0  0  0  0  0  0  0  0  0  0  0
   70.0899   83.4998   89.2331 C   0  0  0  0  0  0  0  0  0  0  0  0
   69.3758   82.4090   88.7006 C   0  0  0  0  0  0  0  0  0  0  0  0
   68.3694   83.7547   92.7303 C   0  0  0  0  0  0  0  0  0  0  0  0
   67.3498   84.9197   92.7511 C   0  0  0  0  0  0  0  0  0  0  0  0
   69.6350   84.2324   93.4764 C   0  0  0  0  0  0  0  0  0  0  0  0
   67.7399   82.5696   93.4950 C   0  0  0  0  0  0  0  0  0  0  0  0
   71.1714   84.1858   88.3688 C   0  0  0  0  0  0  0  0  0  0  0  0
   71.1256   83.7650   86.8797 C   0  0  0  0  0  0  0  0  0  0  0  0
   72.5708   83.8205   88.9131 C   0  0  0  0  0  0  0  0  0  0  0  0
   70.9822   85.7175   88.4260 C   0  0  0  0  0  0  0  0  0  0  0  0
  8  9  1  0  0  0
  9 10  2  0  0  0
  9 11  1  0  0  0
 11  2  1  0  0  0
  2  3  2  0  0  0
  3  4  1  0  0  0
  4  5  2  0  0  0
  5  1  1  0  0  0
  1 17  1  0  0  0
 17 18  1  0  0  0
 18 19  2  0  0  0
 19 20  1  0  0  0
 20 24  1  0  0  0
 24 25  1  0  0  0
 24 26  1  0  0  0
 24 27  1  0  0  0
 20 21  2  0  0  0
 21 22  1  0  0  0
 22 28  1  0  0  0
 28 29  1  0  0  0
 28 30  1  0  0  0
 28 31  1  0  0  0
 22 23  2  0  0  0
  5  6  1  0  0  0
  6  7  2  0  0  0
  7 13  1  0  0  0
 13 14  2  0  0  0
 13 15  1  0  0  0
  7  2  1  0  0  0
 23 18  1  0  0  0
 11 12  1  0  0  0
 15 16  1  0  0  0
M  END
> <score>
-0.008874

> <minimizedAffinity>
-7.71615

> <CNNscore>
0.7110557556

> <CNNaffinity>
6.6445903778

> <CNN_VS>
4.7246742249

$$$$
HIPS6276


 31 32  0  0  0  0  0  0  0  0999 V2000
   67.3633   79.6247   89.8214 O   0  0  0  0  0  0  0  0  0  0  0  0
   68.5387   75.6230   90.4834 C   0  0  0  0  0  0  0  0  0  0  0  0
   67.4419   75.9391   89.6715 C   0  0  0  0  0  0  0  0  0  0  0  0
   67.0639   77.2665   89.4716 C   0  0  0  0  0  0  0  0  0  0  0  0
   67.7787   78.3056   90.0699 C   0  0  0  0  0  0  0  0  0  0  0  0
   68.8856   77.9982   90.8827 C   0  0  0  0  0  0  0  0  0  0  0  0
   69.2956   76.6653   91.0743 C   0  0  0  0  0  0  0  0  0  0  0  0
   68.5690   72.0334   91.9256 C   0  0  0  0  0  0  0  0  0  0  0  0
   68.2395   73.4811   91.7639 C   0  0  0  0  0  0  0  0  0  0  0  0
   67.3932   74.0157   92.5308 O   0  0  0  0  0  0  0  0  0  0  0  0
   68.8452   74.2392   90.7071 N   0  0  0  0  0  0  0  0  0  0  0  0
   69.4937   73.7945   90.1149 H   0  0  0  0  0  0  0  0  0  0  0  0
   70.5415   76.4011   91.8351 C   0  0  0  0  0  0  0  0  0  0  0  0
   70.4891   75.8349   92.9607 O   0  0  0  0  0  0  0  0  0  0  0  0
   71.7759   76.8099   91.3383 O   0  0  0  0  0  0  0  0  0  0  0  0
   71.8285   77.2317   90.5033 H   0  0  0  0  0  0  0  0  0  0  0  0
   67.8795   80.4733   88.7945 C   0  0  0  0  0  0  0  0  0  0  0  0
   68.5839   81.6628   89.3953 C   0  0  0  0  0  0  0  0  0  0  0  0
   68.2365   82.1017   90.6753 C   0  0  0  0  0  0  0  0  0  0  0  0
   68.8403   83.2374   91.2499 C   0  0  0  0  0  0  0  0  0  0  0  0
   69.8127   83.9281   90.4873 C   0  0  0  0  0  0  0  0  0  0  0  0
   70.1876   83.4987   89.1917 C   0  0  0  0  0  0  0  0  0  0  0  0
   69.5658   82.3465   88.6729 C   0  0  0  0  0  0  0  0  0  0  0  0
   68.4056   83.6895   92.6620 C   0  0  0  0  0  0  0  0  0  0  0  0
   67.7439   82.5620   93.4914 C   0  0  0  0  0  0  0  0  0  0  0  0
   67.3818   84.8403   92.5434 C   0  0  0  0  0  0  0  0  0  0  0  0
   69.6420   84.1817   93.4459 C   0  0  0  0  0  0  0  0  0  0  0  0
   71.2256   84.2482   88.3266 C   0  0  0  0  0  0  0  0  0  0  0  0
   72.6896   83.9714   88.7468 C   0  0  0  0  0  0  0  0  0  0  0  0
   70.9874   85.7705   88.4436 C   0  0  0  0  0  0  0  0  0  0  0  0
   71.0749   83.8169   86.8513 C   0  0  0  0  0  0  0  0  0  0  0  0
  8  9  1  0  0  0
  9 10  2  0  0  0
  9 11  1  0  0  0
 11  2  1  0  0  0
  2  3  2  0  0  0
  3  4  1  0  0  0
  4  5  2  0  0  0
  5  1  1  0  0  0
  1 17  1  0  0  0
 17 18  1  0  0  0
 18 19  2  0  0  0
 19 20  1  0  0  0
 20 24  1  0  0  0
 24 25  1  0  0  0
 24 26  1  0  0  0
 24 27  1  0  0  0
 20 21  2  0  0  0
 21 22  1  0  0  0
 22 28  1  0  0  0
 28 29  1  0  0  0
 28 30  1  0  0  0
 28 31  1  0  0  0
 22 23  2  0  0  0
  5  6  1  0  0  0
  6  7  2  0  0  0
  7 13  1  0  0  0
 13 14  2  0  0  0
 13 15  1  0  0  0
  7  2  1  0  0  0
 23 18  1  0  0  0
 11 12  1  0  0  0
 15 16  1  0  0  0
M  END
> <score>
-0.008874

> <minimizedAffinity>
-7.68070

> <CNNscore>
0.6020745635

> <CNNaffinity>
6.4608526230

> <CNN_VS>
3.8899149895

$$$$
HIPS6277


 35 36  0  0  0  0  0  0  0  0999 V2000
   68.5120   77.1127   91.9796 C   0  0  0  0  0  0  0  0  0  0  0  0
   67.4739   78.0296   91.7477 C   0  0  0  0  0  0  0  0  0  0  0  0
   67.6855   79.1667   90.9704 C   0  0  0  0  0  0  0  0  0  0  0  0
   68.9450   79.4116   90.4011 C   0  0  0  0  0  0  0  0  0  0  0  0
   69.9790   78.4946   90.6138 C   0  0  0  0  0  0  0  0  0  0  0  0
   69.7870   77.3465   91.4066 C   0  0  0  0  0  0  0  0  0  0  0  0
   68.5289   75.7406   94.0991 C   0  0  0  0  0  0  0  0  0  0  0  0
   69.2423   76.5895   94.6986 O   0  0  0  0  0  0  0  0  0  0  0  0
   68.2333   75.9044   92.7069 N   0  0  0  0  0  0  0  0  0  0  0  0
   67.8190   75.1527   92.2246 H   0  0  0  0  0  0  0  0  0  0  0  0
   68.0340   74.6115   94.7685 O   0  0  0  0  0  0  0  0  0  0  0  0
   65.9002   75.6980   95.2780 C   0  0  0  0  0  0  0  0  0  0  0  0
   66.6654   74.3692   95.1282 C   0  0  0  0  0  0  0  0  0  0  0  0
   66.6733   73.6460   96.4838 C   0  0  0  0  0  0  0  0  0  0  0  0
   65.9822   73.4631   94.0853 C   0  0  0  0  0  0  0  0  0  0  0  0
   70.9400   76.4447   91.6533 C   0  0  0  0  0  0  0  0  0  0  0  0
   70.7988   75.1960   91.5519 O   0  0  0  0  0  0  0  0  0  0  0  0
   72.1968   76.9599   91.9596 O   0  0  0  0  0  0  0  0  0  0  0  0
   72.3171   77.8858   92.0382 H   0  0  0  0  0  0  0  0  0  0  0  0
   69.2142   80.5472   89.6194 O   0  0  0  0  0  0  0  0  0  0  0  0
   70.3994   81.3407   89.6972 C   0  0  0  0  0  0  0  0  0  0  0  0
   70.0489   82.7883   89.9267 C   0  0  0  0  0  0  0  0  0  0  0  0
   69.4247   83.1889   91.1117 C   0  0  0  0  0  0  0  0  0  0  0  0
   69.1418   84.5442   91.3679 C   0  0  0  0  0  0  0  0  0  0  0  0
   69.4813   85.4894   90.3723 C   0  0  0  0  0  0  0  0  0  0  0  0
   70.0922   85.1097   89.1559 C   0  0  0  0  0  0  0  0  0  0  0  0
   70.3733   83.7416   88.9563 C   0  0  0  0  0  0  0  0  0  0  0  0
   68.5007   84.9410   92.7156 C   0  0  0  0  0  0  0  0  0  0  0  0
   67.0473   84.4327   92.8749 C   0  0  0  0  0  0  0  0  0  0  0  0
   69.3307   84.3509   93.8768 C   0  0  0  0  0  0  0  0  0  0  0  0
   68.4723   86.4812   92.8356 C   0  0  0  0  0  0  0  0  0  0  0  0
   70.4373   86.1904   88.1073 C   0  0  0  0  0  0  0  0  0  0  0  0
   69.8581   85.8862   86.7040 C   0  0  0  0  0  0  0  0  0  0  0  0
   71.9716   86.2994   87.9648 C   0  0  0  0  0  0  0  0  0  0  0  0
   69.8650   87.5517   88.5612 C   0  0  0  0  0  0  0  0  0  0  0  0
 12 13  1  0  0  0
 13 14  1  0  0  0
 13 15  1  0  0  0
 13 11  1  0  0  0
 11  7  1  0  0  0
  7  8  2  0  0  0
  7  9  1  0  0  0
  9  1  1  0  0  0
  1  2  2  0  0  0
  2  3  1  0  0  0
  3  4  2  0  0  0
  4 20  1  0  0  0
 20 21  1  0  0  0
 21 22  1  0  0  0
 22 23  2  0  0  0
 23 24  1  0  0  0
 24 28  1  0  0  0
 28 29  1  0  0  0
 28 30  1  0  0  0
 28 31  1  0  0  0
 24 25  2  0  0  0
 25 26  1  0  0  0
 26 32  1  0  0  0
 32 33  1  0  0  0
 32 34  1  0  0  0
 32 35  1  0  0  0
 26 27  2  0  0  0
  4  5  1  0  0  0
  5  6  2  0  0  0
  6 16  1  0  0  0
 16 17  2  0  0  0
 16 18  1  0  0  0
  6  1  1  0  0  0
 27 22  1  0  0  0
  9 10  1  0  0  0
 18 19  1  0  0  0
M  END
> <score>
-0.579681

> <minimizedAffinity>
-7.60020

> <CNNscore>
0.5624855757

> <CNNaffinity>
6.5322341919

> <CNN_VS>
3.6742875576

$$$$
HIPS6277


 35 36  0  0  0  0  0  0  0  0999 V2000
   69.7919   77.0202   91.1263 C   0  0  0  0  0  0  0  0  0  0  0  0
   68.6217   77.6848   90.7251 C   0  0  0  0  0  0  0  0  0  0  0  0
   68.6710   78.9933   90.2483 C   0  0  0  0  0  0  0  0  0  0  0  0
   69.8982   79.6686   90.1575 C   0  0  0  0  0  0  0  0  0  0  0  0
   71.0697   79.0076   90.5393 C   0  0  0  0  0  0  0  0  0  0  0  0
   71.0377   77.6897   91.0352 C   0  0  0  0  0  0  0  0  0  0  0  0
   68.9954   74.6491   90.7819 C   0  0  0  0  0  0  0  0  0  0  0  0
   68.2199   74.9952   89.8503 O   0  0  0  0  0  0  0  0  0  0  0  0
   69.7159   75.6407   91.5236 N   0  0  0  0  0  0  0  0  0  0  0  0
   70.1818   75.3639   92.3455 H   0  0  0  0  0  0  0  0  0  0  0  0
   69.1496   73.2987   91.1290 O   0  0  0  0  0  0  0  0  0  0  0  0
   69.5372   73.3384   93.5459 C   0  0  0  0  0  0  0  0  0  0  0  0
   68.7718   72.6932   92.3748 C   0  0  0  0  0  0  0  0  0  0  0  0
   69.1535   71.2073   92.2918 C   0  0  0  0  0  0  0  0  0  0  0  0
   67.2502   72.8042   92.5928 C   0  0  0  0  0  0  0  0  0  0  0  0
   72.3048   77.0637   91.4892 C   0  0  0  0  0  0  0  0  0  0  0  0
   72.9120   76.2511   90.7406 O   0  0  0  0  0  0  0  0  0  0  0  0
   72.8606   77.3905   92.7233 O   0  0  0  0  0  0  0  0  0  0  0  0
   72.4209   77.9929   93.2904 H   0  0  0  0  0  0  0  0  0  0  0  0
   70.0019   80.9908   89.6946 O   0  0  0  0  0  0  0  0  0  0  0  0
   70.9612   81.9494   90.1433 C   0  0  0  0  0  0  0  0  0  0  0  0
   70.3230   83.3077   90.2798 C   0  0  0  0  0  0  0  0  0  0  0  0
   69.4975   83.5985   91.3700 C   0  0  0  0  0  0  0  0  0  0  0  0
   68.9392   84.8793   91.5440 C   0  0  0  0  0  0  0  0  0  0  0  0
   69.2143   85.8588   90.5619 C   0  0  0  0  0  0  0  0  0  0  0  0
   70.0268   85.5857   89.4384 C   0  0  0  0  0  0  0  0  0  0  0  0
   70.5790   84.2927   89.3206 C   0  0  0  0  0  0  0  0  0  0  0  0
   68.0784   85.1651   92.7939 C   0  0  0  0  0  0  0  0  0  0  0  0
   68.4955   84.3293   94.0283 C   0  0  0  0  0  0  0  0  0  0  0  0
   68.2022   86.6561   93.1773 C   0  0  0  0  0  0  0  0  0  0  0  0
   66.6008   84.8353   92.4846 C   0  0  0  0  0  0  0  0  0  0  0  0
   70.2887   86.6987   88.3994 C   0  0  0  0  0  0  0  0  0  0  0  0
   69.5516   86.4669   87.0578 C   0  0  0  0  0  0  0  0  0  0  0  0
   71.8010   86.7732   88.0937 C   0  0  0  0  0  0  0  0  0  0  0  0
   69.8106   88.0549   88.9642 C   0  0  0  0  0  0  0  0  0  0  0  0
 12 13  1  0  0  0
 13 14  1  0  0  0
 13 15  1  0  0  0
 13 11  1  0  0  0
 11  7  1  0  0  0
  7  8  2  0  0  0
  7  9  1  0  0  0
  9  1  1  0  0  0
  1  2  2  0  0  0
  2  3  1  0  0  0
  3  4  2  0  0  0
  4 20  1  0  0  0
 20 21  1  0  0  0
 21 22  1  0  0  0
 22 23  2  0  0  0
 23 24  1  0  0  0
 24 28  1  0  0  0
 28 29  1  0  0  0
 28 30  1  0  0  0
 28 31  1  0  0  0
 24 25  2  0  0  0
 25 26  1  0  0  0
 26 32  1  0  0  0
 32 33  1  0  0  0
 32 34  1  0  0  0
 32 35  1  0  0  0
 26 27  2  0  0  0
  4  5  1  0  0  0
  5  6  2  0  0  0
  6 16  1  0  0  0
 16 17  2  0  0  0
 16 18  1  0  0  0
  6  1  1  0  0  0
 27 22  1  0  0  0
  9 10  1  0  0  0
 18 19  1  0  0  0
M  END
> <score>
-0.579681

> <minimizedAffinity>
-7.30323

> <CNNscore>
0.5335415006

> <CNNaffinity>
6.4463005066

> <CNN_VS>
3.4393689632

$$$$
HIPS6277


 35 36  0  0  0  0  0  0  0  0999 V2000
   68.2866   76.9451   91.1264 C   0  0  0  0  0  0  0  0  0  0  0  0
   67.3384   77.7131   90.4313 C   0  0  0  0  0  0  0  0  0  0  0  0
   67.6896   78.9335   89.8574 C   0  0  0  0  0  0  0  0  0  0  0  0
   69.0044   79.4137   89.9625 C   0  0  0  0  0  0  0  0  0  0  0  0
   69.9582   78.6466   90.6386 C   0  0  0  0  0  0  0  0  0  0  0  0
   69.6185   77.4169   91.2355 C   0  0  0  0  0  0  0  0  0  0  0  0
   67.9462   74.4617   90.8226 C   0  0  0  0  0  0  0  0  0  0  0  0
   68.1103   74.5443   89.5755 O   0  0  0  0  0  0  0  0  0  0  0  0
   67.9133   75.6490   91.6238 N   0  0  0  0  0  0  0  0  0  0  0  0
   67.6208   75.5735   92.5608 H   0  0  0  0  0  0  0  0  0  0  0  0
   67.7668   73.2182   91.4466 O   0  0  0  0  0  0  0  0  0  0  0  0
   68.5052   71.0678   92.3543 C   0  0  0  0  0  0  0  0  0  0  0  0
   68.6633   72.6001   92.3823 C   0  0  0  0  0  0  0  0  0  0  0  0
   68.2842   73.1121   93.7805 C   0  0  0  0  0  0  0  0  0  0  0  0
   70.1210   73.0019   92.0841 C   0  0  0  0  0  0  0  0  0  0  0  0
   70.6566   76.6796   91.9987 C   0  0  0  0  0  0  0  0  0  0  0  0
   71.7619   76.4041   91.4583 O   0  0  0  0  0  0  0  0  0  0  0  0
   70.4445   76.3173   93.3262 O   0  0  0  0  0  0  0  0  0  0  0  0
   69.6281   76.5155   93.7412 H   0  0  0  0  0  0  0  0  0  0  0  0
   69.4078   80.6415   89.4122 O   0  0  0  0  0  0  0  0  0  0  0  0
   70.5474   81.3968   89.8261 C   0  0  0  0  0  0  0  0  0  0  0  0
   70.1704   82.8388   90.0479 C   0  0  0  0  0  0  0  0  0  0  0  0
   70.4775   83.8090   89.0893 C   0  0  0  0  0  0  0  0  0  0  0  0
   70.0826   85.1505   89.2531 C   0  0  0  0  0  0  0  0  0  0  0  0
   69.3897   85.4952   90.4367 C   0  0  0  0  0  0  0  0  0  0  0  0
   69.0860   84.5396   91.4323 C   0  0  0  0  0  0  0  0  0  0  0  0
   69.4858   83.2047   91.2111 C   0  0  0  0  0  0  0  0  0  0  0  0
   70.3987   86.1729   88.1397 C   0  0  0  0  0  0  0  0  0  0  0  0
   71.9005   86.2289   87.7688 C   0  0  0  0  0  0  0  0  0  0  0  0
   69.6163   85.8029   86.8605 C   0  0  0  0  0  0  0  0  0  0  0  0
   69.9805   87.5850   88.6072 C   0  0  0  0  0  0  0  0  0  0  0  0
   68.3274   84.9797   92.7042 C   0  0  0  0  0  0  0  0  0  0  0  0
   66.8632   84.4784   92.7456 C   0  0  0  0  0  0  0  0  0  0  0  0
   68.2943   86.5224   92.7770 C   0  0  0  0  0  0  0  0  0  0  0  0
   69.0454   84.4211   93.9528 C   0  0  0  0  0  0  0  0  0  0  0  0
 12 13  1  0  0  0
 13 14  1  0  0  0
 13 15  1  0  0  0
 13 11  1  0  0  0
 11  7  1  0  0  0
  7  8  2  0  0  0
  7  9  1  0  0  0
  9  1  1  0  0  0
  1  2  2  0  0  0
  2  3  1  0  0  0
  3  4  2  0  0  0
  4 20  1  0  0  0
 20 21  1  0  0  0
 21 22  1  0  0  0
 22 23  2  0  0  0
 23 24  1  0  0  0
 24 28  1  0  0  0
 28 29  1  0  0  0
 28 30  1  0  0  0
 28 31  1  0  0  0
 24 25  2  0  0  0
 25 26  1  0  0  0
 26 32  1  0  0  0
 32 33  1  0  0  0
 32 34  1  0  0  0
 32 35  1  0  0  0
 26 27  2  0  0  0
  4  5  1  0  0  0
  5  6  2  0  0  0
  6 16  1  0  0  0
 16 17  2  0  0  0
 16 18  1  0  0  0
  6  1  1  0  0  0
 27 22  1  0  0  0
  9 10  1  0  0  0
 18 19  1  0  0  0
M  END
> <score>
-0.579681

> <minimizedAffinity>
-7.07976

> <CNNscore>
0.4976758361

> <CNNaffinity>
6.4736166000

> <CNN_VS>
3.2217626572

$$$$
HIPS6295


 36 39  0  0  0  0  0  0  0  0999 V2000
   68.9453   76.9490   92.4836 C   0  0  0  0  0  0  0  0  0  0  0  0
   70.3220   76.7187   92.3307 C   0  0  0  0  0  0  0  0  0  0  0  0
   71.0227   77.3127   91.2737 C   0  0  0  0  0  0  0  0  0  0  0  0
   72.7353   76.9865   91.0632 Cl  0  0  0  0  0  0  0  0  0  0  0  0
   70.3521   78.1373   90.3644 C   0  0  0  0  0  0  0  0  0  0  0  0
   68.9799   78.3796   90.5166 C   0  0  0  0  0  0  0  0  0  0  0  0
   68.2817   77.7908   91.5788 C   0  0  0  0  0  0  0  0  0  0  0  0
   68.2452   79.1571   89.5102 C   0  0  0  0  0  0  0  0  0  0  0  0
   67.4085   78.5170   88.5866 C   0  0  0  0  0  0  0  0  0  0  0  0
   66.7659   79.2617   87.5940 C   0  0  0  0  0  0  0  0  0  0  0  0
   66.9764   80.6415   87.5058 C   0  0  0  0  0  0  0  0  0  0  0  0
   67.8298   81.2904   88.4084 C   0  0  0  0  0  0  0  0  0  0  0  0
   68.4419   80.5422   89.4311 C   0  0  0  0  0  0  0  0  0  0  0  0
   68.0565   82.6677   88.2449 O   0  0  0  0  0  0  0  0  0  0  0  0
   68.6648   83.2705   87.0995 C   0  0  0  0  0  0  0  0  0  0  0  0
   69.9571   83.9528   87.4733 C   0  0  0  0  0  0  0  0  0  0  0  0
   70.2387   85.2523   87.0169 C   0  0  0  0  0  0  0  0  0  0  0  0
   71.4260   85.8892   87.3920 C   0  0  0  0  0  0  0  0  0  0  0  0
   72.3452   85.2311   88.2136 C   0  0  0  0  0  0  0  0  0  0  0  0
   72.0815   83.9312   88.6574 C   0  0  0  0  0  0  0  0  0  0  0  0
   73.2379   83.1050   89.6856 Cl  0  0  0  0  0  0  0  0  0  0  0  0
   70.8918   83.2925   88.2876 C   0  0  0  0  0  0  0  0  0  0  0  0
   68.1633   76.2681   93.5700 C   0  0  0  0  0  0  0  0  0  0  0  0
   67.4818   75.1456   93.0144 O   0  0  0  0  0  0  0  0  0  0  0  0
   69.7222   72.2088   92.7210 C   0  0  0  0  0  0  0  0  0  0  0  0
   69.0422   73.3307   93.2279 C   0  0  0  0  0  0  0  0  0  0  0  0
   68.1133   74.0283   92.4500 C   0  0  0  0  0  0  0  0  0  0  0  0
   67.8507   73.5954   91.1410 C   0  0  0  0  0  0  0  0  0  0  0  0
   68.4984   72.4687   90.6329 C   0  0  0  0  0  0  0  0  0  0  0  0
   69.4143   71.7554   91.4127 C   0  0  0  0  0  0  0  0  0  0  0  0
   69.9629   70.5932   90.8650 O   0  0  0  0  0  0  0  0  0  0  0  0
   69.7316   70.3304   89.9959 H   0  0  0  0  0  0  0  0  0  0  0  0
   71.9489   71.4746   93.1661 O   0  0  0  0  0  0  0  0  0  0  0  0
   70.7594   71.5773   93.5691 C   0  0  0  0  0  0  0  0  0  0  0  0
   70.4368   71.1450   94.8540 O   0  0  0  0  0  0  0  0  0  0  0  0
   69.5558   71.2162   95.1649 H   0  0  0  0  0  0  0  0  0  0  0  0
 33 34  2  0  0  0
 34 35  1  0  0  0
 34 25  1  0  0  0
 25 26  2  0  0  0
 26 27  1  0  0  0
 27 24  1  0  0  0
 24 23  1  0  0  0
 23  1  1  0  0  0
  1  2  2  0  0  0
  2  3  1  0  0  0
  3  4  1  0  0  0
  3  5  2  0  0  0
  5  6  1  0  0  0
  6  8  1  0  0  0
  8  9  2  0  0  0
  9 10  1  0  0  0
 10 11  2  0  0  0
 11 12  1  0  0  0
 12 14  1  0  0  0
 14 15  1  0  0  0
 15 16  1  0  0  0
 16 17  2  0  0  0
 17 18  1  0  0  0
 18 19  2  0  0  0
 19 20  1  0  0  0
 20 21  1  0  0  0
 20 22  2  0  0  0
 12 13  2  0  0  0
  6  7  2  0  0  0
 27 28  2  0  0  0
 28 29  1  0  0  0
 29 30  2  0  0  0
 30 31  1  0  0  0
 30 25  1  0  0  0
  7  1  1  0  0  0
 13  8  1  0  0  0
 22 16  1  0  0  0
 35 36  1  0  0  0
 31 32  1  0  0  0
M  END
> <score>
-0.365622

> <minimizedAffinity>
-9.41524

> <CNNscore>
0.8195899725

> <CNNaffinity>
7.0815629959

> <CNN_VS>
5.8039779663

$$$$
HIPS6295


 36 39  0  0  0  0  0  0  0  0999 V2000
   66.3942   79.2477   90.5049 C   0  0  0  0  0  0  0  0  0  0  0  0
   65.7516   78.7793   91.6622 C   0  0  0  0  0  0  0  0  0  0  0  0
   65.8881   79.4702   92.8727 C   0  0  0  0  0  0  0  0  0  0  0  0
   65.1168   78.8556   94.3256 Cl  0  0  0  0  0  0  0  0  0  0  0  0
   66.6678   80.6299   92.9332 C   0  0  0  0  0  0  0  0  0  0  0  0
   67.3041   81.1088   91.7797 C   0  0  0  0  0  0  0  0  0  0  0  0
   67.1605   80.4209   90.5679 C   0  0  0  0  0  0  0  0  0  0  0  0
   68.2084   82.2637   91.8536 C   0  0  0  0  0  0  0  0  0  0  0  0
   67.8991   83.3600   92.6693 C   0  0  0  0  0  0  0  0  0  0  0  0
   68.7356   84.4792   92.6808 C   0  0  0  0  0  0  0  0  0  0  0  0
   69.8679   84.5170   91.8606 C   0  0  0  0  0  0  0  0  0  0  0  0
   70.1755   83.4371   91.0221 C   0  0  0  0  0  0  0  0  0  0  0  0
   69.3524   82.2959   91.0450 C   0  0  0  0  0  0  0  0  0  0  0  0
   71.2902   83.5439   90.1729 O   0  0  0  0  0  0  0  0  0  0  0  0
   71.2692   84.0980   88.8545 C   0  0  0  0  0  0  0  0  0  0  0  0
   69.8935   83.9862   88.2460 C   0  0  0  0  0  0  0  0  0  0  0  0
   69.1054   85.1324   88.0422 C   0  0  0  0  0  0  0  0  0  0  0  0
   67.8428   85.0236   87.4505 C   0  0  0  0  0  0  0  0  0  0  0  0
   67.3527   83.7715   87.0697 C   0  0  0  0  0  0  0  0  0  0  0  0
   68.1224   82.6237   87.2854 C   0  0  0  0  0  0  0  0  0  0  0  0
   67.5043   81.0524   86.8103 Cl  0  0  0  0  0  0  0  0  0  0  0  0
   69.3886   82.7297   87.8732 C   0  0  0  0  0  0  0  0  0  0  0  0
   66.3150   78.4845   89.2139 C   0  0  0  0  0  0  0  0  0  0  0  0
   67.5927   77.9167   88.9339 O   0  0  0  0  0  0  0  0  0  0  0  0
   70.3202   76.6807   91.1164 C   0  0  0  0  0  0  0  0  0  0  0  0
   69.5534   77.4850   90.2544 C   0  0  0  0  0  0  0  0  0  0  0  0
   68.2971   77.0705   89.8019 C   0  0  0  0  0  0  0  0  0  0  0  0
   67.7903   75.8311   90.2221 C   0  0  0  0  0  0  0  0  0  0  0  0
   68.5281   75.0333   91.0976 C   0  0  0  0  0  0  0  0  0  0  0  0
   69.7768   75.4510   91.5689 C   0  0  0  0  0  0  0  0  0  0  0  0
   70.4206   74.6367   92.5038 O   0  0  0  0  0  0  0  0  0  0  0  0
   70.0252   73.8316   92.7749 H   0  0  0  0  0  0  0  0  0  0  0  0
   72.0390   77.2101   92.6850 O   0  0  0  0  0  0  0  0  0  0  0  0
   71.6799   77.1425   91.4791 C   0  0  0  0  0  0  0  0  0  0  0  0
   72.5992   77.4485   90.4775 O   0  0  0  0  0  0  0  0  0  0  0  0
   72.3440   77.4019   89.5771 H   0  0  0  0  0  0  0  0  0  0  0  0
 33 34  2  0  0  0
 34 35  1  0  0  0
 34 25  1  0  0  0
 25 26  2  0  0  0
 26 27  1  0  0  0
 27 24  1  0  0  0
 24 23  1  0  0  0
 23  1  1  0  0  0
  1  2  2  0  0  0
  2  3  1  0  0  0
  3  4  1  0  0  0
  3  5  2  0  0  0
  5  6  1  0  0  0
  6  8  1  0  0  0
  8  9  2  0  0  0
  9 10  1  0  0  0
 10 11  2  0  0  0
 11 12  1  0  0  0
 12 14  1  0  0  0
 14 15  1  0  0  0
 15 16  1  0  0  0
 16 17  2  0  0  0
 17 18  1  0  0  0
 18 19  2  0  0  0
 19 20  1  0  0  0
 20 21  1  0  0  0
 20 22  2  0  0  0
 12 13  2  0  0  0
  6  7  2  0  0  0
 27 28  2  0  0  0
 28 29  1  0  0  0
 29 30  2  0  0  0
 30 31  1  0  0  0
 30 25  1  0  0  0
  7  1  1  0  0  0
 13  8  1  0  0  0
 22 16  1  0  0  0
 35 36  1  0  0  0
 31 32  1  0  0  0
M  END
> <score>
-0.365622

> <minimizedAffinity>
-7.69345

> <CNNscore>
0.7844499350

> <CNNaffinity>
7.4745349884

> <CNN_VS>
5.8633985519

$$$$
HIPS6295


 36 39  0  0  0  0  0  0  0  0999 V2000
   68.3531   77.6378   90.6949 C   0  0  0  0  0  0  0  0  0  0  0  0
   69.6968   77.3277   90.4303 C   0  0  0  0  0  0  0  0  0  0  0  0
   70.6133   78.3483   90.1486 C   0  0  0  0  0  0  0  0  0  0  0  0
   72.2827   77.9505   89.7766 Cl  0  0  0  0  0  0  0  0  0  0  0  0
   70.1921   79.6820   90.1283 C   0  0  0  0  0  0  0  0  0  0  0  0
   68.8545   79.9999   90.4013 C   0  0  0  0  0  0  0  0  0  0  0  0
   67.9404   78.9784   90.6903 C   0  0  0  0  0  0  0  0  0  0  0  0
   68.3786   81.3839   90.2799 C   0  0  0  0  0  0  0  0  0  0  0  0
   68.0498   82.1271   91.4212 C   0  0  0  0  0  0  0  0  0  0  0  0
   67.5373   83.4203   91.2882 C   0  0  0  0  0  0  0  0  0  0  0  0
   67.3286   83.9646   90.0168 C   0  0  0  0  0  0  0  0  0  0  0  0
   67.6307   83.2229   88.8668 C   0  0  0  0  0  0  0  0  0  0  0  0
   68.1849   81.9370   89.0070 C   0  0  0  0  0  0  0  0  0  0  0  0
   67.3498   83.7883   87.6113 O   0  0  0  0  0  0  0  0  0  0  0  0
   68.3161   84.0362   86.5865 C   0  0  0  0  0  0  0  0  0  0  0  0
   69.5182   84.7571   87.1438 C   0  0  0  0  0  0  0  0  0  0  0  0
   70.7773   84.1324   87.1739 C   0  0  0  0  0  0  0  0  0  0  0  0
   71.8928   84.8182   87.6653 C   0  0  0  0  0  0  0  0  0  0  0  0
   71.7585   86.1254   88.1408 C   0  0  0  0  0  0  0  0  0  0  0  0
   70.5061   86.7481   88.1315 C   0  0  0  0  0  0  0  0  0  0  0  0
   70.3383   88.3876   88.7322 Cl  0  0  0  0  0  0  0  0  0  0  0  0
   69.3883   86.0661   87.6360 C   0  0  0  0  0  0  0  0  0  0  0  0
   67.3415   76.5534   90.9325 C   0  0  0  0  0  0  0  0  0  0  0  0
   66.7493   76.7474   92.2151 O   0  0  0  0  0  0  0  0  0  0  0  0
   68.1577   74.1955   94.5029 C   0  0  0  0  0  0  0  0  0  0  0  0
   68.0199   75.1386   93.4687 C   0  0  0  0  0  0  0  0  0  0  0  0
   66.8210   75.8309   93.2737 C   0  0  0  0  0  0  0  0  0  0  0  0
   65.7378   75.5838   94.1312 C   0  0  0  0  0  0  0  0  0  0  0  0
   65.8675   74.6699   95.1777 C   0  0  0  0  0  0  0  0  0  0  0  0
   67.0702   73.9884   95.3897 C   0  0  0  0  0  0  0  0  0  0  0  0
   67.1503   73.1494   96.5039 O   0  0  0  0  0  0  0  0  0  0  0  0
   66.4067   73.0416   97.0636 H   0  0  0  0  0  0  0  0  0  0  0  0
   69.6568   72.6761   95.5705 O   0  0  0  0  0  0  0  0  0  0  0  0
   69.4249   73.4337   94.5906 C   0  0  0  0  0  0  0  0  0  0  0  0
   70.3497   73.5027   93.5505 O   0  0  0  0  0  0  0  0  0  0  0  0
   70.1884   74.0624   92.8165 H   0  0  0  0  0  0  0  0  0  0  0  0
 33 34  2  0  0  0
 34 35  1  0  0  0
 34 25  1  0  0  0
 25 26  2  0  0  0
 26 27  1  0  0  0
 27 24  1  0  0  0
 24 23  1  0  0  0
 23  1  1  0  0  0
  1  2  2  0  0  0
  2  3  1  0  0  0
  3  4  1  0  0  0
  3  5  2  0  0  0
  5  6  1  0  0  0
  6  8  1  0  0  0
  8  9  2  0  0  0
  9 10  1  0  0  0
 10 11  2  0  0  0
 11 12  1  0  0  0
 12 14  1  0  0  0
 14 15  1  0  0  0
 15 16  1  0  0  0
 16 17  2  0  0  0
 17 18  1  0  0  0
 18 19  2  0  0  0
 19 20  1  0  0  0
 20 21  1  0  0  0
 20 22  2  0  0  0
 12 13  2  0  0  0
  6  7  2  0  0  0
 27 28  2  0  0  0
 28 29  1  0  0  0
 29 30  2  0  0  0
 30 31  1  0  0  0
 30 25  1  0  0  0
  7  1  1  0  0  0
 13  8  1  0  0  0
 22 16  1  0  0  0
 35 36  1  0  0  0
 31 32  1  0  0  0
M  END
> <score>
-0.365622

> <minimizedAffinity>
-9.63987

> <CNNscore>
0.7654962540

> <CNNaffinity>
6.8166637421

> <CNN_VS>
5.2181305885

$$$$
HIPS6296


 32 33  0  0  0  0  0  0  0  0999 V2000
   67.5414   79.4925   90.2129 O   0  0  0  0  0  0  0  0  0  0  0  0
   67.6930   78.6020   91.2887 C   0  0  0  0  0  0  0  0  0  0  0  0
   66.7517   78.5000   92.3248 C   0  0  0  0  0  0  0  0  0  0  0  0
   66.9357   77.5792   93.3552 C   0  0  0  0  0  0  0  0  0  0  0  0
   68.0701   76.7505   93.3877 C   0  0  0  0  0  0  0  0  0  0  0  0
   69.0429   76.8710   92.3624 C   0  0  0  0  0  0  0  0  0  0  0  0
   68.8315   77.7920   91.3206 C   0  0  0  0  0  0  0  0  0  0  0  0
   70.3021   76.0893   92.3653 C   0  0  0  0  0  0  0  0  0  0  0  0
   71.4192   76.6649   92.2697 O   0  0  0  0  0  0  0  0  0  0  0  0
   70.2567   74.6991   92.4285 O   0  0  0  0  0  0  0  0  0  0  0  0
   69.4320   74.2600   92.4997 H   0  0  0  0  0  0  0  0  0  0  0  0
   68.1853   75.7383   94.4030 N   0  0  0  0  0  0  0  0  0  0  0  0
   68.6500   75.9654   95.2407 H   0  0  0  0  0  0  0  0  0  0  0  0
   67.5448   74.1367   94.2222 S   0  0  0  0  0  0  0  0  0  0  0  0
   66.0839   73.9542   95.2205 C   0  0  0  0  0  0  0  0  0  0  0  0
   67.1908   73.9113   92.7795 O   0  0  0  0  0  0  0  0  0  0  0  0
   68.5739   73.1206   94.6313 O   0  0  0  0  0  0  0  0  0  0  0  0
   68.6009   79.9692   89.3818 C   0  0  0  0  0  0  0  0  0  0  0  0
   68.9287   83.1861   91.4176 C   0  0  0  0  0  0  0  0  0  0  0  0
   68.5482   81.8936   90.9977 C   0  0  0  0  0  0  0  0  0  0  0  0
   68.9948   81.3681   89.7810 C   0  0  0  0  0  0  0  0  0  0  0  0
   69.8204   82.1363   88.9544 C   0  0  0  0  0  0  0  0  0  0  0  0
   70.2417   83.4249   89.3352 C   0  0  0  0  0  0  0  0  0  0  0  0
   69.7795   83.9327   90.5718 C   0  0  0  0  0  0  0  0  0  0  0  0
   69.6288   84.3348   93.6217 C   0  0  0  0  0  0  0  0  0  0  0  0
   68.4624   83.7947   92.7587 C   0  0  0  0  0  0  0  0  0  0  0  0
   67.5016   84.9721   92.4837 C   0  0  0  0  0  0  0  0  0  0  0  0
   67.7300   82.7167   93.5878 C   0  0  0  0  0  0  0  0  0  0  0  0
   71.1931   84.2138   88.4090 C   0  0  0  0  0  0  0  0  0  0  0  0
   72.6559   83.9622   88.8358 C   0  0  0  0  0  0  0  0  0  0  0  0
   70.8791   85.7227   88.5166 C   0  0  0  0  0  0  0  0  0  0  0  0
   71.0658   83.8152   86.9185 C   0  0  0  0  0  0  0  0  0  0  0  0
 25 26  1  0  0  0
 26 27  1  0  0  0
 26 28  1  0  0  0
 26 19  1  0  0  0
 19 20  2  0  0  0
 20 21  1  0  0  0
 21 18  1  0  0  0
 18  1  1  0  0  0
  1  2  1  0  0  0
  2  3  2  0  0  0
  3  4  1  0  0  0
  4  5  2  0  0  0
  5 12  1  0  0  0
 12 14  1  0  0  0
 14 15  1  0  0  0
 14 16  2  0  0  0
 14 17  2  0  0  0
  5  6  1  0  0  0
  6  8  1  0  0  0
  8  9  2  0  0  0
  8 10  1  0  0  0
  6  7  2  0  0  0
 21 22  2  0  0  0
 22 23  1  0  0  0
 23 29  1  0  0  0
 29 30  1  0  0  0
 29 31  1  0  0  0
 29 32  1  0  0  0
 23 24  2  0  0  0
 24 19  1  0  0  0
  7  2  1  0  0  0
 12 13  1  0  0  0
 10 11  1  0  0  0
M  END
> <score>
0.286885

> <minimizedAffinity>
-7.84755

> <CNNscore>
0.7425708771

> <CNNaffinity>
6.6420021057

> <CNN_VS>
4.9321575165

$$$$
HIPS6296


 32 33  0  0  0  0  0  0  0  0999 V2000
   67.4234   79.6053   90.3295 O   0  0  0  0  0  0  0  0  0  0  0  0
   67.6015   78.6539   91.3476 C   0  0  0  0  0  0  0  0  0  0  0  0
   66.6825   78.4856   92.3950 C   0  0  0  0  0  0  0  0  0  0  0  0
   66.8923   77.5069   93.3653 C   0  0  0  0  0  0  0  0  0  0  0  0
   68.0309   76.6844   93.3257 C   0  0  0  0  0  0  0  0  0  0  0  0
   68.9816   76.8707   92.2895 C   0  0  0  0  0  0  0  0  0  0  0  0
   68.7442   77.8501   91.3083 C   0  0  0  0  0  0  0  0  0  0  0  0
   70.2442   76.0976   92.2204 C   0  0  0  0  0  0  0  0  0  0  0  0
   71.3595   76.6707   92.3469 O   0  0  0  0  0  0  0  0  0  0  0  0
   70.2078   74.7288   91.9680 O   0  0  0  0  0  0  0  0  0  0  0  0
   69.3846   74.2918   91.8720 H   0  0  0  0  0  0  0  0  0  0  0  0
   68.1720   75.6149   94.2770 N   0  0  0  0  0  0  0  0  0  0  0  0
   68.7273   75.7680   95.0754 H   0  0  0  0  0  0  0  0  0  0  0  0
   67.4107   74.0684   94.0849 S   0  0  0  0  0  0  0  0  0  0  0  0
   65.7449   74.1341   94.7052 C   0  0  0  0  0  0  0  0  0  0  0  0
   67.3825   73.7149   92.6249 O   0  0  0  0  0  0  0  0  0  0  0  0
   68.1896   73.0153   94.8218 O   0  0  0  0  0  0  0  0  0  0  0  0
   68.4444   80.0637   89.4419 C   0  0  0  0  0  0  0  0  0  0  0  0
   70.2247   83.4431   89.3400 C   0  0  0  0  0  0  0  0  0  0  0  0
   69.8007   82.1366   89.0163 C   0  0  0  0  0  0  0  0  0  0  0  0
   68.9068   81.4424   89.8380 C   0  0  0  0  0  0  0  0  0  0  0  0
   68.4326   82.0408   91.0092 C   0  0  0  0  0  0  0  0  0  0  0  0
   68.8124   83.3484   91.3682 C   0  0  0  0  0  0  0  0  0  0  0  0
   69.7145   84.0312   90.5192 C   0  0  0  0  0  0  0  0  0  0  0  0
   70.9891   85.7741   88.5336 C   0  0  0  0  0  0  0  0  0  0  0  0
   71.2031   84.2428   88.4514 C   0  0  0  0  0  0  0  0  0  0  0  0
   72.6545   83.9506   88.8909 C   0  0  0  0  0  0  0  0  0  0  0  0
   71.0191   83.8255   86.9757 C   0  0  0  0  0  0  0  0  0  0  0  0
   68.2226   83.9831   92.6468 C   0  0  0  0  0  0  0  0  0  0  0  0
   67.8288   82.8696   93.6420 C   0  0  0  0  0  0  0  0  0  0  0  0
   66.9701   84.8092   92.2785 C   0  0  0  0  0  0  0  0  0  0  0  0
   69.2103   84.9297   93.3714 C   0  0  0  0  0  0  0  0  0  0  0  0
 25 26  1  0  0  0
 26 27  1  0  0  0
 26 28  1  0  0  0
 26 19  1  0  0  0
 19 20  2  0  0  0
 20 21  1  0  0  0
 21 18  1  0  0  0
 18  1  1  0  0  0
  1  2  1  0  0  0
  2  3  2  0  0  0
  3  4  1  0  0  0
  4  5  2  0  0  0
  5 12  1  0  0  0
 12 14  1  0  0  0
 14 15  1  0  0  0
 14 16  2  0  0  0
 14 17  2  0  0  0
  5  6  1  0  0  0
  6  8  1  0  0  0
  8  9  2  0  0  0
  8 10  1  0  0  0
  6  7  2  0  0  0
 21 22  2  0  0  0
 22 23  1  0  0  0
 23 29  1  0  0  0
 29 30  1  0  0  0
 29 31  1  0  0  0
 29 32  1  0  0  0
 23 24  2  0  0  0
 24 19  1  0  0  0
  7  2  1  0  0  0
 12 13  1  0  0  0
 10 11  1  0  0  0
M  END
> <score>
0.286885

> <minimizedAffinity>
-7.77062

> <CNNscore>
0.7374485135

> <CNNaffinity>
6.6315097809

> <CNN_VS>
4.8903970718

$$$$
HIPS6296


 32 33  0  0  0  0  0  0  0  0999 V2000
   66.7915   78.9775   90.5534 O   0  0  0  0  0  0  0  0  0  0  0  0
   67.2606   78.1766   91.6078 C   0  0  0  0  0  0  0  0  0  0  0  0
   66.6129   78.1070   92.8510 C   0  0  0  0  0  0  0  0  0  0  0  0
   67.1040   77.2740   93.8552 C   0  0  0  0  0  0  0  0  0  0  0  0
   68.2618   76.5041   93.6515 C   0  0  0  0  0  0  0  0  0  0  0  0
   68.9414   76.5944   92.4097 C   0  0  0  0  0  0  0  0  0  0  0  0
   68.4210   77.4254   91.4014 C   0  0  0  0  0  0  0  0  0  0  0  0
   70.2096   75.8750   92.1433 C   0  0  0  0  0  0  0  0  0  0  0  0
   70.3532   74.6712   92.4875 O   0  0  0  0  0  0  0  0  0  0  0  0
   71.2754   76.5435   91.5467 O   0  0  0  0  0  0  0  0  0  0  0  0
   71.1804   77.4386   91.2865 H   0  0  0  0  0  0  0  0  0  0  0  0
   68.6885   75.5757   94.6638 N   0  0  0  0  0  0  0  0  0  0  0  0
   69.5043   75.7819   95.1749 H   0  0  0  0  0  0  0  0  0  0  0  0
   67.8347   74.1104   95.0272 S   0  0  0  0  0  0  0  0  0  0  0  0
   67.0058   73.5171   93.5696 C   0  0  0  0  0  0  0  0  0  0  0  0
   68.8175   73.0747   95.4950 O   0  0  0  0  0  0  0  0  0  0  0  0
   66.8335   74.3550   96.1212 O   0  0  0  0  0  0  0  0  0  0  0  0
   65.9978   80.1557   90.7033 C   0  0  0  0  0  0  0  0  0  0  0  0
   68.1063   83.2244   91.5616 C   0  0  0  0  0  0  0  0  0  0  0  0
   67.2779   82.0876   91.6758 C   0  0  0  0  0  0  0  0  0  0  0  0
   66.8495   81.3886   90.5427 C   0  0  0  0  0  0  0  0  0  0  0  0
   67.2322   81.8264   89.2713 C   0  0  0  0  0  0  0  0  0  0  0  0
   68.0710   82.9451   89.1043 C   0  0  0  0  0  0  0  0  0  0  0  0
   68.4938   83.6331   90.2656 C   0  0  0  0  0  0  0  0  0  0  0  0
   70.0871   83.7287   93.1396 C   0  0  0  0  0  0  0  0  0  0  0  0
   68.6060   84.0150   92.7911 C   0  0  0  0  0  0  0  0  0  0  0  0
   68.4756   85.5294   92.5176 C   0  0  0  0  0  0  0  0  0  0  0  0
   67.7564   83.6408   94.0256 C   0  0  0  0  0  0  0  0  0  0  0  0
   68.5048   83.3594   87.6811 C   0  0  0  0  0  0  0  0  0  0  0  0
   67.9055   84.7413   87.3400 C   0  0  0  0  0  0  0  0  0  0  0  0
   67.9949   82.3134   86.6648 C   0  0  0  0  0  0  0  0  0  0  0  0
   70.0406   83.4620   87.5153 C   0  0  0  0  0  0  0  0  0  0  0  0
 25 26  1  0  0  0
 26 27  1  0  0  0
 26 28  1  0  0  0
 26 19  1  0  0  0
 19 20  2  0  0  0
 20 21  1  0  0  0
 21 18  1  0  0  0
 18  1  1  0  0  0
  1  2  1  0  0  0
  2  3  2  0  0  0
  3  4  1  0  0  0
  4  5  2  0  0  0
  5 12  1  0  0  0
 12 14  1  0  0  0
 14 15  1  0  0  0
 14 16  2  0  0  0
 14 17  2  0  0  0
  5  6  1  0  0  0
  6  8  1  0  0  0
  8  9  2  0  0  0
  8 10  1  0  0  0
  6  7  2  0  0  0
 21 22  2  0  0  0
 22 23  1  0  0  0
 23 29  1  0  0  0
 29 30  1  0  0  0
 29 31  1  0  0  0
 29 32  1  0  0  0
 23 24  2  0  0  0
 24 19  1  0  0  0
  7  2  1  0  0  0
 12 13  1  0  0  0
 10 11  1  0  0  0
M  END
> <score>
0.286885

> <minimizedAffinity>
-7.28179

> <CNNscore>
0.5937017798

> <CNNaffinity>
6.5714817047

> <CNN_VS>
3.9015004635

$$$$
HIPS6297


 35 38  0  0  0  0  0  0  0  0999 V2000
   66.9282   76.1867   87.6298 C   0  0  0  0  0  0  0  0  0  0  0  0
   67.1871   75.9511   86.3169 C   0  0  0  0  0  0  0  0  0  0  0  0
   67.6078   76.9808   85.4731 C   0  0  0  0  0  0  0  0  0  0  0  0
   67.7722   78.2703   85.9501 C   0  0  0  0  0  0  0  0  0  0  0  0
   67.5128   78.5296   87.2836 C   0  0  0  0  0  0  0  0  0  0  0  0
   67.1033   77.4928   88.0753 C   0  0  0  0  0  0  0  0  0  0  0  0
   67.6659   79.8627   87.8422 C   0  0  0  0  0  0  0  0  0  0  0  0
   67.3446   81.0080   87.1376 C   0  0  0  0  0  0  0  0  0  0  0  0
   67.5042   82.2642   87.7041 C   0  0  0  0  0  0  0  0  0  0  0  0
   67.9851   82.4040   88.9783 C   0  0  0  0  0  0  0  0  0  0  0  0
   68.3099   81.2702   89.6933 C   0  0  0  0  0  0  0  0  0  0  0  0
   68.1491   80.0157   89.1241 C   0  0  0  0  0  0  0  0  0  0  0  0
   68.2140   83.9459   89.7613 S   0  0  0  0  0  0  0  0  0  0  0  0
   68.1012   83.7147   91.2463 O   0  0  0  0  0  0  0  0  0  0  0  0
   67.0248   84.7975   89.3836 O   0  0  0  0  0  0  0  0  0  0  0  0
   69.7001   84.6891   89.3451 N   0  0  0  0  0  0  0  0  0  0  0  0
   70.5885   83.7021   88.8239 C   0  0  0  0  0  0  0  0  0  0  0  0
   71.3359   84.1524   87.5924 C   0  0  0  0  0  0  0  0  0  0  0  0
   70.4516   84.7155   86.5278 C   0  0  0  0  0  0  0  0  0  0  0  0
   69.2151   85.3808   87.0529 C   0  0  0  0  0  0  0  0  0  0  0  0
   69.4478   85.7913   88.4731 C   0  0  0  0  0  0  0  0  0  0  0  0
   66.4948   75.2028   88.6472 C   0  0  0  0  0  0  0  0  0  0  0  0
   67.4701   74.3497   89.0082 O   0  0  0  0  0  0  0  0  0  0  0  0
   69.6055   74.8185   91.9807 C   0  0  0  0  0  0  0  0  0  0  0  0
   68.8293   75.0908   90.8466 C   0  0  0  0  0  0  0  0  0  0  0  0
   68.2176   74.1277   90.0900 C   0  0  0  0  0  0  0  0  0  0  0  0
   68.4151   72.7879   90.5251 C   0  0  0  0  0  0  0  0  0  0  0  0
   69.1528   72.4812   91.6079 C   0  0  0  0  0  0  0  0  0  0  0  0
   69.7433   73.4963   92.3296 C   0  0  0  0  0  0  0  0  0  0  0  0
   70.5035   73.1870   93.4454 O   0  0  0  0  0  0  0  0  0  0  0  0
   70.6131   72.2932   93.7045 H   0  0  0  0  0  0  0  0  0  0  0  0
   71.1161   76.5968   92.1833 O   0  0  0  0  0  0  0  0  0  0  0  0
   70.2224   75.9050   92.7320 C   0  0  0  0  0  0  0  0  0  0  0  0
   69.8523   76.1988   94.0362 O   0  0  0  0  0  0  0  0  0  0  0  0
   69.1874   75.6924   94.4598 H   0  0  0  0  0  0  0  0  0  0  0  0
 32 33  2  0  0  0
 33 34  1  0  0  0
 33 24  1  0  0  0
 24 25  2  0  0  0
 25 26  1  0  0  0
 26 23  1  0  0  0
 23 22  1  0  0  0
 22  1  1  0  0  0
  1  2  2  0  0  0
  2  3  1  0  0  0
  3  4  2  0  0  0
  4  5  1  0  0  0
  5  7  1  0  0  0
  7  8  2  0  0  0
  8  9  1  0  0  0
  9 10  2  0  0  0
 10 13  1  0  0  0
 13 14  2  0  0  0
 13 15  2  0  0  0
 13 16  1  0  0  0
 16 17  1  0  0  0
 17 18  1  0  0  0
 18 19  1  0  0  0
 19 20  1  0  0  0
 20 21  1  0  0  0
 10 11  1  0  0  0
 11 12  2  0  0  0
  5  6  2  0  0  0
 26 27  2  0  0  0
 27 28  1  0  0  0
 28 29  2  0  0  0
 29 30  1  0  0  0
 29 24  1  0  0  0
  6  1  1  0  0  0
 12  7  1  0  0  0
 21 16  1  0  0  0
 34 35  1  0  0  0
 30 31  1  0  0  0
M  END
> <score>
0.393044

> <minimizedAffinity>
-9.14042

> <CNNscore>
0.5546009541

> <CNNaffinity>
6.5708971024

> <CNN_VS>
3.6442258358

$$$$
HIPS6297


 35 38  0  0  0  0  0  0  0  0999 V2000
   68.2377   74.1766   94.9338 C   0  0  0  0  0  0  0  0  0  0  0  0
   67.0840   73.7117   95.4805 C   0  0  0  0  0  0  0  0  0  0  0  0
   65.8870   74.4154   95.3347 C   0  0  0  0  0  0  0  0  0  0  0  0
   65.8423   75.6065   94.6299 C   0  0  0  0  0  0  0  0  0  0  0  0
   67.0068   76.0958   94.0667 C   0  0  0  0  0  0  0  0  0  0  0  0
   68.1569   75.3755   94.2330 C   0  0  0  0  0  0  0  0  0  0  0  0
   67.0233   77.3410   93.3169 C   0  0  0  0  0  0  0  0  0  0  0  0
   66.2325   78.4241   93.6525 C   0  0  0  0  0  0  0  0  0  0  0  0
   66.2754   79.5969   92.9127 C   0  0  0  0  0  0  0  0  0  0  0  0
   67.1031   79.7135   91.8285 C   0  0  0  0  0  0  0  0  0  0  0  0
   67.8978   78.6409   91.4818 C   0  0  0  0  0  0  0  0  0  0  0  0
   67.8528   77.4697   92.2235 C   0  0  0  0  0  0  0  0  0  0  0  0
   67.2155   81.1522   90.8483 S   0  0  0  0  0  0  0  0  0  0  0  0
   67.8673   82.2180   91.6912 O   0  0  0  0  0  0  0  0  0  0  0  0
   65.7986   81.6201   90.6125 O   0  0  0  0  0  0  0  0  0  0  0  0
   68.0638   80.8939   89.3828 N   0  0  0  0  0  0  0  0  0  0  0  0
   67.1335   80.5561   88.3555 C   0  0  0  0  0  0  0  0  0  0  0  0
   67.3961   81.2614   87.0472 C   0  0  0  0  0  0  0  0  0  0  0  0
   67.5516   82.7409   87.1853 C   0  0  0  0  0  0  0  0  0  0  0  0
   68.1198   83.1726   88.5038 C   0  0  0  0  0  0  0  0  0  0  0  0
   68.8801   82.0319   89.1040 C   0  0  0  0  0  0  0  0  0  0  0  0
   69.5732   73.5402   94.9863 C   0  0  0  0  0  0  0  0  0  0  0  0
   69.5684   72.2636   94.5625 O   0  0  0  0  0  0  0  0  0  0  0  0
   72.3760   70.4752   92.9704 C   0  0  0  0  0  0  0  0  0  0  0  0
   71.6430   71.2789   93.8533 C   0  0  0  0  0  0  0  0  0  0  0  0
   70.2981   71.5085   93.7405 C   0  0  0  0  0  0  0  0  0  0  0  0
   69.6563   70.8699   92.6434 C   0  0  0  0  0  0  0  0  0  0  0  0
   70.3215   70.0902   91.7713 C   0  0  0  0  0  0  0  0  0  0  0  0
   71.6759   69.8967   91.9389 C   0  0  0  0  0  0  0  0  0  0  0  0
   72.3660   69.0949   91.0447 O   0  0  0  0  0  0  0  0  0  0  0  0
   71.9120   68.6888   90.3327 H   0  0  0  0  0  0  0  0  0  0  0  0
   74.5258   71.2728   93.4470 O   0  0  0  0  0  0  0  0  0  0  0  0
   73.8081   70.2816   93.1631 C   0  0  0  0  0  0  0  0  0  0  0  0
   74.4033   69.0345   93.0424 O   0  0  0  0  0  0  0  0  0  0  0  0
   73.8821   68.2851   92.8312 H   0  0  0  0  0  0  0  0  0  0  0  0
 32 33  2  0  0  0
 33 34  1  0  0  0
 33 24  1  0  0  0
 24 25  2  0  0  0
 25 26  1  0  0  0
 26 23  1  0  0  0
 23 22  1  0  0  0
 22  1  1  0  0  0
  1  2  2  0  0  0
  2  3  1  0  0  0
  3  4  2  0  0  0
  4  5  1  0  0  0
  5  7  1  0  0  0
  7  8  2  0  0  0
  8  9  1  0  0  0
  9 10  2  0  0  0
 10 13  1  0  0  0
 13 14  2  0  0  0
 13 15  2  0  0  0
 13 16  1  0  0  0
 16 17  1  0  0  0
 17 18  1  0  0  0
 18 19  1  0  0  0
 19 20  1  0  0  0
 20 21  1  0  0  0
 10 11  1  0  0  0
 11 12  2  0  0  0
  5  6  2  0  0  0
 26 27  2  0  0  0
 27 28  1  0  0  0
 28 29  2  0  0  0
 29 30  1  0  0  0
 29 24  1  0  0  0
  6  1  1  0  0  0
 12  7  1  0  0  0
 21 16  1  0  0  0
 34 35  1  0  0  0
 30 31  1  0  0  0
M  END
> <score>
0.393044

> <minimizedAffinity>
-8.69245

> <CNNscore>
0.5202219486

> <CNNaffinity>
5.9891443253

> <CNN_VS>
3.1156842709

$$$$
HIPS6297


 35 38  0  0  0  0  0  0  0  0999 V2000
   68.7770   77.2898   90.7004 C   0  0  0  0  0  0  0  0  0  0  0  0
   70.0400   76.8245   90.8862 C   0  0  0  0  0  0  0  0  0  0  0  0
   71.1435   77.6669   90.7378 C   0  0  0  0  0  0  0  0  0  0  0  0
   70.9817   78.9992   90.3967 C   0  0  0  0  0  0  0  0  0  0  0  0
   69.7037   79.4908   90.2029 C   0  0  0  0  0  0  0  0  0  0  0  0
   68.6510   78.6322   90.3584 C   0  0  0  0  0  0  0  0  0  0  0  0
   69.4703   80.8794   89.8423 C   0  0  0  0  0  0  0  0  0  0  0  0
   70.1860   81.9243   90.3966 C   0  0  0  0  0  0  0  0  0  0  0  0
   69.9349   83.2378   90.0276 C   0  0  0  0  0  0  0  0  0  0  0  0
   68.9700   83.5354   89.1031 C   0  0  0  0  0  0  0  0  0  0  0  0
   68.2479   82.5031   88.5417 C   0  0  0  0  0  0  0  0  0  0  0  0
   68.5013   81.1909   88.9126 C   0  0  0  0  0  0  0  0  0  0  0  0
   68.5945   85.1585   88.5860 S   0  0  0  0  0  0  0  0  0  0  0  0
   68.2684   85.9575   89.8215 O   0  0  0  0  0  0  0  0  0  0  0  0
   67.3079   85.0693   87.7993 O   0  0  0  0  0  0  0  0  0  0  0  0
   69.8582   85.8770   87.6799 N   0  0  0  0  0  0  0  0  0  0  0  0
   70.9729   86.1163   88.5374 C   0  0  0  0  0  0  0  0  0  0  0  0
   72.2988   85.7364   87.9244 C   0  0  0  0  0  0  0  0  0  0  0  0
   72.3235   84.3527   87.3612 C   0  0  0  0  0  0  0  0  0  0  0  0
   70.9947   83.8779   86.8551 C   0  0  0  0  0  0  0  0  0  0  0  0
   70.1405   85.0655   86.5394 C   0  0  0  0  0  0  0  0  0  0  0  0
   67.5140   76.5300   90.8373 C   0  0  0  0  0  0  0  0  0  0  0  0
   67.0521   76.4938   92.1002 O   0  0  0  0  0  0  0  0  0  0  0  0
   68.2525   74.0512   94.5918 C   0  0  0  0  0  0  0  0  0  0  0  0
   68.2160   74.9158   93.4900 C   0  0  0  0  0  0  0  0  0  0  0  0
   67.1218   75.6596   93.1382 C   0  0  0  0  0  0  0  0  0  0  0  0
   65.9812   75.5068   93.9743 C   0  0  0  0  0  0  0  0  0  0  0  0
   65.9723   74.6876   95.0418 C   0  0  0  0  0  0  0  0  0  0  0  0
   67.1063   73.9651   95.3451 C   0  0  0  0  0  0  0  0  0  0  0  0
   67.1034   73.1204   96.4429 O   0  0  0  0  0  0  0  0  0  0  0  0
   66.3346   73.0436   96.9730 H   0  0  0  0  0  0  0  0  0  0  0  0
   69.5814   72.7684   96.0319 O   0  0  0  0  0  0  0  0  0  0  0  0
   69.4608   73.2948   94.8976 C   0  0  0  0  0  0  0  0  0  0  0  0
   70.4829   73.1382   93.9730 O   0  0  0  0  0  0  0  0  0  0  0  0
   70.4085   73.5245   93.1226 H   0  0  0  0  0  0  0  0  0  0  0  0
 32 33  2  0  0  0
 33 34  1  0  0  0
 33 24  1  0  0  0
 24 25  2  0  0  0
 25 26  1  0  0  0
 26 23  1  0  0  0
 23 22  1  0  0  0
 22  1  1  0  0  0
  1  2  2  0  0  0
  2  3  1  0  0  0
  3  4  2  0  0  0
  4  5  1  0  0  0
  5  7  1  0  0  0
  7  8  2  0  0  0
  8  9  1  0  0  0
  9 10  2  0  0  0
 10 13  1  0  0  0
 13 14  2  0  0  0
 13 15  2  0  0  0
 13 16  1  0  0  0
 16 17  1  0  0  0
 17 18  1  0  0  0
 18 19  1  0  0  0
 19 20  1  0  0  0
 20 21  1  0  0  0
 10 11  1  0  0  0
 11 12  2  0  0  0
  5  6  2  0  0  0
 26 27  2  0  0  0
 27 28  1  0  0  0
 28 29  2  0  0  0
 29 30  1  0  0  0
 29 24  1  0  0  0
  6  1  1  0  0  0
 12  7  1  0  0  0
 21 16  1  0  0  0
 34 35  1  0  0  0
 30 31  1  0  0  0
M  END
> <score>
0.393044

> <minimizedAffinity>
-9.67777

> <CNNscore>
0.4856628776

> <CNNaffinity>
6.2670431137

> <CNN_VS>
3.0436701775

$$$$
HIPS6312


 38 41  0  0  0  0  0  0  0  0999 V2000
   67.8795   73.7347   90.5472 C   0  0  0  0  0  0  0  0  0  0  0  0
   68.6805   72.5838   90.5050 C   0  0  0  0  0  0  0  0  0  0  0  0
   68.9452   71.8529   91.6735 C   0  0  0  0  0  0  0  0  0  0  0  0
   68.4116   72.2940   92.8957 C   0  0  0  0  0  0  0  0  0  0  0  0
   67.6309   73.4589   92.9508 C   0  0  0  0  0  0  0  0  0  0  0  0
   67.3798   74.1828   91.7785 C   0  0  0  0  0  0  0  0  0  0  0  0
   69.8713   70.7008   91.6218 C   0  0  0  0  0  0  0  0  0  0  0  0
   70.0318   69.8635   90.5345 C   0  0  0  0  0  0  0  0  0  0  0  0
   71.0509   68.9966   90.8674 C   0  0  0  0  0  0  0  0  0  0  0  0
   71.4848   69.2643   92.0775 O   0  0  0  0  0  0  0  0  0  0  0  0
   70.7983   70.2721   92.5666 C   0  0  0  0  0  0  0  0  0  0  0  0
   71.0042   70.7775   93.9308 C   0  0  0  0  0  0  0  0  0  0  0  0
   70.5891   70.1302   94.9269 O   0  0  0  0  0  0  0  0  0  0  0  0
   71.7080   71.9617   94.1226 O   0  0  0  0  0  0  0  0  0  0  0  0
   72.0189   72.4469   93.3837 H   0  0  0  0  0  0  0  0  0  0  0  0
   67.1451   73.9682   94.2443 C   0  0  0  0  0  0  0  0  0  0  0  0
   65.8364   73.9287   94.6783 C   0  0  0  0  0  0  0  0  0  0  0  0
   65.8221   74.5927   95.8882 C   0  0  0  0  0  0  0  0  0  0  0  0
   67.0349   75.0012   96.1874 O   0  0  0  0  0  0  0  0  0  0  0  0
   67.8561   74.6373   95.2285 C   0  0  0  0  0  0  0  0  0  0  0  0
   69.3036   74.8834   95.2725 C   0  0  0  0  0  0  0  0  0  0  0  0
   70.0983   73.9120   95.3794 O   0  0  0  0  0  0  0  0  0  0  0  0
   69.8049   76.1748   95.1490 O   0  0  0  0  0  0  0  0  0  0  0  0
   69.2169   76.8999   95.0693 H   0  0  0  0  0  0  0  0  0  0  0  0
   67.5878   74.4958   89.2808 C   0  0  0  0  0  0  0  0  0  0  0  0
   67.3005   75.8649   89.5688 O   0  0  0  0  0  0  0  0  0  0  0  0
   70.4231   77.5039   90.7139 C   0  0  0  0  0  0  0  0  0  0  0  0
   69.4191   76.5471   90.4807 C   0  0  0  0  0  0  0  0  0  0  0  0
   68.2607   76.8709   89.7670 C   0  0  0  0  0  0  0  0  0  0  0  0
   68.0975   78.1798   89.2834 C   0  0  0  0  0  0  0  0  0  0  0  0
   69.0944   79.1337   89.4883 C   0  0  0  0  0  0  0  0  0  0  0  0
   70.2666   78.8068   90.1779 C   0  0  0  0  0  0  0  0  0  0  0  0
   71.2559   79.7877   90.2774 O   0  0  0  0  0  0  0  0  0  0  0  0
   71.1122   80.6371   89.9090 H   0  0  0  0  0  0  0  0  0  0  0  0
   72.7379   77.0274   91.0300 O   0  0  0  0  0  0  0  0  0  0  0  0
   71.5878   77.1114   91.5378 C   0  0  0  0  0  0  0  0  0  0  0  0
   71.4274   76.8910   92.9032 O   0  0  0  0  0  0  0  0  0  0  0  0
   70.5764   76.9511   93.2907 H   0  0  0  0  0  0  0  0  0  0  0  0
 35 36  2  0  0  0
 36 37  1  0  0  0
 36 27  1  0  0  0
 27 28  2  0  0  0
 28 29  1  0  0  0
 29 26  1  0  0  0
 26 25  1  0  0  0
 25  1  1  0  0  0
  1  2  2  0  0  0
  2  3  1  0  0  0
  3  7  1  0  0  0
  7  8  1  0  0  0
  8  9  2  0  0  0
  9 10  1  0  0  0
 10 11  1  0  0  0
 11 12  1  0  0  0
 12 13  2  0  0  0
 12 14  1  0  0  0
  3  4  2  0  0  0
  4  5  1  0  0  0
  5 16  1  0  0  0
 16 17  1  0  0  0
 17 18  2  0  0  0
 18 19  1  0  0  0
 19 20  1  0  0  0
 20 21  1  0  0  0
 21 22  2  0  0  0
 21 23  1  0  0  0
  5  6  2  0  0  0
 29 30  2  0  0  0
 30 31  1  0  0  0
 31 32  2  0  0  0
 32 33  1  0  0  0
 32 27  1  0  0  0
  6  1  1  0  0  0
 11  7  2  0  0  0
 20 16  2  0  0  0
 37 38  1  0  0  0
 14 15  1  0  0  0
 23 24  1  0  0  0
 33 34  1  0  0  0
M  END
> <score>
0.217117

> <minimizedAffinity>
-9.12983

> <CNNscore>
0.7762466073

> <CNNaffinity>
6.4190778732

> <CNN_VS>
4.9827876091

$$$$
HIPS6312


 38 41  0  0  0  0  0  0  0  0999 V2000
   66.9845   77.4341   91.9608 C   0  0  0  0  0  0  0  0  0  0  0  0
   66.7665   76.4233   91.0127 C   0  0  0  0  0  0  0  0  0  0  0  0
   67.5895   76.3138   89.8812 C   0  0  0  0  0  0  0  0  0  0  0  0
   68.6299   77.2391   89.6960 C   0  0  0  0  0  0  0  0  0  0  0  0
   68.8385   78.2690   90.6262 C   0  0  0  0  0  0  0  0  0  0  0  0
   68.0058   78.3712   91.7476 C   0  0  0  0  0  0  0  0  0  0  0  0
   67.2805   75.3027   88.8468 C   0  0  0  0  0  0  0  0  0  0  0  0
   67.1705   73.9447   89.0764 C   0  0  0  0  0  0  0  0  0  0  0  0
   66.7777   73.3856   87.8789 C   0  0  0  0  0  0  0  0  0  0  0  0
   66.6642   74.3231   86.9666 O   0  0  0  0  0  0  0  0  0  0  0  0
   66.9652   75.4837   87.5039 C   0  0  0  0  0  0  0  0  0  0  0  0
   66.9906   76.7296   86.7253 C   0  0  0  0  0  0  0  0  0  0  0  0
   66.2727   77.7093   87.0541 O   0  0  0  0  0  0  0  0  0  0  0  0
   67.8544   76.8409   85.6408 O   0  0  0  0  0  0  0  0  0  0  0  0
   68.3908   76.1139   85.3926 H   0  0  0  0  0  0  0  0  0  0  0  0
   69.8728   79.2894   90.3866 C   0  0  0  0  0  0  0  0  0  0  0  0
   69.6379   80.6333   90.1831 C   0  0  0  0  0  0  0  0  0  0  0  0
   70.8695   81.1921   89.9081 C   0  0  0  0  0  0  0  0  0  0  0  0
   71.8000   80.2650   89.9514 O   0  0  0  0  0  0  0  0  0  0  0  0
   71.2405   79.1127   90.2439 C   0  0  0  0  0  0  0  0  0  0  0  0
   72.0042   77.8718   90.4298 C   0  0  0  0  0  0  0  0  0  0  0  0
   72.9124   77.5700   89.6108 O   0  0  0  0  0  0  0  0  0  0  0  0
   71.7654   77.0528   91.5281 O   0  0  0  0  0  0  0  0  0  0  0  0
   71.0907   77.2740   92.1396 H   0  0  0  0  0  0  0  0  0  0  0  0
   66.1054   77.5249   93.1801 C   0  0  0  0  0  0  0  0  0  0  0  0
   65.7191   76.2231   93.6228 O   0  0  0  0  0  0  0  0  0  0  0  0
   68.6821   74.1040   94.3146 C   0  0  0  0  0  0  0  0  0  0  0  0
   67.7928   75.0072   93.7051 C   0  0  0  0  0  0  0  0  0  0  0  0
   66.5565   75.3098   94.2847 C   0  0  0  0  0  0  0  0  0  0  0  0
   66.1969   74.6912   95.4938 C   0  0  0  0  0  0  0  0  0  0  0  0
   67.0776   73.8098   96.1208 C   0  0  0  0  0  0  0  0  0  0  0  0
   68.3264   73.5251   95.5585 C   0  0  0  0  0  0  0  0  0  0  0  0
   69.1888   72.6962   96.2795 O   0  0  0  0  0  0  0  0  0  0  0  0
   68.9143   72.3336   97.0987 H   0  0  0  0  0  0  0  0  0  0  0  0
   70.5985   72.7441   93.9099 O   0  0  0  0  0  0  0  0  0  0  0  0
   69.9409   73.7761   93.6094 C   0  0  0  0  0  0  0  0  0  0  0  0
   70.3763   74.5804   92.5594 O   0  0  0  0  0  0  0  0  0  0  0  0
   69.8945   75.3500   92.3279 H   0  0  0  0  0  0  0  0  0  0  0  0
 35 36  2  0  0  0
 36 37  1  0  0  0
 36 27  1  0  0  0
 27 28  2  0  0  0
 28 29  1  0  0  0
 29 26  1  0  0  0
 26 25  1  0  0  0
 25  1  1  0  0  0
  1  2  2  0  0  0
  2  3  1  0  0  0
  3  7  1  0  0  0
  7  8  1  0  0  0
  8  9  2  0  0  0
  9 10  1  0  0  0
 10 11  1  0  0  0
 11 12  1  0  0  0
 12 13  2  0  0  0
 12 14  1  0  0  0
  3  4  2  0  0  0
  4  5  1  0  0  0
  5 16  1  0  0  0
 16 17  1  0  0  0
 17 18  2  0  0  0
 18 19  1  0  0  0
 19 20  1  0  0  0
 20 21  1  0  0  0
 21 22  2  0  0  0
 21 23  1  0  0  0
  5  6  2  0  0  0
 29 30  2  0  0  0
 30 31  1  0  0  0
 31 32  2  0  0  0
 32 33  1  0  0  0
 32 27  1  0  0  0
  6  1  1  0  0  0
 11  7  2  0  0  0
 20 16  2  0  0  0
 37 38  1  0  0  0
 14 15  1  0  0  0
 23 24  1  0  0  0
 33 34  1  0  0  0
M  END
> <score>
0.217117

> <minimizedAffinity>
-8.38538

> <CNNscore>
0.6519858837

> <CNNaffinity>
6.2081222534

> <CNN_VS>
4.0476078987

$$$$
HIPS6312


 38 41  0  0  0  0  0  0  0  0999 V2000
   66.3252   79.2610   92.7888 C   0  0  0  0  0  0  0  0  0  0  0  0
   66.7774   80.5696   93.0149 C   0  0  0  0  0  0  0  0  0  0  0  0
   67.3685   81.3113   91.9804 C   0  0  0  0  0  0  0  0  0  0  0  0
   67.5190   80.7244   90.7132 C   0  0  0  0  0  0  0  0  0  0  0  0
   67.0930   79.4067   90.4856 C   0  0  0  0  0  0  0  0  0  0  0  0
   66.5108   78.6751   91.5283 C   0  0  0  0  0  0  0  0  0  0  0  0
   67.9261   82.6510   92.2670 C   0  0  0  0  0  0  0  0  0  0  0  0
   68.1432   83.1631   93.5317 C   0  0  0  0  0  0  0  0  0  0  0  0
   68.7596   84.3828   93.3491 C   0  0  0  0  0  0  0  0  0  0  0  0
   68.9040   84.6202   92.0658 O   0  0  0  0  0  0  0  0  0  0  0  0
   68.4098   83.6115   91.3843 C   0  0  0  0  0  0  0  0  0  0  0  0
   68.3661   83.5988   89.9156 C   0  0  0  0  0  0  0  0  0  0  0  0
   67.3221   83.9360   89.2994 O   0  0  0  0  0  0  0  0  0  0  0  0
   69.5084   83.2551   89.2003 O   0  0  0  0  0  0  0  0  0  0  0  0
   70.2879   83.0034   89.6551 H   0  0  0  0  0  0  0  0  0  0  0  0
   67.3302   78.7629   89.1826 C   0  0  0  0  0  0  0  0  0  0  0  0
   67.7268   77.4548   88.9978 C   0  0  0  0  0  0  0  0  0  0  0  0
   67.9173   77.3089   87.6386 C   0  0  0  0  0  0  0  0  0  0  0  0
   67.6457   78.4395   87.0260 O   0  0  0  0  0  0  0  0  0  0  0  0
   67.2822   79.3318   87.9193 C   0  0  0  0  0  0  0  0  0  0  0  0
   66.8514   80.6917   87.5687 C   0  0  0  0  0  0  0  0  0  0  0  0
   65.6242   80.9752   87.5635 O   0  0  0  0  0  0  0  0  0  0  0  0
   67.7891   81.6801   87.2896 O   0  0  0  0  0  0  0  0  0  0  0  0
   68.7030   81.4731   87.2925 H   0  0  0  0  0  0  0  0  0  0  0  0
   65.6741   78.4862   93.9040 C   0  0  0  0  0  0  0  0  0  0  0  0
   65.5625   77.1042   93.5611 O   0  0  0  0  0  0  0  0  0  0  0  0
   68.4305   74.8113   94.0761 C   0  0  0  0  0  0  0  0  0  0  0  0
   67.6032   75.8310   93.5725 C   0  0  0  0  0  0  0  0  0  0  0  0
   66.3342   76.0672   94.1110 C   0  0  0  0  0  0  0  0  0  0  0  0
   65.8783   75.2627   95.1689 C   0  0  0  0  0  0  0  0  0  0  0  0
   66.6963   74.2617   95.6928 C   0  0  0  0  0  0  0  0  0  0  0  0
   67.9767   74.0399   95.1753 C   0  0  0  0  0  0  0  0  0  0  0  0
   68.7707   73.0751   95.7994 O   0  0  0  0  0  0  0  0  0  0  0  0
   68.4320   72.5867   96.5238 H   0  0  0  0  0  0  0  0  0  0  0  0
   70.2506   73.4233   93.4080 O   0  0  0  0  0  0  0  0  0  0  0  0
   69.7304   74.5709   93.4113 C   0  0  0  0  0  0  0  0  0  0  0  0
   70.3605   75.6073   92.7273 O   0  0  0  0  0  0  0  0  0  0  0  0
   69.9820   76.4644   92.7236 H   0  0  0  0  0  0  0  0  0  0  0  0
 35 36  2  0  0  0
 36 37  1  0  0  0
 36 27  1  0  0  0
 27 28  2  0  0  0
 28 29  1  0  0  0
 29 26  1  0  0  0
 26 25  1  0  0  0
 25  1  1  0  0  0
  1  2  2  0  0  0
  2  3  1  0  0  0
  3  7  1  0  0  0
  7  8  1  0  0  0
  8  9  2  0  0  0
  9 10  1  0  0  0
 10 11  1  0  0  0
 11 12  1  0  0  0
 12 13  2  0  0  0
 12 14  1  0  0  0
  3  4  2  0  0  0
  4  5  1  0  0  0
  5 16  1  0  0  0
 16 17  1  0  0  0
 17 18  2  0  0  0
 18 19  1  0  0  0
 19 20  1  0  0  0
 20 21  1  0  0  0
 21 22  2  0  0  0
 21 23  1  0  0  0
  5  6  2  0  0  0
 29 30  2  0  0  0
 30 31  1  0  0  0
 31 32  2  0  0  0
 32 33  1  0  0  0
 32 27  1  0  0  0
  6  1  1  0  0  0
 11  7  2  0  0  0
 20 16  2  0  0  0
 37 38  1  0  0  0
 14 15  1  0  0  0
 23 24  1  0  0  0
 33 34  1  0  0  0
M  END
> <score>
0.217117

> <minimizedAffinity>
-7.67173

> <CNNscore>
0.3980673850

> <CNNaffinity>
6.0419092178

> <CNN_VS>
2.4050869942

$$$$
HIPS6336


 30 32  0  0  0  0  0  0  0  0999 V2000
   66.8875   81.7793   90.9666 C   0  0  0  0  0  0  0  0  0  0  0  0
   65.6177   81.6199   90.3831 C   0  0  0  0  0  0  0  0  0  0  0  0
   64.7196   80.6773   90.8886 C   0  0  0  0  0  0  0  0  0  0  0  0
   65.0774   79.8791   91.9762 C   0  0  0  0  0  0  0  0  0  0  0  0
   66.3430   80.0133   92.5652 C   0  0  0  0  0  0  0  0  0  0  0  0
   67.2393   80.9721   92.0646 C   0  0  0  0  0  0  0  0  0  0  0  0
   69.6713   84.6565   89.4418 C   0  0  0  0  0  0  0  0  0  0  0  0
   68.3117   84.7575   89.0972 C   0  0  0  0  0  0  0  0  0  0  0  0
   67.4046   83.8198   89.5930 C   0  0  0  0  0  0  0  0  0  0  0  0
   67.8426   82.7829   90.4315 C   0  0  0  0  0  0  0  0  0  0  0  0
   69.2081   82.7215   90.7530 C   0  0  0  0  0  0  0  0  0  0  0  0
   70.0724   83.6469   90.2592 N   0  0  0  0  0  0  0  0  0  0  0  0
   70.6408   85.5635   88.9840 O   0  0  0  0  0  0  0  0  0  0  0  0
   72.5508   86.4722   87.7855 C   0  0  0  0  0  0  0  0  0  0  0  0
   71.8814   85.2202   88.3619 C   0  0  0  0  0  0  0  0  0  0  0  0
   71.6073   84.2094   87.2497 C   0  0  0  0  0  0  0  0  0  0  0  0
   66.7225   79.1473   93.7376 C   0  0  0  0  0  0  0  0  0  0  0  0
   65.9479   77.9476   93.7526 O   0  0  0  0  0  0  0  0  0  0  0  0
   66.4691   76.6435   93.7261 C   0  0  0  0  0  0  0  0  0  0  0  0
   65.7615   75.5341   94.2182 C   0  0  0  0  0  0  0  0  0  0  0  0
   66.3262   74.2597   94.1624 C   0  0  0  0  0  0  0  0  0  0  0  0
   67.5973   74.0635   93.6128 C   0  0  0  0  0  0  0  0  0  0  0  0
   68.0683   72.7520   93.5188 O   0  0  0  0  0  0  0  0  0  0  0  0
   68.3373   75.1784   93.1450 C   0  0  0  0  0  0  0  0  0  0  0  0
   67.7466   76.4540   93.1891 C   0  0  0  0  0  0  0  0  0  0  0  0
   67.5471   72.0429   93.8406 H   0  0  0  0  0  0  0  0  0  0  0  0
   69.7232   75.0650   92.6394 C   0  0  0  0  0  0  0  0  0  0  0  0
   70.0846   74.0621   91.9676 O   0  0  0  0  0  0  0  0  0  0  0  0
   70.6593   76.0450   92.9591 O   0  0  0  0  0  0  0  0  0  0  0  0
   70.4009   76.7947   93.4582 H   0  0  0  0  0  0  0  0  0  0  0  0
 14 15  1  0  0  0
 15 16  1  0  0  0
 15 13  1  0  0  0
 13  7  1  0  0  0
  7  8  2  0  0  0
  8  9  1  0  0  0
  9 10  2  0  0  0
 10  1  1  0  0  0
  1  2  2  0  0  0
  2  3  1  0  0  0
  3  4  2  0  0  0
  4  5  1  0  0  0
  5 17  1  0  0  0
 17 18  1  0  0  0
 18 19  1  0  0  0
 19 20  2  0  0  0
 20 21  1  0  0  0
 21 22  2  0  0  0
 22 23  1  0  0  0
 22 24  1  0  0  0
 24 27  1  0  0  0
 27 28  2  0  0  0
 27 29  1  0  0  0
 24 25  2  0  0  0
  5  6  2  0  0  0
 10 11  1  0  0  0
 11 12  2  0  0  0
 12  7  2  0  0  0
  6  1  1  0  0  0
 25 19  1  0  0  0
 23 26  1  0  0  0
 29 30  1  0  0  0
M  END
> <score>
-0.258887

> <minimizedAffinity>
-7.00839

> <CNNscore>
0.7056165338

> <CNNaffinity>
5.8622589111

> <CNN_VS>
4.1365070343

$$$$
HIPS6336


 30 32  0  0  0  0  0  0  0  0999 V2000
   70.2761   79.1427   90.4175 C   0  0  0  0  0  0  0  0  0  0  0  0
   71.4515   78.4414   90.7415 C   0  0  0  0  0  0  0  0  0  0  0  0
   71.3965   77.0896   91.0883 C   0  0  0  0  0  0  0  0  0  0  0  0
   70.1709   76.4226   91.1221 C   0  0  0  0  0  0  0  0  0  0  0  0
   68.9856   77.1061   90.8145 C   0  0  0  0  0  0  0  0  0  0  0  0
   69.0447   78.4618   90.4518 C   0  0  0  0  0  0  0  0  0  0  0  0
   70.4034   83.2872   89.3406 C   0  0  0  0  0  0  0  0  0  0  0  0
   71.5906   82.6304   89.7101 C   0  0  0  0  0  0  0  0  0  0  0  0
   71.5495   81.2804   90.0619 C   0  0  0  0  0  0  0  0  0  0  0  0
   70.3335   80.5796   90.0464 C   0  0  0  0  0  0  0  0  0  0  0  0
   69.1727   81.2732   89.6679 C   0  0  0  0  0  0  0  0  0  0  0  0
   69.2378   82.5875   89.3281 N   0  0  0  0  0  0  0  0  0  0  0  0
   70.3673   84.6419   88.9721 O   0  0  0  0  0  0  0  0  0  0  0  0
   72.0626   86.0079   87.8904 C   0  0  0  0  0  0  0  0  0  0  0  0
   70.7857   85.1793   87.7151 C   0  0  0  0  0  0  0  0  0  0  0  0
   69.6626   86.0527   87.1588 C   0  0  0  0  0  0  0  0  0  0  0  0
   67.6668   76.3799   90.8548 C   0  0  0  0  0  0  0  0  0  0  0  0
   66.9810   76.6430   92.0796 O   0  0  0  0  0  0  0  0  0  0  0  0
   66.9353   75.7800   93.1869 C   0  0  0  0  0  0  0  0  0  0  0  0
   65.8151   75.6863   94.0294 C   0  0  0  0  0  0  0  0  0  0  0  0
   65.8228   74.8081   95.1132 C   0  0  0  0  0  0  0  0  0  0  0  0
   66.9373   74.0047   95.3756 C   0  0  0  0  0  0  0  0  0  0  0  0
   66.8466   73.0934   96.4302 O   0  0  0  0  0  0  0  0  0  0  0  0
   68.0880   74.1144   94.5550 C   0  0  0  0  0  0  0  0  0  0  0  0
   68.0576   74.9892   93.4541 C   0  0  0  0  0  0  0  0  0  0  0  0
   66.0672   73.0531   96.9488 H   0  0  0  0  0  0  0  0  0  0  0  0
   69.3381   73.3703   94.8246 C   0  0  0  0  0  0  0  0  0  0  0  0
   69.4869   72.7266   95.8976 O   0  0  0  0  0  0  0  0  0  0  0  0
   70.3893   73.4292   93.9134 O   0  0  0  0  0  0  0  0  0  0  0  0
   70.2890   73.9052   93.1125 H   0  0  0  0  0  0  0  0  0  0  0  0
 14 15  1  0  0  0
 15 16  1  0  0  0
 15 13  1  0  0  0
 13  7  1  0  0  0
  7  8  2  0  0  0
  8  9  1  0  0  0
  9 10  2  0  0  0
 10  1  1  0  0  0
  1  2  2  0  0  0
  2  3  1  0  0  0
  3  4  2  0  0  0
  4  5  1  0  0  0
  5 17  1  0  0  0
 17 18  1  0  0  0
 18 19  1  0  0  0
 19 20  2  0  0  0
 20 21  1  0  0  0
 21 22  2  0  0  0
 22 23  1  0  0  0
 22 24  1  0  0  0
 24 27  1  0  0  0
 27 28  2  0  0  0
 27 29  1  0  0  0
 24 25  2  0  0  0
  5  6  2  0  0  0
 10 11  1  0  0  0
 11 12  2  0  0  0
 12  7  2  0  0  0
  6  1  1  0  0  0
 25 19  1  0  0  0
 23 26  1  0  0  0
 29 30  1  0  0  0
M  END
> <score>
-0.258887

> <minimizedAffinity>
-8.79317

> <CNNscore>
0.6222597957

> <CNNaffinity>
5.7612285614

> <CNN_VS>
3.5849809647

$$$$
HIPS6336


 30 32  0  0  0  0  0  0  0  0999 V2000
   68.5556   82.6132   88.1687 C   0  0  0  0  0  0  0  0  0  0  0  0
   67.9039   82.1069   87.0298 C   0  0  0  0  0  0  0  0  0  0  0  0
   66.9012   81.1431   87.1579 C   0  0  0  0  0  0  0  0  0  0  0  0
   66.5404   80.6685   88.4200 C   0  0  0  0  0  0  0  0  0  0  0  0
   67.1861   81.1510   89.5676 C   0  0  0  0  0  0  0  0  0  0  0  0
   68.1840   82.1310   89.4377 C   0  0  0  0  0  0  0  0  0  0  0  0
   71.6016   85.5985   87.7644 C   0  0  0  0  0  0  0  0  0  0  0  0
   71.9258   84.3486   88.3212 C   0  0  0  0  0  0  0  0  0  0  0  0
   70.9337   83.3760   88.4539 C   0  0  0  0  0  0  0  0  0  0  0  0
   69.6205   83.6398   88.0340 C   0  0  0  0  0  0  0  0  0  0  0  0
   69.3413   84.8997   87.4805 C   0  0  0  0  0  0  0  0  0  0  0  0
   70.3244   85.8303   87.3601 N   0  0  0  0  0  0  0  0  0  0  0  0
   72.5463   86.6240   87.5970 O   0  0  0  0  0  0  0  0  0  0  0  0
   71.7871   88.5405   88.8858 C   0  0  0  0  0  0  0  0  0  0  0  0
   72.9381   87.5726   88.5924 C   0  0  0  0  0  0  0  0  0  0  0  0
   74.1562   88.3409   88.0828 C   0  0  0  0  0  0  0  0  0  0  0  0
   66.7923   80.6329   90.9258 C   0  0  0  0  0  0  0  0  0  0  0  0
   66.8851   79.2085   90.9709 O   0  0  0  0  0  0  0  0  0  0  0  0
   68.0731   78.4762   91.1306 C   0  0  0  0  0  0  0  0  0  0  0  0
   69.2035   78.6796   90.3218 C   0  0  0  0  0  0  0  0  0  0  0  0
   70.3594   77.9262   90.5281 C   0  0  0  0  0  0  0  0  0  0  0  0
   70.4156   76.9646   91.5422 C   0  0  0  0  0  0  0  0  0  0  0  0
   71.6290   76.3023   91.7418 O   0  0  0  0  0  0  0  0  0  0  0  0
   69.2709   76.7239   92.3427 C   0  0  0  0  0  0  0  0  0  0  0  0
   68.1198   77.5054   92.1365 C   0  0  0  0  0  0  0  0  0  0  0  0
   72.3621   76.4909   91.1897 H   0  0  0  0  0  0  0  0  0  0  0  0
   69.2207   75.6599   93.3697 C   0  0  0  0  0  0  0  0  0  0  0  0
   68.3314   75.6665   94.2622 O   0  0  0  0  0  0  0  0  0  0  0  0
   70.2016   74.6719   93.3917 O   0  0  0  0  0  0  0  0  0  0  0  0
   70.8675   74.6580   92.7326 H   0  0  0  0  0  0  0  0  0  0  0  0
 14 15  1  0  0  0
 15 16  1  0  0  0
 15 13  1  0  0  0
 13  7  1  0  0  0
  7  8  2  0  0  0
  8  9  1  0  0  0
  9 10  2  0  0  0
 10  1  1  0  0  0
  1  2  2  0  0  0
  2  3  1  0  0  0
  3  4  2  0  0  0
  4  5  1  0  0  0
  5 17  1  0  0  0
 17 18  1  0  0  0
 18 19  1  0  0  0
 19 20  2  0  0  0
 20 21  1  0  0  0
 21 22  2  0  0  0
 22 23  1  0  0  0
 22 24  1  0  0  0
 24 27  1  0  0  0
 27 28  2  0  0  0
 27 29  1  0  0  0
 24 25  2  0  0  0
  5  6  2  0  0  0
 10 11  1  0  0  0
 11 12  2  0  0  0
 12  7  2  0  0  0
  6  1  1  0  0  0
 25 19  1  0  0  0
 23 26  1  0  0  0
 29 30  1  0  0  0
M  END
> <score>
-0.258887

> <minimizedAffinity>
-7.62399

> <CNNscore>
0.6121814251

> <CNNaffinity>
5.9447832108

> <CNN_VS>
3.6392858028

$$$$
HIPS6385


 51 54  0  0  0  0  0  0  0  0999 V2000
   66.9683   79.2048   89.9027 C   0  0  0  0  0  0  0  0  0  0  0  0
   66.7113   78.8805   91.2006 C   0  0  0  0  0  0  0  0  0  0  0  0
   66.6857   79.8957   92.1784 C   0  0  0  0  0  0  0  0  0  0  0  0
   66.9260   81.1971   91.7743 C   0  0  0  0  0  0  0  0  0  0  0  0
   67.1862   81.5360   90.4696 C   0  0  0  0  0  0  0  0  0  0  0  0
   67.1990   80.5065   89.5582 C   0  0  0  0  0  0  0  0  0  0  0  0
   67.4347   82.9492   90.0851 C   0  0  0  0  0  0  0  0  0  0  0  0
   66.8501   83.9337   90.6652 C   0  0  0  0  0  0  0  0  0  0  0  0
   67.1444   85.3026   90.2328 C   0  0  0  0  0  0  0  0  0  0  0  0
   68.3724   84.9594   88.8845 S   0  0  0  0  0  0  0  0  0  0  0  0
   68.3809   83.2569   89.0031 C   0  0  0  0  0  0  0  0  0  0  0  0
   69.5919   85.5008   89.1477 H   0  0  0  0  0  0  0  0  0  0  0  0
   67.8031   86.1141   91.3339 C   0  0  0  0  0  0  0  0  0  0  0  0
   66.8436   86.7506   92.2089 N   0  0  0  0  0  0  0  0  0  0  0  0
   66.5495   86.2669   93.5050 C   0  0  0  0  0  0  0  0  0  0  0  0
   67.1160   85.2485   93.9625 O   0  0  0  0  0  0  0  0  0  0  0  0
   66.3751   87.5551   91.8887 H   0  0  0  0  0  0  0  0  0  0  0  0
   65.6160   86.9249   94.2972 O   0  0  0  0  0  0  0  0  0  0  0  0
   64.2272   86.7563   94.1775 C   0  0  0  0  0  0  0  0  0  0  0  0
   63.8097   85.9349   93.0018 C   0  0  0  0  0  0  0  0  0  0  0  0
   63.4822   88.0769   94.1894 C   0  0  0  0  0  0  0  0  0  0  0  0
   63.7738   86.0069   95.4333 C   0  0  0  0  0  0  0  0  0  0  0  0
   67.0241   75.8649   88.2439 C   0  0  0  0  0  0  0  0  0  0  0  0
   67.0212   76.7869   89.1911 C   0  0  0  0  0  0  0  0  0  0  0  0
   66.9804   78.0973   88.8810 C   0  0  0  0  0  0  0  0  0  0  0  0
   66.9422   78.4171   87.5154 C   0  0  0  0  0  0  0  0  0  0  0  0
   66.9666   76.7816   86.7079 S   0  0  0  0  0  0  0  0  0  0  0  0
   67.0590   74.3730   88.2959 C   0  0  0  0  0  0  0  0  0  0  0  0
   66.6213   72.3446   86.9713 C   0  0  0  0  0  0  0  0  0  0  0  0
   67.3068   71.6904   87.7636 O   0  0  0  0  0  0  0  0  0  0  0  0
   66.4489   73.7322   87.1810 N   0  0  0  0  0  0  0  0  0  0  0  0
   65.9036   74.2582   86.5522 H   0  0  0  0  0  0  0  0  0  0  0  0
   66.0483   71.6638   85.8989 O   0  0  0  0  0  0  0  0  0  0  0  0
   67.7097   70.1692   85.1263 C   0  0  0  0  0  0  0  0  0  0  0  0
   66.8381   71.3563   84.7684 C   0  0  0  0  0  0  0  0  0  0  0  0
   66.0307   70.9982   83.5629 C   0  0  0  0  0  0  0  0  0  0  0  0
   67.7169   72.5423   84.3900 C   0  0  0  0  0  0  0  0  0  0  0  0
   66.4133   79.6037   93.5983 C   0  0  0  0  0  0  0  0  0  0  0  0
   65.6693   78.4189   93.7093 O   0  0  0  0  0  0  0  0  0  0  0  0
   66.3027   77.1913   93.9455 C   0  0  0  0  0  0  0  0  0  0  0  0
   65.5651   76.1403   94.4582 C   0  0  0  0  0  0  0  0  0  0  0  0
   66.1632   74.9192   94.7007 C   0  0  0  0  0  0  0  0  0  0  0  0
   67.5006   74.7051   94.4439 C   0  0  0  0  0  0  0  0  0  0  0  0
   68.1045   73.4746   94.6878 O   0  0  0  0  0  0  0  0  0  0  0  0
   68.2369   75.7470   93.9345 C   0  0  0  0  0  0  0  0  0  0  0  0
   67.6363   76.9797   93.6890 C   0  0  0  0  0  0  0  0  0  0  0  0
   67.5998   72.7657   95.0353 H   0  0  0  0  0  0  0  0  0  0  0  0
   69.6546   75.5910   93.6391 C   0  0  0  0  0  0  0  0  0  0  0  0
   70.4734   76.5079   93.9041 O   0  0  0  0  0  0  0  0  0  0  0  0
   70.0860   74.4094   93.0586 O   0  0  0  0  0  0  0  0  0  0  0  0
   69.4699   73.7308   92.8641 H   0  0  0  0  0  0  0  0  0  0  0  0
 34 35  1  0  0  0
 35 36  1  0  0  0
 35 37  1  0  0  0
 35 33  1  0  0  0
 33 29  1  0  0  0
 29 30  2  0  0  0
 29 31  1  0  0  0
 31 28  1  0  0  0
 28 23  1  0  0  0
 23 24  2  0  0  0
 24 25  1  0  0  0
 25  1  1  0  0  0
  1  2  2  0  0  0
  2  3  1  0  0  0
  3 38  1  0  0  0
 38 39  1  0  0  0
 39 40  1  0  0  0
 40 41  2  0  0  0
 41 42  1  0  0  0
 42 43  2  0  0  0
 43 44  1  0  0  0
 43 45  1  0  0  0
 45 48  1  0  0  0
 48 49  2  0  0  0
 48 50  1  0  0  0
 45 46  2  0  0  0
  3  4  2  0  0  0
  4  5  1  0  0  0
  5  7  1  0  0  0
  7  8  2  0  0  0
  8  9  1  0  0  0
  9 13  1  0  0  0
 13 14  1  0  0  0
 14 15  1  0  0  0
 15 16  2  0  0  0
 15 18  1  0  0  0
 18 19  1  0  0  0
 19 20  1  0  0  0
 19 21  1  0  0  0
 19 22  1  0  0  0
  9 10  1  0  0  0
 10 11  2  0  0  0
  5  6  2  0  0  0
 25 26  2  0  0  0
 26 27  1  0  0  0
 27 23  1  0  0  0
  6  1  1  0  0  0
 46 40  1  0  0  0
 11  7  1  0  0  0
 31 32  1  0  0  0
 44 47  1  0  0  0
 50 51  1  0  0  0
 14 17  1  0  0  0
 10 12  1  0  0  0
M  END
> <score>
-0.976363

> <minimizedAffinity>
-8.09984

> <CNNscore>
0.7821712494

> <CNNaffinity>
7.7602939606

> <CNN_VS>
6.0698790550

$$$$
HIPS6385


 51 54  0  0  0  0  0  0  0  0999 V2000
   67.4209   78.6855   89.3710 C   0  0  0  0  0  0  0  0  0  0  0  0
   66.8250   78.6735   90.5960 C   0  0  0  0  0  0  0  0  0  0  0  0
   66.9374   79.8014   91.4342 C   0  0  0  0  0  0  0  0  0  0  0  0
   67.6579   80.8885   90.9722 C   0  0  0  0  0  0  0  0  0  0  0  0
   68.2627   80.9123   89.7400 C   0  0  0  0  0  0  0  0  0  0  0  0
   68.1210   79.7858   88.9643 C   0  0  0  0  0  0  0  0  0  0  0  0
   69.0231   82.1056   89.2878 C   0  0  0  0  0  0  0  0  0  0  0  0
   68.4811   83.0514   88.6102 C   0  0  0  0  0  0  0  0  0  0  0  0
   69.2933   84.1992   88.1978 C   0  0  0  0  0  0  0  0  0  0  0  0
   70.9308   83.7149   88.9243 S   0  0  0  0  0  0  0  0  0  0  0  0
   70.4504   82.2308   89.6164 C   0  0  0  0  0  0  0  0  0  0  0  0
   71.3635   84.6035   89.8585 H   0  0  0  0  0  0  0  0  0  0  0  0
   68.8108   85.4909   88.8331 C   0  0  0  0  0  0  0  0  0  0  0  0
   69.1409   85.5795   90.2383 N   0  0  0  0  0  0  0  0  0  0  0  0
   68.1754   85.4421   91.2627 C   0  0  0  0  0  0  0  0  0  0  0  0
   66.9701   85.2335   90.9958 O   0  0  0  0  0  0  0  0  0  0  0  0
   70.0779   85.7425   90.4928 H   0  0  0  0  0  0  0  0  0  0  0  0
   68.5577   85.5380   92.5956 O   0  0  0  0  0  0  0  0  0  0  0  0
   68.7389   84.4321   93.4415 C   0  0  0  0  0  0  0  0  0  0  0  0
   67.5643   83.5114   93.5050 C   0  0  0  0  0  0  0  0  0  0  0  0
   69.1670   84.8378   94.8383 C   0  0  0  0  0  0  0  0  0  0  0  0
   69.9070   83.6311   92.8602 C   0  0  0  0  0  0  0  0  0  0  0  0
   66.9013   75.2034   88.1402 C   0  0  0  0  0  0  0  0  0  0  0  0
   67.0231   76.2295   88.9646 C   0  0  0  0  0  0  0  0  0  0  0  0
   67.2749   77.4673   88.4962 C   0  0  0  0  0  0  0  0  0  0  0  0
   67.3979   77.5975   87.1046 C   0  0  0  0  0  0  0  0  0  0  0  0
   67.1403   75.8937   86.5064 S   0  0  0  0  0  0  0  0  0  0  0  0
   66.6242   73.7550   88.3749 C   0  0  0  0  0  0  0  0  0  0  0  0
   66.6171   71.8346   86.8346 C   0  0  0  0  0  0  0  0  0  0  0  0
   67.5702   71.3481   87.4515 O   0  0  0  0  0  0  0  0  0  0  0  0
   66.0765   73.0725   87.2523 N   0  0  0  0  0  0  0  0  0  0  0  0
   65.3170   73.4647   86.7638 H   0  0  0  0  0  0  0  0  0  0  0  0
   66.1224   71.1215   85.7444 O   0  0  0  0  0  0  0  0  0  0  0  0
   65.8054   70.9751   83.4058 C   0  0  0  0  0  0  0  0  0  0  0  0
   66.8206   71.1553   84.5165 C   0  0  0  0  0  0  0  0  0  0  0  0
   67.5461   72.4411   84.2841 C   0  0  0  0  0  0  0  0  0  0  0  0
   67.8519   70.0351   84.4555 C   0  0  0  0  0  0  0  0  0  0  0  0
   66.3138   79.8449   92.7702 C   0  0  0  0  0  0  0  0  0  0  0  0
   67.1003   79.1331   93.6892 O   0  0  0  0  0  0  0  0  0  0  0  0
   67.2002   77.7369   93.6207 C   0  0  0  0  0  0  0  0  0  0  0  0
   66.0619   76.9709   93.7916 C   0  0  0  0  0  0  0  0  0  0  0  0
   66.1308   75.5929   93.7291 C   0  0  0  0  0  0  0  0  0  0  0  0
   67.3213   74.9380   93.4969 C   0  0  0  0  0  0  0  0  0  0  0  0
   67.3918   73.5489   93.4335 O   0  0  0  0  0  0  0  0  0  0  0  0
   68.4546   75.6956   93.3266 C   0  0  0  0  0  0  0  0  0  0  0  0
   68.3881   77.0856   93.3893 C   0  0  0  0  0  0  0  0  0  0  0  0
   66.6172   73.0347   93.5500 H   0  0  0  0  0  0  0  0  0  0  0  0
   69.7459   75.0698   93.0773 C   0  0  0  0  0  0  0  0  0  0  0  0
   70.5308   75.5333   92.2109 O   0  0  0  0  0  0  0  0  0  0  0  0
   70.0951   73.9504   93.8149 O   0  0  0  0  0  0  0  0  0  0  0  0
   69.5050   73.6108   94.4588 H   0  0  0  0  0  0  0  0  0  0  0  0
 34 35  1  0  0  0
 35 36  1  0  0  0
 35 37  1  0  0  0
 35 33  1  0  0  0
 33 29  1  0  0  0
 29 30  2  0  0  0
 29 31  1  0  0  0
 31 28  1  0  0  0
 28 23  1  0  0  0
 23 24  2  0  0  0
 24 25  1  0  0  0
 25  1  1  0  0  0
  1  2  2  0  0  0
  2  3  1  0  0  0
  3 38  1  0  0  0
 38 39  1  0  0  0
 39 40  1  0  0  0
 40 41  2  0  0  0
 41 42  1  0  0  0
 42 43  2  0  0  0
 43 44  1  0  0  0
 43 45  1  0  0  0
 45 48  1  0  0  0
 48 49  2  0  0  0
 48 50  1  0  0  0
 45 46  2  0  0  0
  3  4  2  0  0  0
  4  5  1  0  0  0
  5  7  1  0  0  0
  7  8  2  0  0  0
  8  9  1  0  0  0
  9 13  1  0  0  0
 13 14  1  0  0  0
 14 15  1  0  0  0
 15 16  2  0  0  0
 15 18  1  0  0  0
 18 19  1  0  0  0
 19 20  1  0  0  0
 19 21  1  0  0  0
 19 22  1  0  0  0
  9 10  1  0  0  0
 10 11  2  0  0  0
  5  6  2  0  0  0
 25 26  2  0  0  0
 26 27  1  0  0  0
 27 23  1  0  0  0
  6  1  1  0  0  0
 46 40  1  0  0  0
 11  7  1  0  0  0
 31 32  1  0  0  0
 44 47  1  0  0  0
 50 51  1  0  0  0
 14 17  1  0  0  0
 10 12  1  0  0  0
M  END
> <score>
-0.976363

> <minimizedAffinity>
-8.35890

> <CNNscore>
0.6437726617

> <CNNaffinity>
7.8735065460

> <CNN_VS>
5.0687484741

$$$$
HIPS6385


 51 54  0  0  0  0  0  0  0  0999 V2000
   66.8228   78.8378   88.7467 C   0  0  0  0  0  0  0  0  0  0  0  0
   66.3508   78.8039   90.0242 C   0  0  0  0  0  0  0  0  0  0  0  0
   66.2383   80.0040   90.7553 C   0  0  0  0  0  0  0  0  0  0  0  0
   66.6170   81.1826   90.1371 C   0  0  0  0  0  0  0  0  0  0  0  0
   67.0940   81.2293   88.8507 C   0  0  0  0  0  0  0  0  0  0  0  0
   67.1828   80.0296   88.1845 C   0  0  0  0  0  0  0  0  0  0  0  0
   67.4846   82.5210   88.2298 C   0  0  0  0  0  0  0  0  0  0  0  0
   67.1538   83.6546   88.7327 C   0  0  0  0  0  0  0  0  0  0  0  0
   67.5749   84.8894   88.0652 C   0  0  0  0  0  0  0  0  0  0  0  0
   68.5053   84.1782   86.6256 S   0  0  0  0  0  0  0  0  0  0  0  0
   68.2796   82.5271   86.9934 C   0  0  0  0  0  0  0  0  0  0  0  0
   69.8180   84.5336   86.6337 H   0  0  0  0  0  0  0  0  0  0  0  0
   68.5153   85.7080   88.9313 C   0  0  0  0  0  0  0  0  0  0  0  0
   69.6105   84.9258   89.4606 N   0  0  0  0  0  0  0  0  0  0  0  0
   69.5721   84.3192   90.7377 C   0  0  0  0  0  0  0  0  0  0  0  0
   68.5713   84.4329   91.4812 O   0  0  0  0  0  0  0  0  0  0  0  0
   70.4173   84.8106   88.9084 H   0  0  0  0  0  0  0  0  0  0  0  0
   70.6590   83.5795   91.1888 O   0  0  0  0  0  0  0  0  0  0  0  0
   71.3187   82.6062   90.4212 C   0  0  0  0  0  0  0  0  0  0  0  0
   72.1126   83.1592   89.2831 C   0  0  0  0  0  0  0  0  0  0  0  0
   70.3782   81.5227   89.9308 C   0  0  0  0  0  0  0  0  0  0  0  0
   72.3062   81.9110   91.3623 C   0  0  0  0  0  0  0  0  0  0  0  0
   66.8745   75.2226   87.8318 C   0  0  0  0  0  0  0  0  0  0  0  0
   66.7797   76.3244   88.5558 C   0  0  0  0  0  0  0  0  0  0  0  0
   66.9230   77.5386   87.9900 C   0  0  0  0  0  0  0  0  0  0  0  0
   67.1747   77.5609   86.6099 C   0  0  0  0  0  0  0  0  0  0  0  0
   67.1963   75.7918   86.1658 S   0  0  0  0  0  0  0  0  0  0  0  0
   66.7572   73.7765   88.1851 C   0  0  0  0  0  0  0  0  0  0  0  0
   66.8381   71.6727   86.9091 C   0  0  0  0  0  0  0  0  0  0  0  0
   67.7513   71.2754   87.6398 O   0  0  0  0  0  0  0  0  0  0  0  0
   66.2763   72.9513   87.1296 N   0  0  0  0  0  0  0  0  0  0  0  0
   65.5484   73.2728   86.5499 H   0  0  0  0  0  0  0  0  0  0  0  0
   66.4080   70.8217   85.8929 O   0  0  0  0  0  0  0  0  0  0  0  0
   68.0883   69.9244   84.4919 C   0  0  0  0  0  0  0  0  0  0  0  0
   66.9694   70.9409   84.6018 C   0  0  0  0  0  0  0  0  0  0  0  0
   65.9893   70.6792   83.5044 C   0  0  0  0  0  0  0  0  0  0  0  0
   67.5271   72.3427   84.3873 C   0  0  0  0  0  0  0  0  0  0  0  0
   65.7345   80.0280   92.1414 C   0  0  0  0  0  0  0  0  0  0  0  0
   66.7051   79.5099   93.0127 O   0  0  0  0  0  0  0  0  0  0  0  0
   66.8631   78.1267   93.1728 C   0  0  0  0  0  0  0  0  0  0  0  0
   65.8497   77.3972   93.7666 C   0  0  0  0  0  0  0  0  0  0  0  0
   65.9782   76.0326   93.9370 C   0  0  0  0  0  0  0  0  0  0  0  0
   67.1067   75.3555   93.5268 C   0  0  0  0  0  0  0  0  0  0  0  0
   67.2371   73.9799   93.6980 O   0  0  0  0  0  0  0  0  0  0  0  0
   68.1158   76.0768   92.9364 C   0  0  0  0  0  0  0  0  0  0  0  0
   67.9890   77.4532   92.7633 C   0  0  0  0  0  0  0  0  0  0  0  0
   66.5472   73.4904   94.1010 H   0  0  0  0  0  0  0  0  0  0  0  0
   69.3357   75.4260   92.4786 C   0  0  0  0  0  0  0  0  0  0  0  0
   70.4503   75.7164   92.9833 O   0  0  0  0  0  0  0  0  0  0  0  0
   69.2452   74.4773   91.4731 O   0  0  0  0  0  0  0  0  0  0  0  0
   68.4112   74.2662   91.1019 H   0  0  0  0  0  0  0  0  0  0  0  0
 34 35  1  0  0  0
 35 36  1  0  0  0
 35 37  1  0  0  0
 35 33  1  0  0  0
 33 29  1  0  0  0
 29 30  2  0  0  0
 29 31  1  0  0  0
 31 28  1  0  0  0
 28 23  1  0  0  0
 23 24  2  0  0  0
 24 25  1  0  0  0
 25  1  1  0  0  0
  1  2  2  0  0  0
  2  3  1  0  0  0
  3 38  1  0  0  0
 38 39  1  0  0  0
 39 40  1  0  0  0
 40 41  2  0  0  0
 41 42  1  0  0  0
 42 43  2  0  0  0
 43 44  1  0  0  0
 43 45  1  0  0  0
 45 48  1  0  0  0
 48 49  2  0  0  0
 48 50  1  0  0  0
 45 46  2  0  0  0
  3  4  2  0  0  0
  4  5  1  0  0  0
  5  7  1  0  0  0
  7  8  2  0  0  0
  8  9  1  0  0  0
  9 13  1  0  0  0
 13 14  1  0  0  0
 14 15  1  0  0  0
 15 16  2  0  0  0
 15 18  1  0  0  0
 18 19  1  0  0  0
 19 20  1  0  0  0
 19 21  1  0  0  0
 19 22  1  0  0  0
  9 10  1  0  0  0
 10 11  2  0  0  0
  5  6  2  0  0  0
 25 26  2  0  0  0
 26 27  1  0  0  0
 27 23  1  0  0  0
  6  1  1  0  0  0
 46 40  1  0  0  0
 11  7  1  0  0  0
 31 32  1  0  0  0
 44 47  1  0  0  0
 50 51  1  0  0  0
 14 17  1  0  0  0
 10 12  1  0  0  0
M  END
> <score>
-0.976363

> <minimizedAffinity>
-8.08357

> <CNNscore>
0.6397882700

> <CNNaffinity>
7.9732093811

> <CNN_VS>
5.1011657715

$$$$
HIPS6415


 40 43  0  0  0  0  0  0  0  0999 V2000
   66.6746   78.7431   88.8899 C   0  0  0  0  0  0  0  0  0  0  0  0
   66.2387   78.6512   90.2281 C   0  0  0  0  0  0  0  0  0  0  0  0
   66.0954   79.7974   91.0271 C   0  0  0  0  0  0  0  0  0  0  0  0
   66.4151   81.0530   90.4963 C   0  0  0  0  0  0  0  0  0  0  0  0
   66.8883   81.1668   89.1824 C   0  0  0  0  0  0  0  0  0  0  0  0
   66.9813   80.0203   88.3798 C   0  0  0  0  0  0  0  0  0  0  0  0
   67.0254   75.2134   86.4546 C   0  0  0  0  0  0  0  0  0  0  0  0
   66.9957   76.4647   85.8424 C   0  0  0  0  0  0  0  0  0  0  0  0
   66.9159   77.6143   86.6286 C   0  0  0  0  0  0  0  0  0  0  0  0
   66.8185   77.5198   88.0331 C   0  0  0  0  0  0  0  0  0  0  0  0
   66.8482   76.2283   88.5986 C   0  0  0  0  0  0  0  0  0  0  0  0
   66.9586   75.1286   87.8082 N   0  0  0  0  0  0  0  0  0  0  0  0
   67.0991   74.0585   85.6661 O   0  0  0  0  0  0  0  0  0  0  0  0
   67.2289   71.7099   85.0773 C   0  0  0  0  0  0  0  0  0  0  0  0
   67.2753   72.7457   86.2077 C   0  0  0  0  0  0  0  0  0  0  0  0
   66.1732   72.4823   87.2357 C   0  0  0  0  0  0  0  0  0  0  0  0
   67.3654   82.4700   88.6707 C   0  0  0  0  0  0  0  0  0  0  0  0
   67.8179   82.5859   87.3490 C   0  0  0  0  0  0  0  0  0  0  0  0
   68.3351   83.7949   86.8879 C   0  0  0  0  0  0  0  0  0  0  0  0
   68.3853   84.9037   87.7526 C   0  0  0  0  0  0  0  0  0  0  0  0
   67.9228   84.7723   89.0253 N   0  0  0  0  0  0  0  0  0  0  0  0
   67.4244   83.5984   89.4999 C   0  0  0  0  0  0  0  0  0  0  0  0
   68.8979   86.1507   87.3543 O   0  0  0  0  0  0  0  0  0  0  0  0
   70.1269   86.7238   87.8124 C   0  0  0  0  0  0  0  0  0  0  0  0
   69.8290   87.6809   88.9612 C   0  0  0  0  0  0  0  0  0  0  0  0
   71.0810   85.6212   88.2899 C   0  0  0  0  0  0  0  0  0  0  0  0
   65.5889   79.6761   92.4420 C   0  0  0  0  0  0  0  0  0  0  0  0
   66.5855   79.1040   93.2912 O   0  0  0  0  0  0  0  0  0  0  0  0
   66.8272   77.7308   93.4482 C   0  0  0  0  0  0  0  0  0  0  0  0
   65.8328   76.8282   93.8589 C   0  0  0  0  0  0  0  0  0  0  0  0
   66.1346   75.4762   94.0063 C   0  0  0  0  0  0  0  0  0  0  0  0
   67.4281   75.0009   93.7557 C   0  0  0  0  0  0  0  0  0  0  0  0
   67.7019   73.6418   93.9256 O   0  0  0  0  0  0  0  0  0  0  0  0
   68.4353   75.8944   93.3352 C   0  0  0  0  0  0  0  0  0  0  0  0
   68.1141   77.2553   93.1808 C   0  0  0  0  0  0  0  0  0  0  0  0
   67.0240   73.0587   94.2055 H   0  0  0  0  0  0  0  0  0  0  0  0
   69.8239   75.4426   93.0727 C   0  0  0  0  0  0  0  0  0  0  0  0
   70.1142   74.2166   93.0577 O   0  0  0  0  0  0  0  0  0  0  0  0
   70.8310   76.3800   92.8454 O   0  0  0  0  0  0  0  0  0  0  0  0
   70.6298   77.2951   92.8535 H   0  0  0  0  0  0  0  0  0  0  0  0
 14 15  1  0  0  0
 15 16  1  0  0  0
 15 13  1  0  0  0
 13  7  1  0  0  0
  7  8  2  0  0  0
  8  9  1  0  0  0
  9 10  2  0  0  0
 10  1  1  0  0  0
  1  2  2  0  0  0
  2  3  1  0  0  0
  3 27  1  0  0  0
 27 28  1  0  0  0
 28 29  1  0  0  0
 29 30  2  0  0  0
 30 31  1  0  0  0
 31 32  2  0  0  0
 32 33  1  0  0  0
 32 34  1  0  0  0
 34 37  1  0  0  0
 37 38  2  0  0  0
 37 39  1  0  0  0
 34 35  2  0  0  0
  3  4  2  0  0  0
  4  5  1  0  0  0
  5 17  1  0  0  0
 17 18  2  0  0  0
 18 19  1  0  0  0
 19 20  2  0  0  0
 20 23  1  0  0  0
 23 24  1  0  0  0
 24 25  1  0  0  0
 24 26  1  0  0  0
 20 21  2  0  0  0
 21 22  2  0  0  0
  5  6  2  0  0  0
 10 11  1  0  0  0
 11 12  2  0  0  0
 12  7  2  0  0  0
  6  1  1  0  0  0
 35 29  1  0  0  0
 22 17  1  0  0  0
 33 36  1  0  0  0
 39 40  1  0  0  0
M  END
> <score>
-0.063073

> <minimizedAffinity>
-8.27849

> <CNNscore>
0.7441237569

> <CNNaffinity>
7.3418750763

> <CNN_VS>
5.4632635117

$$$$
HIPS6415


 40 43  0  0  0  0  0  0  0  0999 V2000
   67.3997   79.0025   88.3452 C   0  0  0  0  0  0  0  0  0  0  0  0
   66.6621   78.8821   89.5413 C   0  0  0  0  0  0  0  0  0  0  0  0
   66.6982   79.8863   90.5226 C   0  0  0  0  0  0  0  0  0  0  0  0
   67.5003   81.0166   90.3243 C   0  0  0  0  0  0  0  0  0  0  0  0
   68.2735   81.1412   89.1625 C   0  0  0  0  0  0  0  0  0  0  0  0
   68.1917   80.1545   88.1689 C   0  0  0  0  0  0  0  0  0  0  0  0
   67.1994   75.9468   85.3228 C   0  0  0  0  0  0  0  0  0  0  0  0
   67.8953   77.1244   85.0575 C   0  0  0  0  0  0  0  0  0  0  0  0
   67.9920   78.1045   86.0454 C   0  0  0  0  0  0  0  0  0  0  0  0
   67.3537   77.9345   87.2923 C   0  0  0  0  0  0  0  0  0  0  0  0
   66.6593   76.7255   87.5045 C   0  0  0  0  0  0  0  0  0  0  0  0
   66.6095   75.7760   86.5339 N   0  0  0  0  0  0  0  0  0  0  0  0
   67.0962   74.9650   84.3296 O   0  0  0  0  0  0  0  0  0  0  0  0
   65.6863   76.3361   82.9113 C   0  0  0  0  0  0  0  0  0  0  0  0
   66.7737   75.2556   82.9660 C   0  0  0  0  0  0  0  0  0  0  0  0
   66.3013   73.9700   82.2843 C   0  0  0  0  0  0  0  0  0  0  0  0
   69.2313   82.2592   89.0191 C   0  0  0  0  0  0  0  0  0  0  0  0
   69.4006   82.8882   87.7777 C   0  0  0  0  0  0  0  0  0  0  0  0
   70.3543   83.8924   87.6244 C   0  0  0  0  0  0  0  0  0  0  0  0
   71.1356   84.2828   88.7276 C   0  0  0  0  0  0  0  0  0  0  0  0
   70.9400   83.6710   89.9269 N   0  0  0  0  0  0  0  0  0  0  0  0
   70.0226   82.6804   90.0965 C   0  0  0  0  0  0  0  0  0  0  0  0
   72.1175   85.2852   88.6420 O   0  0  0  0  0  0  0  0  0  0  0  0
   71.9369   86.5697   88.0370 C   0  0  0  0  0  0  0  0  0  0  0  0
   70.7196   87.2438   88.6602 C   0  0  0  0  0  0  0  0  0  0  0  0
   73.1813   87.4397   88.2574 C   0  0  0  0  0  0  0  0  0  0  0  0
   65.8687   79.7522   91.7746 C   0  0  0  0  0  0  0  0  0  0  0  0
   66.6473   79.2134   92.8447 O   0  0  0  0  0  0  0  0  0  0  0  0
   66.8309   77.8473   93.1071 C   0  0  0  0  0  0  0  0  0  0  0  0
   65.8532   77.0576   93.7337 C   0  0  0  0  0  0  0  0  0  0  0  0
   66.0962   75.7076   93.9766 C   0  0  0  0  0  0  0  0  0  0  0  0
   67.3145   75.1228   93.6083 C   0  0  0  0  0  0  0  0  0  0  0  0
   67.5325   73.7697   93.8777 O   0  0  0  0  0  0  0  0  0  0  0  0
   68.3030   75.9016   92.9711 C   0  0  0  0  0  0  0  0  0  0  0  0
   68.0403   77.2611   92.7230 C   0  0  0  0  0  0  0  0  0  0  0  0
   66.8677   73.2634   94.3016 H   0  0  0  0  0  0  0  0  0  0  0  0
   69.6150   75.3324   92.5761 C   0  0  0  0  0  0  0  0  0  0  0  0
   69.6996   74.1684   92.1015 O   0  0  0  0  0  0  0  0  0  0  0  0
   70.7780   76.0853   92.7352 O   0  0  0  0  0  0  0  0  0  0  0  0
   70.7303   76.9525   93.0870 H   0  0  0  0  0  0  0  0  0  0  0  0
 14 15  1  0  0  0
 15 16  1  0  0  0
 15 13  1  0  0  0
 13  7  1  0  0  0
  7  8  2  0  0  0
  8  9  1  0  0  0
  9 10  2  0  0  0
 10  1  1  0  0  0
  1  2  2  0  0  0
  2  3  1  0  0  0
  3 27  1  0  0  0
 27 28  1  0  0  0
 28 29  1  0  0  0
 29 30  2  0  0  0
 30 31  1  0  0  0
 31 32  2  0  0  0
 32 33  1  0  0  0
 32 34  1  0  0  0
 34 37  1  0  0  0
 37 38  2  0  0  0
 37 39  1  0  0  0
 34 35  2  0  0  0
  3  4  2  0  0  0
  4  5  1  0  0  0
  5 17  1  0  0  0
 17 18  2  0  0  0
 18 19  1  0  0  0
 19 20  2  0  0  0
 20 23  1  0  0  0
 23 24  1  0  0  0
 24 25  1  0  0  0
 24 26  1  0  0  0
 20 21  2  0  0  0
 21 22  2  0  0  0
  5  6  2  0  0  0
 10 11  1  0  0  0
 11 12  2  0  0  0
 12  7  2  0  0  0
  6  1  1  0  0  0
 35 29  1  0  0  0
 22 17  1  0  0  0
 33 36  1  0  0  0
 39 40  1  0  0  0
M  END
> <score>
-0.063073

> <minimizedAffinity>
-7.69217

> <CNNscore>
0.5738053322

> <CNNaffinity>
7.1959209442

> <CNN_VS>
4.1290578842

$$$$
HIPS6415


 40 43  0  0  0  0  0  0  0  0999 V2000
   67.4408   79.2053   89.2791 C   0  0  0  0  0  0  0  0  0  0  0  0
   67.3630   79.1802   90.6871 C   0  0  0  0  0  0  0  0  0  0  0  0
   67.2516   77.9683   91.3882 C   0  0  0  0  0  0  0  0  0  0  0  0
   67.1901   76.7633   90.6780 C   0  0  0  0  0  0  0  0  0  0  0  0
   67.2251   76.7641   89.2773 C   0  0  0  0  0  0  0  0  0  0  0  0
   67.3849   77.9769   88.5910 C   0  0  0  0  0  0  0  0  0  0  0  0
   67.8755   82.9213   87.1543 C   0  0  0  0  0  0  0  0  0  0  0  0
   67.6350   81.7501   86.4387 C   0  0  0  0  0  0  0  0  0  0  0  0
   67.4599   80.5480   87.1244 C   0  0  0  0  0  0  0  0  0  0  0  0
   67.5698   80.4991   88.5303 C   0  0  0  0  0  0  0  0  0  0  0  0
   67.8191   81.7134   89.2027 C   0  0  0  0  0  0  0  0  0  0  0  0
   67.9536   82.8740   88.5092 N   0  0  0  0  0  0  0  0  0  0  0  0
   68.0579   84.1276   86.4668 O   0  0  0  0  0  0  0  0  0  0  0  0
   70.4622   83.9625   86.7336 C   0  0  0  0  0  0  0  0  0  0  0  0
   69.2625   84.8971   86.5333 C   0  0  0  0  0  0  0  0  0  0  0  0
   69.1490   85.8955   87.6871 C   0  0  0  0  0  0  0  0  0  0  0  0
   67.0118   75.5092   88.5240 C   0  0  0  0  0  0  0  0  0  0  0  0
   66.9381   74.2840   89.2011 C   0  0  0  0  0  0  0  0  0  0  0  0
   66.8099   73.0944   88.4869 C   0  0  0  0  0  0  0  0  0  0  0  0
   66.7386   73.1318   87.0821 C   0  0  0  0  0  0  0  0  0  0  0  0
   66.7932   74.3343   86.4482 N   0  0  0  0  0  0  0  0  0  0  0  0
   66.9297   75.5070   87.1249 C   0  0  0  0  0  0  0  0  0  0  0  0
   66.6132   71.9702   86.3001 O   0  0  0  0  0  0  0  0  0  0  0  0
   67.6997   71.2523   85.7063 C   0  0  0  0  0  0  0  0  0  0  0  0
   68.0403   70.0538   86.5850 C   0  0  0  0  0  0  0  0  0  0  0  0
   67.3135   70.7723   84.3011 C   0  0  0  0  0  0  0  0  0  0  0  0
   67.2110   77.9660   92.8954 C   0  0  0  0  0  0  0  0  0  0  0  0
   66.2693   77.0053   93.3771 O   0  0  0  0  0  0  0  0  0  0  0  0
   66.5605   75.9569   94.2630 C   0  0  0  0  0  0  0  0  0  0  0  0
   65.7142   75.6070   95.3277 C   0  0  0  0  0  0  0  0  0  0  0  0
   66.0609   74.5618   96.1809 C   0  0  0  0  0  0  0  0  0  0  0  0
   67.2548   73.8533   95.9952 C   0  0  0  0  0  0  0  0  0  0  0  0
   67.5802   72.8193   96.8760 O   0  0  0  0  0  0  0  0  0  0  0  0
   68.1112   74.1884   94.9256 C   0  0  0  0  0  0  0  0  0  0  0  0
   67.7438   75.2395   94.0658 C   0  0  0  0  0  0  0  0  0  0  0  0
   67.0028   72.6066   97.5826 H   0  0  0  0  0  0  0  0  0  0  0  0
   69.3938   73.4786   94.6966 C   0  0  0  0  0  0  0  0  0  0  0  0
   69.7234   72.4914   95.4068 O   0  0  0  0  0  0  0  0  0  0  0  0
   70.2572   73.9065   93.6887 O   0  0  0  0  0  0  0  0  0  0  0  0
   70.0252   74.6392   93.1528 H   0  0  0  0  0  0  0  0  0  0  0  0
 14 15  1  0  0  0
 15 16  1  0  0  0
 15 13  1  0  0  0
 13  7  1  0  0  0
  7  8  2  0  0  0
  8  9  1  0  0  0
  9 10  2  0  0  0
 10  1  1  0  0  0
  1  2  2  0  0  0
  2  3  1  0  0  0
  3 27  1  0  0  0
 27 28  1  0  0  0
 28 29  1  0  0  0
 29 30  2  0  0  0
 30 31  1  0  0  0
 31 32  2  0  0  0
 32 33  1  0  0  0
 32 34  1  0  0  0
 34 37  1  0  0  0
 37 38  2  0  0  0
 37 39  1  0  0  0
 34 35  2  0  0  0
  3  4  2  0  0  0
  4  5  1  0  0  0
  5 17  1  0  0  0
 17 18  2  0  0  0
 18 19  1  0  0  0
 19 20  2  0  0  0
 20 23  1  0  0  0
 23 24  1  0  0  0
 24 25  1  0  0  0
 24 26  1  0  0  0
 20 21  2  0  0  0
 21 22  2  0  0  0
  5  6  2  0  0  0
 10 11  1  0  0  0
 11 12  2  0  0  0
 12  7  2  0  0  0
  6  1  1  0  0  0
 35 29  1  0  0  0
 22 17  1  0  0  0
 33 36  1  0  0  0
 39 40  1  0  0  0
M  END
> <score>
-0.063073

> <minimizedAffinity>
-9.34057

> <CNNscore>
0.5192635059

> <CNNaffinity>
7.0593366623

> <CNN_VS>
3.6656558514

$$$$
HIPS643


 30 31  0  0  0  0  0  0  0  0999 V2000
   67.4400   76.2165   89.0381 C   0  0  0  0  0  0  0  0  0  0  0  0
   66.7807   75.3154   88.2010 C   0  0  0  0  0  0  0  0  0  0  0  0
   66.8246   73.9838   88.6539 C   0  0  0  0  0  0  0  0  0  0  0  0
   67.5351   73.8257   89.8475 C   0  0  0  0  0  0  0  0  0  0  0  0
   68.0845   75.3411   90.3269 S   0  0  0  0  0  0  0  0  0  0  0  0
   67.8363   80.4674   88.4350 C   0  0  0  0  0  0  0  0  0  0  0  0
   67.0714   79.6888   87.5483 C   0  0  0  0  0  0  0  0  0  0  0  0
   66.9461   78.3107   87.7469 C   0  0  0  0  0  0  0  0  0  0  0  0
   67.5779   77.6815   88.8352 C   0  0  0  0  0  0  0  0  0  0  0  0
   68.3450   78.4670   89.7158 C   0  0  0  0  0  0  0  0  0  0  0  0
   68.4693   79.8446   89.5147 C   0  0  0  0  0  0  0  0  0  0  0  0
   67.4752   82.6013   87.1834 C   0  0  0  0  0  0  0  0  0  0  0  0
   67.9924   81.8528   88.2787 O   0  0  0  0  0  0  0  0  0  0  0  0
   66.2808   72.8873   87.9023 N   0  0  0  0  0  0  0  0  0  0  0  0
   66.6122   72.6330   86.5299 C   0  0  0  0  0  0  0  0  0  0  0  0
   67.2178   73.5060   85.8500 O   0  0  0  0  0  0  0  0  0  0  0  0
   66.2185   71.3952   85.9225 N   0  0  0  0  0  0  0  0  0  0  0  0
   65.6493   72.2800   88.3513 H   0  0  0  0  0  0  0  0  0  0  0  0
   65.6916   70.7554   86.4537 H   0  0  0  0  0  0  0  0  0  0  0  0
   66.5670   71.0447   84.5484 C   0  0  0  0  0  0  0  0  0  0  0  0
   65.0651   70.9129   83.5301 P   0  0  0  0  0  0  0  0  0  0  0  0
   65.0273   69.5699   82.8362 O   0  0  0  0  0  0  0  0  0  0  0  0
   63.7035   71.0769   84.5217 O   0  0  0  0  0  0  0  0  0  0  0  0
   65.0744   72.1456   82.3708 O   0  0  0  0  0  0  0  0  0  0  0  0
   63.6998   70.3696   85.1855 H   0  0  0  0  0  0  0  0  0  0  0  0
   65.8553   72.0500   81.8034 H   0  0  0  0  0  0  0  0  0  0  0  0
   67.7467   72.5883   90.6179 C   0  0  0  0  0  0  0  0  0  0  0  0
   68.8670   72.0128   90.5794 O   0  0  0  0  0  0  0  0  0  0  0  0
   66.7326   72.0591   91.4095 O   0  0  0  0  0  0  0  0  0  0  0  0
   65.8966   72.4808   91.4438 H   0  0  0  0  0  0  0  0  0  0  0  0
 12 13  1  0  0  0
 13  6  1  0  0  0
  6  7  2  0  0  0
  7  8  1  0  0  0
  8  9  2  0  0  0
  9  1  1  0  0  0
  1  2  2  0  0  0
  2  3  1  0  0  0
  3 14  1  0  0  0
 14 15  1  0  0  0
 15 16  2  0  0  0
 15 17  1  0  0  0
 17 20  1  0  0  0
 20 21  1  0  0  0
 21 22  2  0  0  0
 21 23  1  0  0  0
 21 24  1  0  0  0
  3  4  2  0  0  0
  4 27  1  0  0  0
 27 28  2  0  0  0
 27 29  1  0  0  0
  4  5  1  0  0  0
  9 10  1  0  0  0
 10 11  2  0  0  0
 11  6  1  0  0  0
  5  1  1  0  0  0
 14 18  1  0  0  0
 17 19  1  0  0  0
 23 25  1  0  0  0
 24 26  1  0  0  0
 29 30  1  0  0  0
M  END
> <score>
0.601462

> <minimizedAffinity>
-7.60203

> <CNNscore>
0.4210996628

> <CNNaffinity>
5.3177108765

> <CNN_VS>
2.2392861843

$$$$
HIPS643


 30 31  0  0  0  0  0  0  0  0999 V2000
   69.5870   80.1776   89.9420 C   0  0  0  0  0  0  0  0  0  0  0  0
   68.6380   79.1963   90.2315 C   0  0  0  0  0  0  0  0  0  0  0  0
   69.1880   78.0125   90.7573 C   0  0  0  0  0  0  0  0  0  0  0  0
   70.5810   78.0494   90.8709 C   0  0  0  0  0  0  0  0  0  0  0  0
   71.1043   79.5534   90.3303 S   0  0  0  0  0  0  0  0  0  0  0  0
   68.8464   84.0954   88.3009 C   0  0  0  0  0  0  0  0  0  0  0  0
   70.1028   83.7753   88.8456 C   0  0  0  0  0  0  0  0  0  0  0  0
   70.3385   82.5041   89.3774 C   0  0  0  0  0  0  0  0  0  0  0  0
   69.3279   81.5254   89.3740 C   0  0  0  0  0  0  0  0  0  0  0  0
   68.0720   81.8549   88.8308 C   0  0  0  0  0  0  0  0  0  0  0  0
   67.8385   83.1267   88.3003 C   0  0  0  0  0  0  0  0  0  0  0  0
   69.5427   86.3405   87.4494 C   0  0  0  0  0  0  0  0  0  0  0  0
   68.5607   85.3560   87.7557 O   0  0  0  0  0  0  0  0  0  0  0  0
   68.3983   76.8482   91.0464 N   0  0  0  0  0  0  0  0  0  0  0  0
   67.9057   76.5372   92.3574 C   0  0  0  0  0  0  0  0  0  0  0  0
   68.3474   77.1541   93.3652 O   0  0  0  0  0  0  0  0  0  0  0  0
   66.9349   75.4949   92.5219 N   0  0  0  0  0  0  0  0  0  0  0  0
   68.1844   76.2330   90.3083 H   0  0  0  0  0  0  0  0  0  0  0  0
   66.6516   74.9845   91.7291 H   0  0  0  0  0  0  0  0  0  0  0  0
   66.3490   75.1595   93.8167 C   0  0  0  0  0  0  0  0  0  0  0  0
   67.4069   73.9717   94.6998 P   0  0  0  0  0  0  0  0  0  0  0  0
   67.8212   72.8557   93.7673 O   0  0  0  0  0  0  0  0  0  0  0  0
   68.7838   74.7712   95.2735 O   0  0  0  0  0  0  0  0  0  0  0  0
   66.5423   73.3250   96.0028 O   0  0  0  0  0  0  0  0  0  0  0  0
   69.2781   75.1412   94.5253 H   0  0  0  0  0  0  0  0  0  0  0  0
   65.7536   72.8672   95.6722 H   0  0  0  0  0  0  0  0  0  0  0  0
   71.4728   77.0095   91.4120 C   0  0  0  0  0  0  0  0  0  0  0  0
   72.6310   76.8708   90.9353 O   0  0  0  0  0  0  0  0  0  0  0  0
   71.0627   76.1938   92.4614 O   0  0  0  0  0  0  0  0  0  0  0  0
   70.2031   76.2905   92.8216 H   0  0  0  0  0  0  0  0  0  0  0  0
 12 13  1  0  0  0
 13  6  1  0  0  0
  6  7  2  0  0  0
  7  8  1  0  0  0
  8  9  2  0  0  0
  9  1  1  0  0  0
  1  2  2  0  0  0
  2  3  1  0  0  0
  3 14  1  0  0  0
 14 15  1  0  0  0
 15 16  2  0  0  0
 15 17  1  0  0  0
 17 20  1  0  0  0
 20 21  1  0  0  0
 21 22  2  0  0  0
 21 23  1  0  0  0
 21 24  1  0  0  0
  3  4  2  0  0  0
  4 27  1  0  0  0
 27 28  2  0  0  0
 27 29  1  0  0  0
  4  5  1  0  0  0
  9 10  1  0  0  0
 10 11  2  0  0  0
 11  6  1  0  0  0
  5  1  1  0  0  0
 14 18  1  0  0  0
 17 19  1  0  0  0
 23 25  1  0  0  0
 24 26  1  0  0  0
 29 30  1  0  0  0
M  END
> <score>
0.601462

> <minimizedAffinity>
-6.66744

> <CNNscore>
0.3054045737

> <CNNaffinity>
4.9417028427

> <CNN_VS>
1.5092186928

$$$$
HIPS643


 30 31  0  0  0  0  0  0  0  0999 V2000
   67.6605   73.1994   90.3242 C   0  0  0  0  0  0  0  0  0  0  0  0
   67.9913   74.5313   90.5772 C   0  0  0  0  0  0  0  0  0  0  0  0
   68.1546   74.8257   91.9436 C   0  0  0  0  0  0  0  0  0  0  0  0
   67.9371   73.7260   92.7790 C   0  0  0  0  0  0  0  0  0  0  0  0
   67.5597   72.4056   91.8082 S   0  0  0  0  0  0  0  0  0  0  0  0
   66.9391   71.4103   86.4680 C   0  0  0  0  0  0  0  0  0  0  0  0
   66.2870   72.6007   86.8360 C   0  0  0  0  0  0  0  0  0  0  0  0
   66.5231   73.1771   88.0876 C   0  0  0  0  0  0  0  0  0  0  0  0
   67.4164   72.5804   88.9961 C   0  0  0  0  0  0  0  0  0  0  0  0
   68.0618   71.3870   88.6220 C   0  0  0  0  0  0  0  0  0  0  0  0
   67.8236   70.8123   87.3703 C   0  0  0  0  0  0  0  0  0  0  0  0
   67.7519   70.1273   84.4822 C   0  0  0  0  0  0  0  0  0  0  0  0
   66.7358   70.7934   85.2246 O   0  0  0  0  0  0  0  0  0  0  0  0
   68.4149   76.1522   92.4287 N   0  0  0  0  0  0  0  0  0  0  0  0
   67.4025   77.1627   92.5383 C   0  0  0  0  0  0  0  0  0  0  0  0
   66.2798   77.0001   91.9867 O   0  0  0  0  0  0  0  0  0  0  0  0
   67.6854   78.3765   93.2472 N   0  0  0  0  0  0  0  0  0  0  0  0
   69.3338   76.3793   92.6995 H   0  0  0  0  0  0  0  0  0  0  0  0
   68.5889   78.5085   93.6154 H   0  0  0  0  0  0  0  0  0  0  0  0
   66.6886   79.4250   93.4456 C   0  0  0  0  0  0  0  0  0  0  0  0
   66.7909   80.6547   92.1087 P   0  0  0  0  0  0  0  0  0  0  0  0
   67.1948   81.9985   92.6721 O   0  0  0  0  0  0  0  0  0  0  0  0
   67.9387   80.1484   90.9727 O   0  0  0  0  0  0  0  0  0  0  0  0
   65.2769   80.7882   91.3645 O   0  0  0  0  0  0  0  0  0  0  0  0
   68.8057   80.0725   91.4009 H   0  0  0  0  0  0  0  0  0  0  0  0
   64.6204   81.0784   92.0169 H   0  0  0  0  0  0  0  0  0  0  0  0
   68.0585   73.6654   94.2457 C   0  0  0  0  0  0  0  0  0  0  0  0
   68.8102   72.8036   94.7747 O   0  0  0  0  0  0  0  0  0  0  0  0
   67.3732   74.5652   95.0556 O   0  0  0  0  0  0  0  0  0  0  0  0
   66.8122   75.2091   94.6702 H   0  0  0  0  0  0  0  0  0  0  0  0
 12 13  1  0  0  0
 13  6  1  0  0  0
  6  7  2  0  0  0
  7  8  1  0  0  0
  8  9  2  0  0  0
  9  1  1  0  0  0
  1  2  2  0  0  0
  2  3  1  0  0  0
  3 14  1  0  0  0
 14 15  1  0  0  0
 15 16  2  0  0  0
 15 17  1  0  0  0
 17 20  1  0  0  0
 20 21  1  0  0  0
 21 22  2  0  0  0
 21 23  1  0  0  0
 21 24  1  0  0  0
  3  4  2  0  0  0
  4 27  1  0  0  0
 27 28  2  0  0  0
 27 29  1  0  0  0
  4  5  1  0  0  0
  9 10  1  0  0  0
 10 11  2  0  0  0
 11  6  1  0  0  0
  5  1  1  0  0  0
 14 18  1  0  0  0
 17 19  1  0  0  0
 23 25  1  0  0  0
 24 26  1  0  0  0
 29 30  1  0  0  0
M  END
> <score>
0.601462

> <minimizedAffinity>
-4.86382

> <CNNscore>
0.1598867476

> <CNNaffinity>
4.4655017853

> <CNN_VS>
0.7139745355

$$$$
HIPS6457


 34 37  0  0  0  0  0  0  0  0999 V2000
   67.3049   78.5620   90.8916 C   0  0  0  0  0  0  0  0  0  0  0  0
   66.9687   77.5222   90.0469 C   0  0  0  0  0  0  0  0  0  0  0  0
   66.9604   77.7585   88.6938 C   0  0  0  0  0  0  0  0  0  0  0  0
   67.2729   78.9847   88.1542 C   0  0  0  0  0  0  0  0  0  0  0  0
   67.6082   80.0220   88.9943 C   0  0  0  0  0  0  0  0  0  0  0  0
   67.6187   79.7927   90.3529 C   0  0  0  0  0  0  0  0  0  0  0  0
   67.9332   81.3050   88.3910 C   0  0  0  0  0  0  0  0  0  0  0  0
   67.1756   81.7222   87.3180 C   0  0  0  0  0  0  0  0  0  0  0  0
   67.4707   82.9436   86.7298 C   0  0  0  0  0  0  0  0  0  0  0  0
   68.5010   83.7338   87.2019 C   0  0  0  0  0  0  0  0  0  0  0  0
   69.2789   83.3260   88.2886 C   0  0  0  0  0  0  0  0  0  0  0  0
   68.9581   82.1070   88.8491 C   0  0  0  0  0  0  0  0  0  0  0  0
   70.5860   84.3314   88.8854 S   0  0  0  0  0  0  0  0  0  0  0  0
   71.1674   83.6364   90.0943 O   0  0  0  0  0  0  0  0  0  0  0  0
   71.6014   84.4399   87.8069 O   0  0  0  0  0  0  0  0  0  0  0  0
   70.0686   85.8764   89.3669 N   0  0  0  0  0  0  0  0  0  0  0  0
   70.5831   86.1343   90.2090 H   0  0  0  0  0  0  0  0  0  0  0  0
   70.2614   86.9052   88.3977 C   0  0  0  0  0  0  0  0  0  0  0  0
   69.8843   88.2892   88.7896 C   0  0  0  0  0  0  0  0  0  0  0  0
   71.3438   87.9012   88.7193 C   0  0  0  0  0  0  0  0  0  0  0  0
   67.3197   78.3266   92.3481 C   0  0  0  0  0  0  0  0  0  0  0  0
   66.2805   77.4387   92.7474 O   0  0  0  0  0  0  0  0  0  0  0  0
   67.9295   74.4528   94.1773 C   0  0  0  0  0  0  0  0  0  0  0  0
   67.6176   75.5289   93.3629 C   0  0  0  0  0  0  0  0  0  0  0  0
   66.5544   76.3717   93.5919 C   0  0  0  0  0  0  0  0  0  0  0  0
   65.7620   76.1246   94.6931 C   0  0  0  0  0  0  0  0  0  0  0  0
   66.0634   75.0436   95.5239 C   0  0  0  0  0  0  0  0  0  0  0  0
   67.1329   74.2092   95.2795 C   0  0  0  0  0  0  0  0  0  0  0  0
   67.4384   73.1310   96.1031 O   0  0  0  0  0  0  0  0  0  0  0  0
   66.9089   72.9509   96.8549 H   0  0  0  0  0  0  0  0  0  0  0  0
   69.0182   72.3791   94.0264 O   0  0  0  0  0  0  0  0  0  0  0  0
   69.0797   73.6034   93.8631 C   0  0  0  0  0  0  0  0  0  0  0  0
   70.2439   74.1791   93.3794 O   0  0  0  0  0  0  0  0  0  0  0  0
   70.2914   75.1066   93.2553 H   0  0  0  0  0  0  0  0  0  0  0  0
 31 32  2  0  0  0
 32 33  1  0  0  0
 32 23  1  0  0  0
 23 24  2  0  0  0
 24 25  1  0  0  0
 25 22  1  0  0  0
 22 21  1  0  0  0
 21  1  1  0  0  0
  1  2  2  0  0  0
  2  3  1  0  0  0
  3  4  2  0  0  0
  4  5  1  0  0  0
  5  7  1  0  0  0
  7  8  2  0  0  0
  8  9  1  0  0  0
  9 10  2  0  0  0
 10 11  1  0  0  0
 11 13  1  0  0  0
 13 14  2  0  0  0
 13 15  2  0  0  0
 13 16  1  0  0  0
 16 18  1  0  0  0
 18 19  1  0  0  0
 19 20  1  0  0  0
 11 12  2  0  0  0
  5  6  2  0  0  0
 25 26  2  0  0  0
 26 27  1  0  0  0
 27 28  2  0  0  0
 28 29  1  0  0  0
 28 23  1  0  0  0
  6  1  1  0  0  0
 12  7  1  0  0  0
 20 18  1  0  0  0
 33 34  1  0  0  0
 16 17  1  0  0  0
 29 30  1  0  0  0
M  END
> <score>
-0.261525

> <minimizedAffinity>
-7.81894

> <CNNscore>
0.4742501080

> <CNNaffinity>
5.9933843613

> <CNN_VS>
2.8423631191

$$$$
HIPS6457


 34 37  0  0  0  0  0  0  0  0999 V2000
   67.5624   78.7502   90.1259 C   0  0  0  0  0  0  0  0  0  0  0  0
   66.4128   79.2116   89.5149 C   0  0  0  0  0  0  0  0  0  0  0  0
   66.4389   80.4551   88.9319 C   0  0  0  0  0  0  0  0  0  0  0  0
   67.5609   81.2511   88.9349 C   0  0  0  0  0  0  0  0  0  0  0  0
   68.7073   80.7929   89.5433 C   0  0  0  0  0  0  0  0  0  0  0  0
   68.6889   79.5465   90.1303 C   0  0  0  0  0  0  0  0  0  0  0  0
   69.8755   81.6594   89.5282 C   0  0  0  0  0  0  0  0  0  0  0  0
   70.9846   81.2572   90.2405 C   0  0  0  0  0  0  0  0  0  0  0  0
   72.1085   82.0707   90.2375 C   0  0  0  0  0  0  0  0  0  0  0  0
   72.1265   83.2620   89.5382 C   0  0  0  0  0  0  0  0  0  0  0  0
   71.0107   83.6849   88.8109 C   0  0  0  0  0  0  0  0  0  0  0  0
   69.9112   82.8521   88.8357 C   0  0  0  0  0  0  0  0  0  0  0  0
   71.0368   85.1977   87.9243 S   0  0  0  0  0  0  0  0  0  0  0  0
   72.4828   85.6174   87.8002 O   0  0  0  0  0  0  0  0  0  0  0  0
   70.4494   84.9460   86.5835 O   0  0  0  0  0  0  0  0  0  0  0  0
   70.1945   86.4444   88.7134 N   0  0  0  0  0  0  0  0  0  0  0  0
   70.0636   86.1709   89.6873 H   0  0  0  0  0  0  0  0  0  0  0  0
   70.8424   87.7152   88.6937 C   0  0  0  0  0  0  0  0  0  0  0  0
   69.9999   88.9045   88.3988 C   0  0  0  0  0  0  0  0  0  0  0  0
   70.4673   88.6490   89.8137 C   0  0  0  0  0  0  0  0  0  0  0  0
   67.5532   77.4165   90.7570 C   0  0  0  0  0  0  0  0  0  0  0  0
   66.6483   77.3610   91.8551 O   0  0  0  0  0  0  0  0  0  0  0  0
   68.0542   74.5442   93.7961 C   0  0  0  0  0  0  0  0  0  0  0  0
   67.8592   75.5186   92.8312 C   0  0  0  0  0  0  0  0  0  0  0  0
   66.8027   76.3999   92.8446 C   0  0  0  0  0  0  0  0  0  0  0  0
   65.8942   76.3009   93.8773 C   0  0  0  0  0  0  0  0  0  0  0  0
   66.0770   75.3239   94.8578 C   0  0  0  0  0  0  0  0  0  0  0  0
   67.1415   74.4488   94.8288 C   0  0  0  0  0  0  0  0  0  0  0  0
   67.3293   73.4735   95.8024 O   0  0  0  0  0  0  0  0  0  0  0  0
   66.7201   73.3945   96.5099 H   0  0  0  0  0  0  0  0  0  0  0  0
   70.3059   74.0686   93.3353 O   0  0  0  0  0  0  0  0  0  0  0  0
   69.2058   73.6444   93.7084 C   0  0  0  0  0  0  0  0  0  0  0  0
   69.0581   72.3087   94.0469 O   0  0  0  0  0  0  0  0  0  0  0  0
   68.2250   71.9864   94.3297 H   0  0  0  0  0  0  0  0  0  0  0  0
 31 32  2  0  0  0
 32 33  1  0  0  0
 32 23  1  0  0  0
 23 24  2  0  0  0
 24 25  1  0  0  0
 25 22  1  0  0  0
 22 21  1  0  0  0
 21  1  1  0  0  0
  1  2  2  0  0  0
  2  3  1  0  0  0
  3  4  2  0  0  0
  4  5  1  0  0  0
  5  7  1  0  0  0
  7  8  2  0  0  0
  8  9  1  0  0  0
  9 10  2  0  0  0
 10 11  1  0  0  0
 11 13  1  0  0  0
 13 14  2  0  0  0
 13 15  2  0  0  0
 13 16  1  0  0  0
 16 18  1  0  0  0
 18 19  1  0  0  0
 19 20  1  0  0  0
 11 12  2  0  0  0
  5  6  2  0  0  0
 25 26  2  0  0  0
 26 27  1  0  0  0
 27 28  2  0  0  0
 28 29  1  0  0  0
 28 23  1  0  0  0
  6  1  1  0  0  0
 12  7  1  0  0  0
 20 18  1  0  0  0
 33 34  1  0  0  0
 16 17  1  0  0  0
 29 30  1  0  0  0
M  END
> <score>
-0.261525

> <minimizedAffinity>
-8.25176

> <CNNscore>
0.4339969754

> <CNNaffinity>
5.9834756851

> <CNN_VS>
2.5968103409

$$$$
HIPS6457


 34 37  0  0  0  0  0  0  0  0999 V2000
   67.6910   77.9731   90.5856 C   0  0  0  0  0  0  0  0  0  0  0  0
   67.4197   76.9880   89.6562 C   0  0  0  0  0  0  0  0  0  0  0  0
   67.3055   77.3511   88.3364 C   0  0  0  0  0  0  0  0  0  0  0  0
   67.4506   78.6511   87.9107 C   0  0  0  0  0  0  0  0  0  0  0  0
   67.7209   79.6340   88.8354 C   0  0  0  0  0  0  0  0  0  0  0  0
   67.8370   79.2776   90.1613 C   0  0  0  0  0  0  0  0  0  0  0  0
   67.8685   80.9978   88.3516 C   0  0  0  0  0  0  0  0  0  0  0  0
   67.3719   81.2944   87.1008 C   0  0  0  0  0  0  0  0  0  0  0  0
   67.5032   82.5903   86.6227 C   0  0  0  0  0  0  0  0  0  0  0  0
   68.1178   83.5713   87.3767 C   0  0  0  0  0  0  0  0  0  0  0  0
   68.6269   83.2877   88.6467 C   0  0  0  0  0  0  0  0  0  0  0  0
   68.4792   81.9899   89.0906 C   0  0  0  0  0  0  0  0  0  0  0  0
   69.4065   84.5352   89.6013 S   0  0  0  0  0  0  0  0  0  0  0  0
   68.7055   85.8373   89.2919 O   0  0  0  0  0  0  0  0  0  0  0  0
   69.2389   84.1795   91.0335 O   0  0  0  0  0  0  0  0  0  0  0  0
   71.0532   84.7246   89.2287 N   0  0  0  0  0  0  0  0  0  0  0  0
   71.5080   85.1736   90.0237 H   0  0  0  0  0  0  0  0  0  0  0  0
   71.7502   83.5123   88.9466 C   0  0  0  0  0  0  0  0  0  0  0  0
   73.1511   83.4032   89.4333 C   0  0  0  0  0  0  0  0  0  0  0  0
   72.0503   82.6465   90.1413 C   0  0  0  0  0  0  0  0  0  0  0  0
   67.8178   77.6016   92.0080 C   0  0  0  0  0  0  0  0  0  0  0  0
   66.6792   76.8794   92.4659 O   0  0  0  0  0  0  0  0  0  0  0  0
   68.1205   74.2493   94.6302 C   0  0  0  0  0  0  0  0  0  0  0  0
   67.9504   75.1955   93.6331 C   0  0  0  0  0  0  0  0  0  0  0  0
   66.8042   75.9414   93.4814 C   0  0  0  0  0  0  0  0  0  0  0  0
   65.7747   75.7293   94.3740 C   0  0  0  0  0  0  0  0  0  0  0  0
   65.9308   74.7789   95.3849 C   0  0  0  0  0  0  0  0  0  0  0  0
   67.0865   74.0403   95.5222 C   0  0  0  0  0  0  0  0  0  0  0  0
   67.2482   73.0923   96.5269 O   0  0  0  0  0  0  0  0  0  0  0  0
   66.5573   72.9374   97.1406 H   0  0  0  0  0  0  0  0  0  0  0  0
   69.6105   72.7934   95.7113 O   0  0  0  0  0  0  0  0  0  0  0  0
   69.3731   73.4970   94.7224 C   0  0  0  0  0  0  0  0  0  0  0  0
   70.2967   73.5766   93.6922 O   0  0  0  0  0  0  0  0  0  0  0  0
   70.1177   74.1095   92.9426 H   0  0  0  0  0  0  0  0  0  0  0  0
 31 32  2  0  0  0
 32 33  1  0  0  0
 32 23  1  0  0  0
 23 24  2  0  0  0
 24 25  1  0  0  0
 25 22  1  0  0  0
 22 21  1  0  0  0
 21  1  1  0  0  0
  1  2  2  0  0  0
  2  3  1  0  0  0
  3  4  2  0  0  0
  4  5  1  0  0  0
  5  7  1  0  0  0
  7  8  2  0  0  0
  8  9  1  0  0  0
  9 10  2  0  0  0
 10 11  1  0  0  0
 11 13  1  0  0  0
 13 14  2  0  0  0
 13 15  2  0  0  0
 13 16  1  0  0  0
 16 18  1  0  0  0
 18 19  1  0  0  0
 19 20  1  0  0  0
 11 12  2  0  0  0
  5  6  2  0  0  0
 25 26  2  0  0  0
 26 27  1  0  0  0
 27 28  2  0  0  0
 28 29  1  0  0  0
 28 23  1  0  0  0
  6  1  1  0  0  0
 12  7  1  0  0  0
 20 18  1  0  0  0
 33 34  1  0  0  0
 16 17  1  0  0  0
 29 30  1  0  0  0
M  END
> <score>
-0.261525

> <minimizedAffinity>
-8.27822

> <CNNscore>
0.4124425948

> <CNNaffinity>
6.1047468185

> <CNN_VS>
2.5178575516

$$$$
HIPS6458


 42 45  0  0  0  0  0  0  0  0999 V2000
   67.4675   78.5938   89.3751 C   0  0  0  0  0  0  0  0  0  0  0  0
   66.8674   78.7290   90.6378 C   0  0  0  0  0  0  0  0  0  0  0  0
   67.0069   79.9144   91.3731 C   0  0  0  0  0  0  0  0  0  0  0  0
   67.7813   80.9617   90.8559 C   0  0  0  0  0  0  0  0  0  0  0  0
   68.4056   80.8426   89.6018 C   0  0  0  0  0  0  0  0  0  0  0  0
   68.2346   79.6562   88.8653 C   0  0  0  0  0  0  0  0  0  0  0  0
   66.9417   74.9809   87.1348 C   0  0  0  0  0  0  0  0  0  0  0  0
   66.9299   74.9840   88.4947 N   0  0  0  0  0  0  0  0  0  0  0  0
   67.0949   76.1162   89.2250 C   0  0  0  0  0  0  0  0  0  0  0  0
   67.2812   77.3500   88.5854 C   0  0  0  0  0  0  0  0  0  0  0  0
   67.2697   77.3796   87.1831 C   0  0  0  0  0  0  0  0  0  0  0  0
   67.0918   76.2045   86.4464 C   0  0  0  0  0  0  0  0  0  0  0  0
   66.9663   76.3462   84.6991 Cl  0  0  0  0  0  0  0  0  0  0  0  0
   66.7789   73.7469   86.4867 O   0  0  0  0  0  0  0  0  0  0  0  0
   66.9083   71.3133   86.2696 C   0  0  0  0  0  0  0  0  0  0  0  0
   66.4510   72.5053   87.1220 C   0  0  0  0  0  0  0  0  0  0  0  0
   67.1327   72.4682   88.4895 C   0  0  0  0  0  0  0  0  0  0  0  0
   69.2375   81.9517   89.0629 C   0  0  0  0  0  0  0  0  0  0  0  0
   68.7731   82.7484   88.0066 C   0  0  0  0  0  0  0  0  0  0  0  0
   69.5447   83.7505   87.5128 N   0  0  0  0  0  0  0  0  0  0  0  0
   70.7801   84.0380   88.0012 C   0  0  0  0  0  0  0  0  0  0  0  0
   71.3049   83.2405   89.0449 C   0  0  0  0  0  0  0  0  0  0  0  0
   72.9489   83.3857   89.6437 Cl  0  0  0  0  0  0  0  0  0  0  0  0
   70.5180   82.2127   89.5748 C   0  0  0  0  0  0  0  0  0  0  0  0
   71.4704   85.1100   87.4108 O   0  0  0  0  0  0  0  0  0  0  0  0
   71.4058   86.4867   87.7998 C   0  0  0  0  0  0  0  0  0  0  0  0
   72.7596   86.9757   88.3291 C   0  0  0  0  0  0  0  0  0  0  0  0
   70.3371   86.6315   88.8824 C   0  0  0  0  0  0  0  0  0  0  0  0
   66.3289   80.0745   92.7082 C   0  0  0  0  0  0  0  0  0  0  0  0
   66.9782   79.2752   93.6985 O   0  0  0  0  0  0  0  0  0  0  0  0
   67.0187   77.8702   93.7141 C   0  0  0  0  0  0  0  0  0  0  0  0
   65.8125   77.1779   93.8452 C   0  0  0  0  0  0  0  0  0  0  0  0
   65.7921   75.7828   93.8553 C   0  0  0  0  0  0  0  0  0  0  0  0
   66.9827   75.0527   93.7361 C   0  0  0  0  0  0  0  0  0  0  0  0
   66.9336   73.6583   93.7486 O   0  0  0  0  0  0  0  0  0  0  0  0
   68.2160   75.7333   93.6081 C   0  0  0  0  0  0  0  0  0  0  0  0
   68.2191   77.1421   93.6059 C   0  0  0  0  0  0  0  0  0  0  0  0
   66.1103   73.2193   93.8340 H   0  0  0  0  0  0  0  0  0  0  0  0
   69.5048   75.0048   93.4778 C   0  0  0  0  0  0  0  0  0  0  0  0
   70.3225   75.2927   92.5628 O   0  0  0  0  0  0  0  0  0  0  0  0
   69.8278   73.9900   94.3760 O   0  0  0  0  0  0  0  0  0  0  0  0
   69.2307   73.7639   95.0619 H   0  0  0  0  0  0  0  0  0  0  0  0
 15 16  1  0  0  0
 16 17  1  0  0  0
 16 14  1  0  0  0
 14  7  1  0  0  0
  7  8  2  0  0  0
  8  9  2  0  0  0
  9 10  2  0  0  0
 10  1  1  0  0  0
  1  2  2  0  0  0
  2  3  1  0  0  0
  3 29  1  0  0  0
 29 30  1  0  0  0
 30 31  1  0  0  0
 31 32  2  0  0  0
 32 33  1  0  0  0
 33 34  2  0  0  0
 34 35  1  0  0  0
 34 36  1  0  0  0
 36 39  1  0  0  0
 39 40  2  0  0  0
 39 41  1  0  0  0
 36 37  2  0  0  0
  3  4  2  0  0  0
  4  5  1  0  0  0
  5 18  1  0  0  0
 18 19  2  0  0  0
 19 20  2  0  0  0
 20 21  2  0  0  0
 21 25  1  0  0  0
 25 26  1  0  0  0
 26 27  1  0  0  0
 26 28  1  0  0  0
 21 22  1  0  0  0
 22 23  1  0  0  0
 22 24  2  0  0  0
  5  6  2  0  0  0
 10 11  1  0  0  0
 11 12  2  0  0  0
 12 13  1  0  0  0
 12  7  1  0  0  0
  6  1  1  0  0  0
 37 31  1  0  0  0
 24 18  1  0  0  0
 35 38  1  0  0  0
 41 42  1  0  0  0
M  END
> <score>
-0.954894

> <minimizedAffinity>
-9.21151

> <CNNscore>
0.7869037390

> <CNNaffinity>
8.0032072067

> <CNN_VS>
6.2977538109

$$$$
HIPS6458


 42 45  0  0  0  0  0  0  0  0999 V2000
   67.3104   77.4813   89.6109 C   0  0  0  0  0  0  0  0  0  0  0  0
   66.8156   77.2742   90.9089 C   0  0  0  0  0  0  0  0  0  0  0  0
   66.8669   78.2974   91.8660 C   0  0  0  0  0  0  0  0  0  0  0  0
   67.4487   79.5278   91.5319 C   0  0  0  0  0  0  0  0  0  0  0  0
   67.9660   79.7522   90.2440 C   0  0  0  0  0  0  0  0  0  0  0  0
   67.8836   78.7237   89.2876 C   0  0  0  0  0  0  0  0  0  0  0  0
   67.0492   74.3468   86.7029 C   0  0  0  0  0  0  0  0  0  0  0  0
   67.0212   74.0850   88.0371 N   0  0  0  0  0  0  0  0  0  0  0  0
   67.1029   75.0618   88.9761 C   0  0  0  0  0  0  0  0  0  0  0  0
   67.2154   76.4054   88.5915 C   0  0  0  0  0  0  0  0  0  0  0  0
   67.2186   76.7061   87.2215 C   0  0  0  0  0  0  0  0  0  0  0  0
   67.1268   75.6879   86.2675 C   0  0  0  0  0  0  0  0  0  0  0  0
   67.0128   76.1582   84.5780 Cl  0  0  0  0  0  0  0  0  0  0  0  0
   66.9754   73.2546   85.8249 O   0  0  0  0  0  0  0  0  0  0  0  0
   66.2933   71.0997   84.8881 C   0  0  0  0  0  0  0  0  0  0  0  0
   66.4810   71.9504   86.1521 C   0  0  0  0  0  0  0  0  0  0  0  0
   67.4780   71.2792   87.0963 C   0  0  0  0  0  0  0  0  0  0  0  0
   68.5946   81.0553   89.8981 C   0  0  0  0  0  0  0  0  0  0  0  0
   67.8479   82.0711   89.2842 C   0  0  0  0  0  0  0  0  0  0  0  0
   68.4333   83.2526   88.9607 N   0  0  0  0  0  0  0  0  0  0  0  0
   69.7431   83.5180   89.2087 C   0  0  0  0  0  0  0  0  0  0  0  0
   70.5449   82.5119   89.7964 C   0  0  0  0  0  0  0  0  0  0  0  0
   72.2822   82.6548   90.0052 Cl  0  0  0  0  0  0  0  0  0  0  0  0
   69.9548   81.2936   90.1488 C   0  0  0  0  0  0  0  0  0  0  0  0
   70.2228   84.7854   88.8372 O   0  0  0  0  0  0  0  0  0  0  0  0
   69.6497   85.6648   87.8630 C   0  0  0  0  0  0  0  0  0  0  0  0
   70.2638   85.4300   86.4774 C   0  0  0  0  0  0  0  0  0  0  0  0
   69.8986   87.1050   88.3088 C   0  0  0  0  0  0  0  0  0  0  0  0
   66.2986   78.0888   93.2448 C   0  0  0  0  0  0  0  0  0  0  0  0
   65.8471   76.7424   93.4019 O   0  0  0  0  0  0  0  0  0  0  0  0
   66.4841   75.7534   94.1713 C   0  0  0  0  0  0  0  0  0  0  0  0
   65.9269   75.4212   95.4086 C   0  0  0  0  0  0  0  0  0  0  0  0
   66.5107   74.4389   96.2092 C   0  0  0  0  0  0  0  0  0  0  0  0
   67.6677   73.7704   95.7859 C   0  0  0  0  0  0  0  0  0  0  0  0
   68.2306   72.7919   96.6060 O   0  0  0  0  0  0  0  0  0  0  0  0
   68.2520   74.0951   94.5393 C   0  0  0  0  0  0  0  0  0  0  0  0
   67.6531   75.0936   93.7462 C   0  0  0  0  0  0  0  0  0  0  0  0
   67.8340   72.5860   97.4295 H   0  0  0  0  0  0  0  0  0  0  0  0
   69.4775   73.4146   94.0458 C   0  0  0  0  0  0  0  0  0  0  0  0
   70.2784   74.0034   93.2708 O   0  0  0  0  0  0  0  0  0  0  0  0
   69.7590   72.1088   94.4413 O   0  0  0  0  0  0  0  0  0  0  0  0
   69.1738   71.6572   95.0171 H   0  0  0  0  0  0  0  0  0  0  0  0
 15 16  1  0  0  0
 16 17  1  0  0  0
 16 14  1  0  0  0
 14  7  1  0  0  0
  7  8  2  0  0  0
  8  9  2  0  0  0
  9 10  2  0  0  0
 10  1  1  0  0  0
  1  2  2  0  0  0
  2  3  1  0  0  0
  3 29  1  0  0  0
 29 30  1  0  0  0
 30 31  1  0  0  0
 31 32  2  0  0  0
 32 33  1  0  0  0
 33 34  2  0  0  0
 34 35  1  0  0  0
 34 36  1  0  0  0
 36 39  1  0  0  0
 39 40  2  0  0  0
 39 41  1  0  0  0
 36 37  2  0  0  0
  3  4  2  0  0  0
  4  5  1  0  0  0
  5 18  1  0  0  0
 18 19  2  0  0  0
 19 20  2  0  0  0
 20 21  2  0  0  0
 21 25  1  0  0  0
 25 26  1  0  0  0
 26 27  1  0  0  0
 26 28  1  0  0  0
 21 22  1  0  0  0
 22 23  1  0  0  0
 22 24  2  0  0  0
  5  6  2  0  0  0
 10 11  1  0  0  0
 11 12  2  0  0  0
 12 13  1  0  0  0
 12  7  1  0  0  0
  6  1  1  0  0  0
 37 31  1  0  0  0
 24 18  1  0  0  0
 35 38  1  0  0  0
 41 42  1  0  0  0
M  END
> <score>
-0.954894

> <minimizedAffinity>
-8.63854

> <CNNscore>
0.6750921011

> <CNNaffinity>
7.8040075302

> <CNN_VS>
5.2684240341

$$$$
HIPS6458


 42 45  0  0  0  0  0  0  0  0999 V2000
   68.2894   79.8152   89.9369 C   0  0  0  0  0  0  0  0  0  0  0  0
   67.8320   79.7944   91.2647 C   0  0  0  0  0  0  0  0  0  0  0  0
   67.2036   78.6554   91.7873 C   0  0  0  0  0  0  0  0  0  0  0  0
   67.0008   77.5390   90.9648 C   0  0  0  0  0  0  0  0  0  0  0  0
   67.4347   77.5432   89.6274 C   0  0  0  0  0  0  0  0  0  0  0  0
   68.0864   78.6848   89.1259 C   0  0  0  0  0  0  0  0  0  0  0  0
   70.2802   83.2660   88.3627 C   0  0  0  0  0  0  0  0  0  0  0  0
   69.0108   82.9460   87.9945 N   0  0  0  0  0  0  0  0  0  0  0  0
   68.3607   81.8577   88.4798 C   0  0  0  0  0  0  0  0  0  0  0  0
   68.9900   81.0112   89.4036 C   0  0  0  0  0  0  0  0  0  0  0  0
   70.2894   81.3334   89.8219 C   0  0  0  0  0  0  0  0  0  0  0  0
   70.9420   82.4622   89.3167 C   0  0  0  0  0  0  0  0  0  0  0  0
   72.5175   82.8630   89.9844 Cl  0  0  0  0  0  0  0  0  0  0  0  0
   70.8575   84.4054   87.7816 O   0  0  0  0  0  0  0  0  0  0  0  0
   72.1766   86.4407   88.1040 C   0  0  0  0  0  0  0  0  0  0  0  0
   70.8368   85.7274   88.3333 C   0  0  0  0  0  0  0  0  0  0  0  0
   69.7029   86.5092   87.6704 C   0  0  0  0  0  0  0  0  0  0  0  0
   67.2053   76.3610   88.7543 C   0  0  0  0  0  0  0  0  0  0  0  0
   66.9858   75.0919   89.3087 C   0  0  0  0  0  0  0  0  0  0  0  0
   66.7899   74.0164   88.5037 N   0  0  0  0  0  0  0  0  0  0  0  0
   66.7906   74.1017   87.1471 C   0  0  0  0  0  0  0  0  0  0  0  0
   67.0407   75.3551   86.5414 C   0  0  0  0  0  0  0  0  0  0  0  0
   67.2478   75.5725   84.8116 Cl  0  0  0  0  0  0  0  0  0  0  0  0
   67.2309   76.4764   87.3558 C   0  0  0  0  0  0  0  0  0  0  0  0
   66.5619   72.9157   86.4291 O   0  0  0  0  0  0  0  0  0  0  0  0
   67.5559   72.0425   85.8814 C   0  0  0  0  0  0  0  0  0  0  0  0
   67.3335   71.8249   84.3796 C   0  0  0  0  0  0  0  0  0  0  0  0
   67.4835   70.7069   86.6203 C   0  0  0  0  0  0  0  0  0  0  0  0
   66.7508   78.6184   93.2230 C   0  0  0  0  0  0  0  0  0  0  0  0
   66.0142   77.4225   93.4851 O   0  0  0  0  0  0  0  0  0  0  0  0
   66.4799   76.3247   94.2292 C   0  0  0  0  0  0  0  0  0  0  0  0
   65.6505   75.8055   95.2263 C   0  0  0  0  0  0  0  0  0  0  0  0
   66.0568   74.7095   95.9881 C   0  0  0  0  0  0  0  0  0  0  0  0
   67.3055   74.1124   95.7667 C   0  0  0  0  0  0  0  0  0  0  0  0
   67.6867   73.0172   96.5427 O   0  0  0  0  0  0  0  0  0  0  0  0
   68.1637   74.6256   94.7663 C   0  0  0  0  0  0  0  0  0  0  0  0
   67.7403   75.7364   94.0104 C   0  0  0  0  0  0  0  0  0  0  0  0
   67.1092   72.6867   97.2023 H   0  0  0  0  0  0  0  0  0  0  0  0
   69.4964   74.0273   94.4927 C   0  0  0  0  0  0  0  0  0  0  0  0
   70.1087   73.3751   95.3808 O   0  0  0  0  0  0  0  0  0  0  0  0
   70.0862   74.1782   93.2397 O   0  0  0  0  0  0  0  0  0  0  0  0
   69.6440   74.6601   92.5687 H   0  0  0  0  0  0  0  0  0  0  0  0
 15 16  1  0  0  0
 16 17  1  0  0  0
 16 14  1  0  0  0
 14  7  1  0  0  0
  7  8  2  0  0  0
  8  9  2  0  0  0
  9 10  2  0  0  0
 10  1  1  0  0  0
  1  2  2  0  0  0
  2  3  1  0  0  0
  3 29  1  0  0  0
 29 30  1  0  0  0
 30 31  1  0  0  0
 31 32  2  0  0  0
 32 33  1  0  0  0
 33 34  2  0  0  0
 34 35  1  0  0  0
 34 36  1  0  0  0
 36 39  1  0  0  0
 39 40  2  0  0  0
 39 41  1  0  0  0
 36 37  2  0  0  0
  3  4  2  0  0  0
  4  5  1  0  0  0
  5 18  1  0  0  0
 18 19  2  0  0  0
 19 20  2  0  0  0
 20 21  2  0  0  0
 21 25  1  0  0  0
 25 26  1  0  0  0
 26 27  1  0  0  0
 26 28  1  0  0  0
 21 22  1  0  0  0
 22 23  1  0  0  0
 22 24  2  0  0  0
  5  6  2  0  0  0
 10 11  1  0  0  0
 11 12  2  0  0  0
 12 13  1  0  0  0
 12  7  1  0  0  0
  6  1  1  0  0  0
 37 31  1  0  0  0
 24 18  1  0  0  0
 35 38  1  0  0  0
 41 42  1  0  0  0
M  END
> <score>
-0.954894

> <minimizedAffinity>
-9.03036

> <CNNscore>
0.6063944697

> <CNNaffinity>
7.6928644180

> <CNN_VS>
4.6649103165

$$$$
HIPS6459


 28 30  0  0  0  0  0  0  0  0999 V2000
   67.1364   79.0601   90.3379 C   0  0  0  0  0  0  0  0  0  0  0  0
   66.9347   80.0602   89.5296 N   0  0  0  0  0  0  0  0  0  0  0  0
   69.9308   76.9683   91.8377 C   0  0  0  0  0  0  0  0  0  0  0  0
   68.6681   77.5464   91.6196 C   0  0  0  0  0  0  0  0  0  0  0  0
   68.4605   78.4471   90.5637 C   0  0  0  0  0  0  0  0  0  0  0  0
   69.5385   78.8181   89.7544 C   0  0  0  0  0  0  0  0  0  0  0  0
   70.8022   78.2676   89.9716 C   0  0  0  0  0  0  0  0  0  0  0  0
   71.0161   77.3566   91.0125 C   0  0  0  0  0  0  0  0  0  0  0  0
   72.3190   76.8958   91.2150 O   0  0  0  0  0  0  0  0  0  0  0  0
   73.0089   77.1767   90.6466 H   0  0  0  0  0  0  0  0  0  0  0  0
   70.3586   74.7673   92.6441 O   0  0  0  0  0  0  0  0  0  0  0  0
   70.0637   75.9624   92.9132 C   0  0  0  0  0  0  0  0  0  0  0  0
   69.8040   76.3221   94.2328 O   0  0  0  0  0  0  0  0  0  0  0  0
   69.5840   77.2085   94.4421 H   0  0  0  0  0  0  0  0  0  0  0  0
   67.9569   80.7482   88.8518 N   0  0  0  0  0  0  0  0  0  0  0  0
   68.1277   82.1555   89.0463 C   0  0  0  0  0  0  0  0  0  0  0  0
   67.3579   82.7785   89.8267 O   0  0  0  0  0  0  0  0  0  0  0  0
   68.5564   80.2604   88.2420 H   0  0  0  0  0  0  0  0  0  0  0  0
   69.2456   82.8748   88.3963 C   0  0  0  0  0  0  0  0  0  0  0  0
   68.9718   83.5822   87.2144 C   0  0  0  0  0  0  0  0  0  0  0  0
   69.9585   84.3495   86.5963 C   0  0  0  0  0  0  0  0  0  0  0  0
   71.2379   84.4227   87.1433 C   0  0  0  0  0  0  0  0  0  0  0  0
   71.5512   83.7049   88.3056 C   0  0  0  0  0  0  0  0  0  0  0  0
   72.8494   83.7639   88.8369 C   0  0  0  0  0  0  0  0  0  0  0  0
   73.1796   83.0224   89.9717 C   0  0  0  0  0  0  0  0  0  0  0  0
   72.2247   82.2061   90.5766 C   0  0  0  0  0  0  0  0  0  0  0  0
   70.9272   82.1388   90.0634 C   0  0  0  0  0  0  0  0  0  0  0  0
   70.5590   82.9062   88.9375 C   0  0  0  0  0  0  0  0  0  0  0  0
 11 12  2  0  0  0
 12 13  1  0  0  0
 12  3  1  0  0  0
  3  4  2  0  0  0
  4  5  1  0  0  0
  5  1  1  0  0  0
  1  2  2  0  0  0
  2 15  1  0  0  0
 15 16  1  0  0  0
 16 17  2  0  0  0
 16 19  1  0  0  0
 19 20  2  0  0  0
 20 21  1  0  0  0
 21 22  2  0  0  0
 22 23  1  0  0  0
 23 24  2  0  0  0
 24 25  1  0  0  0
 25 26  2  0  0  0
 26 27  1  0  0  0
 27 28  2  0  0  0
  5  6  2  0  0  0
  6  7  1  0  0  0
  7  8  2  0  0  0
  8  9  1  0  0  0
  8  3  1  0  0  0
 28 19  1  0  0  0
 28 23  1  0  0  0
 13 14  1  0  0  0
 15 18  1  0  0  0
  9 10  1  0  0  0
M  END
> <score>
0.863171

> <minimizedAffinity>
-8.70390

> <CNNscore>
0.7230723500

> <CNNaffinity>
5.7014255524

> <CNN_VS>
4.1225433350

$$$$
HIPS6459


 28 30  0  0  0  0  0  0  0  0999 V2000
   68.1337   77.7914   88.9708 C   0  0  0  0  0  0  0  0  0  0  0  0
   67.6614   78.9498   88.6113 N   0  0  0  0  0  0  0  0  0  0  0  0
   70.2256   76.7371   91.9619 C   0  0  0  0  0  0  0  0  0  0  0  0
   69.1408   76.8892   91.0808 C   0  0  0  0  0  0  0  0  0  0  0  0
   69.2743   77.6255   89.8937 C   0  0  0  0  0  0  0  0  0  0  0  0
   70.4859   78.2643   89.6134 C   0  0  0  0  0  0  0  0  0  0  0  0
   71.5652   78.1390   90.4887 C   0  0  0  0  0  0  0  0  0  0  0  0
   71.4470   77.3939   91.6678 C   0  0  0  0  0  0  0  0  0  0  0  0
   72.5448   77.3650   92.5309 O   0  0  0  0  0  0  0  0  0  0  0  0
   73.3347   77.8125   92.2993 H   0  0  0  0  0  0  0  0  0  0  0  0
   69.9152   76.3867   94.2983 O   0  0  0  0  0  0  0  0  0  0  0  0
   70.0453   75.8791   93.1524 C   0  0  0  0  0  0  0  0  0  0  0  0
   70.0776   74.4938   93.0181 O   0  0  0  0  0  0  0  0  0  0  0  0
   70.1740   74.1074   92.1699 H   0  0  0  0  0  0  0  0  0  0  0  0
   68.1034   80.1799   89.1300 N   0  0  0  0  0  0  0  0  0  0  0  0
   67.8053   81.3988   88.4423 C   0  0  0  0  0  0  0  0  0  0  0  0
   67.1459   81.3674   87.3681 O   0  0  0  0  0  0  0  0  0  0  0  0
   68.6191   80.2025   89.9683 H   0  0  0  0  0  0  0  0  0  0  0  0
   68.2009   82.7035   89.0175 C   0  0  0  0  0  0  0  0  0  0  0  0
   67.5270   83.1449   90.1678 C   0  0  0  0  0  0  0  0  0  0  0  0
   67.9056   84.3237   90.8093 C   0  0  0  0  0  0  0  0  0  0  0  0
   68.9609   85.0864   90.3134 C   0  0  0  0  0  0  0  0  0  0  0  0
   69.6345   84.6885   89.1505 C   0  0  0  0  0  0  0  0  0  0  0  0
   70.6807   85.4753   88.6429 C   0  0  0  0  0  0  0  0  0  0  0  0
   71.3309   85.1062   87.4650 C   0  0  0  0  0  0  0  0  0  0  0  0
   70.9349   83.9603   86.7765 C   0  0  0  0  0  0  0  0  0  0  0  0
   69.8986   83.1639   87.2697 C   0  0  0  0  0  0  0  0  0  0  0  0
   69.2487   83.4968   88.4776 C   0  0  0  0  0  0  0  0  0  0  0  0
 11 12  2  0  0  0
 12 13  1  0  0  0
 12  3  1  0  0  0
  3  4  2  0  0  0
  4  5  1  0  0  0
  5  1  1  0  0  0
  1  2  2  0  0  0
  2 15  1  0  0  0
 15 16  1  0  0  0
 16 17  2  0  0  0
 16 19  1  0  0  0
 19 20  2  0  0  0
 20 21  1  0  0  0
 21 22  2  0  0  0
 22 23  1  0  0  0
 23 24  2  0  0  0
 24 25  1  0  0  0
 25 26  2  0  0  0
 26 27  1  0  0  0
 27 28  2  0  0  0
  5  6  2  0  0  0
  6  7  1  0  0  0
  7  8  2  0  0  0
  8  9  1  0  0  0
  8  3  1  0  0  0
 28 19  1  0  0  0
 28 23  1  0  0  0
 13 14  1  0  0  0
 15 18  1  0  0  0
  9 10  1  0  0  0
M  END
> <score>
0.863171

> <minimizedAffinity>
-7.83122

> <CNNscore>
0.6071024537

> <CNNaffinity>
5.5117301941

> <CNN_VS>
3.3461849689

$$$$
HIPS6459


 28 30  0  0  0  0  0  0  0  0999 V2000
   67.7197   73.8088   89.5325 C   0  0  0  0  0  0  0  0  0  0  0  0
   67.2193   74.7866   88.8341 N   0  0  0  0  0  0  0  0  0  0  0  0
   69.1628   74.8760   92.8810 C   0  0  0  0  0  0  0  0  0  0  0  0
   68.9124   74.8027   91.4996 C   0  0  0  0  0  0  0  0  0  0  0  0
   67.9786   73.8911   90.9838 C   0  0  0  0  0  0  0  0  0  0  0  0
   67.3321   73.0046   91.8503 C   0  0  0  0  0  0  0  0  0  0  0  0
   67.5856   73.0520   93.2216 C   0  0  0  0  0  0  0  0  0  0  0  0
   68.5038   73.9682   93.7478 C   0  0  0  0  0  0  0  0  0  0  0  0
   68.7590   73.9167   95.1201 O   0  0  0  0  0  0  0  0  0  0  0  0
   68.3017   73.3015   95.6589 H   0  0  0  0  0  0  0  0  0  0  0  0
   70.9480   76.4286   92.5978 O   0  0  0  0  0  0  0  0  0  0  0  0
   70.0943   75.9151   93.3694 C   0  0  0  0  0  0  0  0  0  0  0  0
   70.0702   76.2912   94.7096 O   0  0  0  0  0  0  0  0  0  0  0  0
   69.4389   75.9146   95.2906 H   0  0  0  0  0  0  0  0  0  0  0  0
   66.7674   76.0001   89.3824 N   0  0  0  0  0  0  0  0  0  0  0  0
   67.4426   77.2236   89.0747 C   0  0  0  0  0  0  0  0  0  0  0  0
   68.4457   77.2111   88.3109 O   0  0  0  0  0  0  0  0  0  0  0  0
   65.9847   76.0079   89.9794 H   0  0  0  0  0  0  0  0  0  0  0  0
   66.9311   78.5146   89.5860 C   0  0  0  0  0  0  0  0  0  0  0  0
   66.5240   79.4770   88.6479 C   0  0  0  0  0  0  0  0  0  0  0  0
   65.9548   80.6811   89.0609 C   0  0  0  0  0  0  0  0  0  0  0  0
   65.7845   80.9496   90.4174 C   0  0  0  0  0  0  0  0  0  0  0  0
   66.2075   80.0222   91.3794 C   0  0  0  0  0  0  0  0  0  0  0  0
   66.0553   80.3106   92.7450 C   0  0  0  0  0  0  0  0  0  0  0  0
   66.5083   79.4096   93.7091 C   0  0  0  0  0  0  0  0  0  0  0  0
   67.1291   78.2229   93.3212 C   0  0  0  0  0  0  0  0  0  0  0  0
   67.2850   77.9185   91.9668 C   0  0  0  0  0  0  0  0  0  0  0  0
   66.8036   78.7971   90.9726 C   0  0  0  0  0  0  0  0  0  0  0  0
 11 12  2  0  0  0
 12 13  1  0  0  0
 12  3  1  0  0  0
  3  4  2  0  0  0
  4  5  1  0  0  0
  5  1  1  0  0  0
  1  2  2  0  0  0
  2 15  1  0  0  0
 15 16  1  0  0  0
 16 17  2  0  0  0
 16 19  1  0  0  0
 19 20  2  0  0  0
 20 21  1  0  0  0
 21 22  2  0  0  0
 22 23  1  0  0  0
 23 24  2  0  0  0
 24 25  1  0  0  0
 25 26  2  0  0  0
 26 27  1  0  0  0
 27 28  2  0  0  0
  5  6  2  0  0  0
  6  7  1  0  0  0
  7  8  2  0  0  0
  8  9  1  0  0  0
  8  3  1  0  0  0
 28 19  1  0  0  0
 28 23  1  0  0  0
 13 14  1  0  0  0
 15 18  1  0  0  0
  9 10  1  0  0  0
M  END
> <score>
0.863171

> <minimizedAffinity>
-7.07671

> <CNNscore>
0.5207280517

> <CNNaffinity>
5.5717649460

> <CNN_VS>
2.9013743401

$$$$
HIPS6546


 35 37  0  0  0  0  0  0  0  0999 V2000
   67.9401   80.8173   89.9930 C   0  0  0  0  0  0  0  0  0  0  0  0
   67.2443   81.1195   91.1772 C   0  0  0  0  0  0  0  0  0  0  0  0
   66.1951   80.3048   91.6088 C   0  0  0  0  0  0  0  0  0  0  0  0
   65.8299   79.1789   90.8691 C   0  0  0  0  0  0  0  0  0  0  0  0
   66.5157   78.8557   89.6894 C   0  0  0  0  0  0  0  0  0  0  0  0
   67.5615   79.6839   89.2500 C   0  0  0  0  0  0  0  0  0  0  0  0
   71.1857   83.3103   88.6669 C   0  0  0  0  0  0  0  0  0  0  0  0
   70.0299   83.1843   87.8858 C   0  0  0  0  0  0  0  0  0  0  0  0
   68.9753   82.3743   88.3161 C   0  0  0  0  0  0  0  0  0  0  0  0
   69.0605   81.6783   89.5360 C   0  0  0  0  0  0  0  0  0  0  0  0
   70.2237   81.8131   90.3156 C   0  0  0  0  0  0  0  0  0  0  0  0
   71.2757   82.6257   89.8842 C   0  0  0  0  0  0  0  0  0  0  0  0
   72.5114   84.3516   88.1533 S   0  0  0  0  0  0  0  0  0  0  0  0
   73.3149   83.6906   87.0667 O   0  0  0  0  0  0  0  0  0  0  0  0
   73.4155   84.5911   89.3291 O   0  0  0  0  0  0  0  0  0  0  0  0
   71.9102   85.8407   87.6118 O   0  0  0  0  0  0  0  0  0  0  0  0
   71.5199   86.6066   88.7297 C   0  0  0  0  0  0  0  0  0  0  0  0
   69.2381   86.3843   89.8036 C   0  0  0  0  0  0  0  0  0  0  0  0
   70.0248   86.9894   88.6235 C   0  0  0  0  0  0  0  0  0  0  0  0
   69.8921   88.5246   88.6651 C   0  0  0  0  0  0  0  0  0  0  0  0
   69.4410   86.4696   87.2938 C   0  0  0  0  0  0  0  0  0  0  0  0
   66.1171   77.6382   88.8975 C   0  0  0  0  0  0  0  0  0  0  0  0
   67.2599   76.8391   88.5884 O   0  0  0  0  0  0  0  0  0  0  0  0
   67.7210   75.7505   89.3474 C   0  0  0  0  0  0  0  0  0  0  0  0
   67.2783   74.4724   89.0012 C   0  0  0  0  0  0  0  0  0  0  0  0
   67.6875   73.3579   89.7330 C   0  0  0  0  0  0  0  0  0  0  0  0
   68.5478   73.4986   90.8268 C   0  0  0  0  0  0  0  0  0  0  0  0
   68.8543   72.3522   91.5633 O   0  0  0  0  0  0  0  0  0  0  0  0
   69.0437   74.7824   91.1663 C   0  0  0  0  0  0  0  0  0  0  0  0
   68.6093   75.8989   90.4290 C   0  0  0  0  0  0  0  0  0  0  0  0
   68.5054   71.5220   91.3046 H   0  0  0  0  0  0  0  0  0  0  0  0
   70.0248   74.9997   92.2522 C   0  0  0  0  0  0  0  0  0  0  0  0
   70.0642   74.2301   93.2492 O   0  0  0  0  0  0  0  0  0  0  0  0
   70.9559   76.0294   92.1474 O   0  0  0  0  0  0  0  0  0  0  0  0
   70.9348   76.6069   91.4098 H   0  0  0  0  0  0  0  0  0  0  0  0
 18 19  1  0  0  0
 19 20  1  0  0  0
 19 21  1  0  0  0
 19 17  1  0  0  0
 17 16  1  0  0  0
 16 13  1  0  0  0
 13 14  2  0  0  0
 13 15  2  0  0  0
 13  7  1  0  0  0
  7  8  2  0  0  0
  8  9  1  0  0  0
  9 10  2  0  0  0
 10  1  1  0  0  0
  1  2  2  0  0  0
  2  3  1  0  0  0
  3  4  2  0  0  0
  4  5  1  0  0  0
  5 22  1  0  0  0
 22 23  1  0  0  0
 23 24  1  0  0  0
 24 25  2  0  0  0
 25 26  1  0  0  0
 26 27  2  0  0  0
 27 28  1  0  0  0
 27 29  1  0  0  0
 29 32  1  0  0  0
 32 33  2  0  0  0
 32 34  1  0  0  0
 29 30  2  0  0  0
  5  6  2  0  0  0
 10 11  1  0  0  0
 11 12  2  0  0  0
 12  7  1  0  0  0
  6  1  1  0  0  0
 30 24  1  0  0  0
 28 31  1  0  0  0
 34 35  1  0  0  0
M  END
> <score>
-0.51205

> <minimizedAffinity>
-7.55522

> <CNNscore>
0.5010586381

> <CNNaffinity>
6.3704395294

> <CNN_VS>
3.1919636726

$$$$
HIPS6546


 35 37  0  0  0  0  0  0  0  0999 V2000
   66.9529   76.1972   93.8174 C   0  0  0  0  0  0  0  0  0  0  0  0
   65.7508   75.8041   94.4322 C   0  0  0  0  0  0  0  0  0  0  0  0
   65.7350   74.7448   95.3425 C   0  0  0  0  0  0  0  0  0  0  0  0
   66.9156   74.0684   95.6536 C   0  0  0  0  0  0  0  0  0  0  0  0
   68.1263   74.4495   95.0574 C   0  0  0  0  0  0  0  0  0  0  0  0
   68.1375   75.5060   94.1320 C   0  0  0  0  0  0  0  0  0  0  0  0
   67.0135   79.4713   91.0273 C   0  0  0  0  0  0  0  0  0  0  0  0
   67.1971   78.1580   90.5762 C   0  0  0  0  0  0  0  0  0  0  0  0
   67.1778   77.0940   91.4822 C   0  0  0  0  0  0  0  0  0  0  0  0
   66.9731   77.3277   92.8546 C   0  0  0  0  0  0  0  0  0  0  0  0
   66.7864   78.6494   93.2986 C   0  0  0  0  0  0  0  0  0  0  0  0
   66.8037   79.7113   92.3900 C   0  0  0  0  0  0  0  0  0  0  0  0
   67.0046   80.8206   89.8939 S   0  0  0  0  0  0  0  0  0  0  0  0
   66.6342   82.0995   90.5943 O   0  0  0  0  0  0  0  0  0  0  0  0
   65.9757   80.5485   88.8334 O   0  0  0  0  0  0  0  0  0  0  0  0
   68.5229   80.9764   89.1573 O   0  0  0  0  0  0  0  0  0  0  0  0
   69.5126   81.0192   90.1609 C   0  0  0  0  0  0  0  0  0  0  0  0
   70.0548   83.0070   88.6899 C   0  0  0  0  0  0  0  0  0  0  0  0
   70.3502   82.3136   90.0352 C   0  0  0  0  0  0  0  0  0  0  0  0
   69.9787   83.2697   91.1859 C   0  0  0  0  0  0  0  0  0  0  0  0
   71.8534   81.9793   90.1241 C   0  0  0  0  0  0  0  0  0  0  0  0
   69.3964   73.7160   95.3994 C   0  0  0  0  0  0  0  0  0  0  0  0
   70.2188   73.5613   94.2419 O   0  0  0  0  0  0  0  0  0  0  0  0
   70.2494   72.4289   93.4108 C   0  0  0  0  0  0  0  0  0  0  0  0
   69.5948   72.4984   92.1796 C   0  0  0  0  0  0  0  0  0  0  0  0
   69.5753   71.3973   91.3238 C   0  0  0  0  0  0  0  0  0  0  0  0
   70.2099   70.2035   91.6820 C   0  0  0  0  0  0  0  0  0  0  0  0
   70.0842   69.1160   90.8147 O   0  0  0  0  0  0  0  0  0  0  0  0
   70.9178   70.1278   92.9077 C   0  0  0  0  0  0  0  0  0  0  0  0
   70.9149   71.2411   93.7676 C   0  0  0  0  0  0  0  0  0  0  0  0
   69.6073   69.2084   90.0134 H   0  0  0  0  0  0  0  0  0  0  0  0
   71.6869   68.9313   93.3149 C   0  0  0  0  0  0  0  0  0  0  0  0
   72.4320   68.3332   92.4933 O   0  0  0  0  0  0  0  0  0  0  0  0
   71.6359   68.4925   94.6352 O   0  0  0  0  0  0  0  0  0  0  0  0
   71.0849   68.9306   95.2536 H   0  0  0  0  0  0  0  0  0  0  0  0
 18 19  1  0  0  0
 19 20  1  0  0  0
 19 21  1  0  0  0
 19 17  1  0  0  0
 17 16  1  0  0  0
 16 13  1  0  0  0
 13 14  2  0  0  0
 13 15  2  0  0  0
 13  7  1  0  0  0
  7  8  2  0  0  0
  8  9  1  0  0  0
  9 10  2  0  0  0
 10  1  1  0  0  0
  1  2  2  0  0  0
  2  3  1  0  0  0
  3  4  2  0  0  0
  4  5  1  0  0  0
  5 22  1  0  0  0
 22 23  1  0  0  0
 23 24  1  0  0  0
 24 25  2  0  0  0
 25 26  1  0  0  0
 26 27  2  0  0  0
 27 28  1  0  0  0
 27 29  1  0  0  0
 29 32  1  0  0  0
 32 33  2  0  0  0
 32 34  1  0  0  0
 29 30  2  0  0  0
  5  6  2  0  0  0
 10 11  1  0  0  0
 11 12  2  0  0  0
 12  7  1  0  0  0
  6  1  1  0  0  0
 30 24  1  0  0  0
 28 31  1  0  0  0
 34 35  1  0  0  0
M  END
> <score>
-0.51205

> <minimizedAffinity>
-8.00500

> <CNNscore>
0.4347126782

> <CNNaffinity>
6.2068319321

> <CNN_VS>
2.6981885433

$$$$
HIPS6546


 35 37  0  0  0  0  0  0  0  0999 V2000
   67.2994   78.1938   87.4393 C   0  0  0  0  0  0  0  0  0  0  0  0
   67.5717   77.8918   86.0930 C   0  0  0  0  0  0  0  0  0  0  0  0
   67.4928   76.5753   85.6332 C   0  0  0  0  0  0  0  0  0  0  0  0
   67.1381   75.5462   86.5070 C   0  0  0  0  0  0  0  0  0  0  0  0
   66.8554   75.8269   87.8514 C   0  0  0  0  0  0  0  0  0  0  0  0
   66.9487   77.1495   88.3148 C   0  0  0  0  0  0  0  0  0  0  0  0
   67.5190   82.2492   88.8581 C   0  0  0  0  0  0  0  0  0  0  0  0
   67.4346   81.1881   89.7685 C   0  0  0  0  0  0  0  0  0  0  0  0
   67.3630   79.8704   89.3081 C   0  0  0  0  0  0  0  0  0  0  0  0
   67.3759   79.5938   87.9285 C   0  0  0  0  0  0  0  0  0  0  0  0
   67.4640   80.6653   87.0213 C   0  0  0  0  0  0  0  0  0  0  0  0
   67.5381   81.9818   87.4845 C   0  0  0  0  0  0  0  0  0  0  0  0
   67.6409   83.9139   89.4230 S   0  0  0  0  0  0  0  0  0  0  0  0
   66.7801   84.1261   90.6385 O   0  0  0  0  0  0  0  0  0  0  0  0
   67.1523   84.8263   88.3339 O   0  0  0  0  0  0  0  0  0  0  0  0
   69.2539   84.2959   89.7755 O   0  0  0  0  0  0  0  0  0  0  0  0
   70.0944   83.3930   89.0922 C   0  0  0  0  0  0  0  0  0  0  0  0
   70.6802   83.0641   91.5331 C   0  0  0  0  0  0  0  0  0  0  0  0
   71.0627   82.7049   90.0831 C   0  0  0  0  0  0  0  0  0  0  0  0
   70.9694   81.1770   89.9023 C   0  0  0  0  0  0  0  0  0  0  0  0
   72.5108   83.1572   89.8046 C   0  0  0  0  0  0  0  0  0  0  0  0
   66.4718   74.7114   88.7878 C   0  0  0  0  0  0  0  0  0  0  0  0
   67.5831   73.8465   89.0266 O   0  0  0  0  0  0  0  0  0  0  0  0
   68.3269   73.7870   90.2169 C   0  0  0  0  0  0  0  0  0  0  0  0
   68.4662   72.5477   90.8447 C   0  0  0  0  0  0  0  0  0  0  0  0
   69.1764   72.4340   92.0396 C   0  0  0  0  0  0  0  0  0  0  0  0
   69.7618   73.5578   92.6318 C   0  0  0  0  0  0  0  0  0  0  0  0
   70.3902   73.3872   93.8674 O   0  0  0  0  0  0  0  0  0  0  0  0
   69.6698   74.8165   91.9867 C   0  0  0  0  0  0  0  0  0  0  0  0
   68.9366   74.9186   90.7905 C   0  0  0  0  0  0  0  0  0  0  0  0
   70.4291   72.5372   94.2598 H   0  0  0  0  0  0  0  0  0  0  0  0
   70.3366   76.0316   92.5043 C   0  0  0  0  0  0  0  0  0  0  0  0
   71.1101   76.7046   91.7717 O   0  0  0  0  0  0  0  0  0  0  0  0
   70.0636   76.4734   93.7961 O   0  0  0  0  0  0  0  0  0  0  0  0
   69.4897   75.9800   94.3485 H   0  0  0  0  0  0  0  0  0  0  0  0
 18 19  1  0  0  0
 19 20  1  0  0  0
 19 21  1  0  0  0
 19 17  1  0  0  0
 17 16  1  0  0  0
 16 13  1  0  0  0
 13 14  2  0  0  0
 13 15  2  0  0  0
 13  7  1  0  0  0
  7  8  2  0  0  0
  8  9  1  0  0  0
  9 10  2  0  0  0
 10  1  1  0  0  0
  1  2  2  0  0  0
  2  3  1  0  0  0
  3  4  2  0  0  0
  4  5  1  0  0  0
  5 22  1  0  0  0
 22 23  1  0  0  0
 23 24  1  0  0  0
 24 25  2  0  0  0
 25 26  1  0  0  0
 26 27  2  0  0  0
 27 28  1  0  0  0
 27 29  1  0  0  0
 29 32  1  0  0  0
 32 33  2  0  0  0
 32 34  1  0  0  0
 29 30  2  0  0  0
  5  6  2  0  0  0
 10 11  1  0  0  0
 11 12  2  0  0  0
 12  7  1  0  0  0
  6  1  1  0  0  0
 30 24  1  0  0  0
 28 31  1  0  0  0
 34 35  1  0  0  0
M  END
> <score>
-0.51205

> <minimizedAffinity>
-8.27073

> <CNNscore>
0.4331591427

> <CNNaffinity>
6.6160898209

> <CNN_VS>
2.8658196926

$$$$
HIPS6547


 36 38  0  0  0  0  0  0  0  0999 V2000
   66.7659   81.3607   92.0414 C   0  0  0  0  0  0  0  0  0  0  0  0
   65.7526   81.4809   91.0779 C   0  0  0  0  0  0  0  0  0  0  0  0
   64.6250   80.6592   91.1366 C   0  0  0  0  0  0  0  0  0  0  0  0
   64.4970   79.7153   92.1581 C   0  0  0  0  0  0  0  0  0  0  0  0
   65.5062   79.5757   93.1246 C   0  0  0  0  0  0  0  0  0  0  0  0
   66.6315   80.4140   93.0703 C   0  0  0  0  0  0  0  0  0  0  0  0
   67.6044   82.9777   94.4206 C   0  0  0  0  0  0  0  0  0  0  0  0
   68.3426   83.0333   93.1096 C   0  0  0  0  0  0  0  0  0  0  0  0
   69.4518   83.8869   92.9904 C   0  0  0  0  0  0  0  0  0  0  0  0
   70.1819   83.9435   91.8023 C   0  0  0  0  0  0  0  0  0  0  0  0
   69.8100   83.1532   90.7096 C   0  0  0  0  0  0  0  0  0  0  0  0
   68.6888   82.3223   90.8057 C   0  0  0  0  0  0  0  0  0  0  0  0
   67.9422   82.2577   91.9935 C   0  0  0  0  0  0  0  0  0  0  0  0
   70.7421   83.1833   89.2163 S   0  0  0  0  0  0  0  0  0  0  0  0
   71.7417   82.0603   89.1966 O   0  0  0  0  0  0  0  0  0  0  0  0
   71.5068   84.4765   89.1835 O   0  0  0  0  0  0  0  0  0  0  0  0
   69.7279   83.1080   87.7933 N   0  0  0  0  0  0  0  0  0  0  0  0
   68.9808   82.4408   87.9858 H   0  0  0  0  0  0  0  0  0  0  0  0
   69.0907   84.3694   87.3367 C   0  0  0  0  0  0  0  0  0  0  0  0
   67.8419   83.9693   86.5264 C   0  0  0  0  0  0  0  0  0  0  0  0
   70.0218   85.1860   86.4106 C   0  0  0  0  0  0  0  0  0  0  0  0
   68.6244   85.2474   88.5177 C   0  0  0  0  0  0  0  0  0  0  0  0
   65.3441   78.5955   94.2569 C   0  0  0  0  0  0  0  0  0  0  0  0
   65.3056   77.2519   93.7744 O   0  0  0  0  0  0  0  0  0  0  0  0
   66.2141   76.2369   94.1160 C   0  0  0  0  0  0  0  0  0  0  0  0
   65.8393   75.3293   95.1084 C   0  0  0  0  0  0  0  0  0  0  0  0
   66.6961   74.2955   95.4841 C   0  0  0  0  0  0  0  0  0  0  0  0
   67.9474   74.1502   94.8775 C   0  0  0  0  0  0  0  0  0  0  0  0
   68.7238   73.0496   95.2473 O   0  0  0  0  0  0  0  0  0  0  0  0
   68.3654   75.0881   93.9004 C   0  0  0  0  0  0  0  0  0  0  0  0
   67.4785   76.1095   93.5100 C   0  0  0  0  0  0  0  0  0  0  0  0
   68.4105   72.4527   95.8981 H   0  0  0  0  0  0  0  0  0  0  0  0
   69.7177   75.0626   93.3006 C   0  0  0  0  0  0  0  0  0  0  0  0
   70.2513   73.9726   92.9615 O   0  0  0  0  0  0  0  0  0  0  0  0
   70.4381   76.2452   93.1639 O   0  0  0  0  0  0  0  0  0  0  0  0
   70.0507   77.0612   93.4131 H   0  0  0  0  0  0  0  0  0  0  0  0
  7  8  1  0  0  0
  8  9  2  0  0  0
  9 10  1  0  0  0
 10 11  2  0  0  0
 11 14  1  0  0  0
 14 15  2  0  0  0
 14 16  2  0  0  0
 14 17  1  0  0  0
 17 19  1  0  0  0
 19 20  1  0  0  0
 19 21  1  0  0  0
 19 22  1  0  0  0
 11 12  1  0  0  0
 12 13  2  0  0  0
 13  1  1  0  0  0
  1  2  2  0  0  0
  2  3  1  0  0  0
  3  4  2  0  0  0
  4  5  1  0  0  0
  5 23  1  0  0  0
 23 24  1  0  0  0
 24 25  1  0  0  0
 25 26  2  0  0  0
 26 27  1  0  0  0
 27 28  2  0  0  0
 28 29  1  0  0  0
 28 30  1  0  0  0
 30 33  1  0  0  0
 33 34  2  0  0  0
 33 35  1  0  0  0
 30 31  2  0  0  0
  5  6  2  0  0  0
 13  8  1  0  0  0
  6  1  1  0  0  0
 31 25  1  0  0  0
 17 18  1  0  0  0
 29 32  1  0  0  0
 35 36  1  0  0  0
M  END
> <score>
-0.481785

> <minimizedAffinity>
-8.04842

> <CNNscore>
0.5437513590

> <CNNaffinity>
6.5499296188

> <CNN_VS>
3.5615332127

$$$$
HIPS6547


 36 38  0  0  0  0  0  0  0  0999 V2000
   67.5531   80.5710   90.3256 C   0  0  0  0  0  0  0  0  0  0  0  0
   66.9357   81.1845   91.4264 C   0  0  0  0  0  0  0  0  0  0  0  0
   66.4986   80.4153   92.5068 C   0  0  0  0  0  0  0  0  0  0  0  0
   66.6778   79.0301   92.5001 C   0  0  0  0  0  0  0  0  0  0  0  0
   67.2852   78.3994   91.4022 C   0  0  0  0  0  0  0  0  0  0  0  0
   67.7364   79.1783   90.3244 C   0  0  0  0  0  0  0  0  0  0  0  0
   66.1648   80.5882   87.6702 C   0  0  0  0  0  0  0  0  0  0  0  0
   67.4015   81.4046   87.9367 C   0  0  0  0  0  0  0  0  0  0  0  0
   67.9351   82.1873   86.8995 C   0  0  0  0  0  0  0  0  0  0  0  0
   69.0615   82.9827   87.1153 C   0  0  0  0  0  0  0  0  0  0  0  0
   69.6789   83.0024   88.3704 C   0  0  0  0  0  0  0  0  0  0  0  0
   69.1753   82.2036   89.4024 C   0  0  0  0  0  0  0  0  0  0  0  0
   68.0449   81.3954   89.1990 C   0  0  0  0  0  0  0  0  0  0  0  0
   71.0772   84.0289   88.6713 S   0  0  0  0  0  0  0  0  0  0  0  0
   71.8740   84.2167   87.4101 O   0  0  0  0  0  0  0  0  0  0  0  0
   71.9549   83.3220   89.6654 O   0  0  0  0  0  0  0  0  0  0  0  0
   70.6341   85.5843   89.3374 N   0  0  0  0  0  0  0  0  0  0  0  0
   71.2371   85.7547   90.1423 H   0  0  0  0  0  0  0  0  0  0  0  0
   70.7374   86.7677   88.4460 C   0  0  0  0  0  0  0  0  0  0  0  0
   69.8192   86.4964   87.2379 C   0  0  0  0  0  0  0  0  0  0  0  0
   72.1767   86.9708   87.9182 C   0  0  0  0  0  0  0  0  0  0  0  0
   70.2434   88.0590   89.1324 C   0  0  0  0  0  0  0  0  0  0  0  0
   67.5271   76.9126   91.4176 C   0  0  0  0  0  0  0  0  0  0  0  0
   66.5393   76.2375   92.1972 O   0  0  0  0  0  0  0  0  0  0  0  0
   66.7963   75.4347   93.3205 C   0  0  0  0  0  0  0  0  0  0  0  0
   65.8889   75.4816   94.3804 C   0  0  0  0  0  0  0  0  0  0  0  0
   66.0868   74.7008   95.5185 C   0  0  0  0  0  0  0  0  0  0  0  0
   67.1986   73.8594   95.6216 C   0  0  0  0  0  0  0  0  0  0  0  0
   67.2961   73.0492   96.7552 O   0  0  0  0  0  0  0  0  0  0  0  0
   68.1555   73.8316   94.5763 C   0  0  0  0  0  0  0  0  0  0  0  0
   67.9279   74.6030   93.4208 C   0  0  0  0  0  0  0  0  0  0  0  0
   66.6417   73.0983   97.4239 H   0  0  0  0  0  0  0  0  0  0  0  0
   69.4104   73.0533   94.6673 C   0  0  0  0  0  0  0  0  0  0  0  0
   70.3257   73.3976   95.4620 O   0  0  0  0  0  0  0  0  0  0  0  0
   69.6138   71.9645   93.8250 O   0  0  0  0  0  0  0  0  0  0  0  0
   68.9398   71.7000   93.2302 H   0  0  0  0  0  0  0  0  0  0  0  0
  7  8  1  0  0  0
  8  9  2  0  0  0
  9 10  1  0  0  0
 10 11  2  0  0  0
 11 14  1  0  0  0
 14 15  2  0  0  0
 14 16  2  0  0  0
 14 17  1  0  0  0
 17 19  1  0  0  0
 19 20  1  0  0  0
 19 21  1  0  0  0
 19 22  1  0  0  0
 11 12  1  0  0  0
 12 13  2  0  0  0
 13  1  1  0  0  0
  1  2  2  0  0  0
  2  3  1  0  0  0
  3  4  2  0  0  0
  4  5  1  0  0  0
  5 23  1  0  0  0
 23 24  1  0  0  0
 24 25  1  0  0  0
 25 26  2  0  0  0
 26 27  1  0  0  0
 27 28  2  0  0  0
 28 29  1  0  0  0
 28 30  1  0  0  0
 30 33  1  0  0  0
 33 34  2  0  0  0
 33 35  1  0  0  0
 30 31  2  0  0  0
  5  6  2  0  0  0
 13  8  1  0  0  0
  6  1  1  0  0  0
 31 25  1  0  0  0
 17 18  1  0  0  0
 29 32  1  0  0  0
 35 36  1  0  0  0
M  END
> <score>
-0.481785

> <minimizedAffinity>
-8.39154

> <CNNscore>
0.5064567924

> <CNNaffinity>
6.2827510834

> <CNN_VS>
3.1819419861

$$$$
HIPS6547


 36 38  0  0  0  0  0  0  0  0999 V2000
   67.3162   79.6691   90.0518 C   0  0  0  0  0  0  0  0  0  0  0  0
   67.0192   79.0858   88.8104 C   0  0  0  0  0  0  0  0  0  0  0  0
   66.9613   79.8737   87.6589 C   0  0  0  0  0  0  0  0  0  0  0  0
   67.2032   81.2472   87.7354 C   0  0  0  0  0  0  0  0  0  0  0  0
   67.4923   81.8481   88.9713 C   0  0  0  0  0  0  0  0  0  0  0  0
   67.5640   81.0498   90.1244 C   0  0  0  0  0  0  0  0  0  0  0  0
   65.3914   79.9695   92.3286 C   0  0  0  0  0  0  0  0  0  0  0  0
   66.5106   78.9626   92.3490 C   0  0  0  0  0  0  0  0  0  0  0  0
   66.6709   78.1481   93.4821 C   0  0  0  0  0  0  0  0  0  0  0  0
   67.6761   77.1810   93.5270 C   0  0  0  0  0  0  0  0  0  0  0  0
   68.5441   77.0174   92.4423 C   0  0  0  0  0  0  0  0  0  0  0  0
   68.4141   77.8433   91.3208 C   0  0  0  0  0  0  0  0  0  0  0  0
   67.4099   78.8234   91.2629 C   0  0  0  0  0  0  0  0  0  0  0  0
   69.7931   75.7768   92.4661 S   0  0  0  0  0  0  0  0  0  0  0  0
   69.8672   75.1298   93.8212 O   0  0  0  0  0  0  0  0  0  0  0  0
   71.1105   76.4528   92.2096 O   0  0  0  0  0  0  0  0  0  0  0  0
   69.5505   74.5599   91.2333 N   0  0  0  0  0  0  0  0  0  0  0  0
   70.4708   74.2865   90.8889 H   0  0  0  0  0  0  0  0  0  0  0  0
   68.8357   73.3185   91.6253 C   0  0  0  0  0  0  0  0  0  0  0  0
   68.3324   72.6647   90.3232 C   0  0  0  0  0  0  0  0  0  0  0  0
   67.6085   73.6146   92.5184 C   0  0  0  0  0  0  0  0  0  0  0  0
   69.7660   72.3084   92.3304 C   0  0  0  0  0  0  0  0  0  0  0  0
   67.8061   83.3195   89.0464 C   0  0  0  0  0  0  0  0  0  0  0  0
   68.5857   83.7385   87.9257 O   0  0  0  0  0  0  0  0  0  0  0  0
   69.7038   84.5863   87.9819 C   0  0  0  0  0  0  0  0  0  0  0  0
   70.9473   84.0541   87.6360 C   0  0  0  0  0  0  0  0  0  0  0  0
   72.0920   84.8497   87.6648 C   0  0  0  0  0  0  0  0  0  0  0  0
   72.0173   86.1933   88.0439 C   0  0  0  0  0  0  0  0  0  0  0  0
   73.1882   86.9520   87.9783 O   0  0  0  0  0  0  0  0  0  0  0  0
   70.7720   86.7405   88.4427 C   0  0  0  0  0  0  0  0  0  0  0  0
   69.6199   85.9339   88.3808 C   0  0  0  0  0  0  0  0  0  0  0  0
   73.9915   86.5515   87.7095 H   0  0  0  0  0  0  0  0  0  0  0  0
   70.6393   88.1191   88.9632 C   0  0  0  0  0  0  0  0  0  0  0  0
   69.5120   88.5791   89.2882 O   0  0  0  0  0  0  0  0  0  0  0  0
   71.7584   88.9425   89.0390 O   0  0  0  0  0  0  0  0  0  0  0  0
   72.6014   88.6106   88.7997 H   0  0  0  0  0  0  0  0  0  0  0  0
  7  8  1  0  0  0
  8  9  2  0  0  0
  9 10  1  0  0  0
 10 11  2  0  0  0
 11 14  1  0  0  0
 14 15  2  0  0  0
 14 16  2  0  0  0
 14 17  1  0  0  0
 17 19  1  0  0  0
 19 20  1  0  0  0
 19 21  1  0  0  0
 19 22  1  0  0  0
 11 12  1  0  0  0
 12 13  2  0  0  0
 13  1  1  0  0  0
  1  2  2  0  0  0
  2  3  1  0  0  0
  3  4  2  0  0  0
  4  5  1  0  0  0
  5 23  1  0  0  0
 23 24  1  0  0  0
 24 25  1  0  0  0
 25 26  2  0  0  0
 26 27  1  0  0  0
 27 28  2  0  0  0
 28 29  1  0  0  0
 28 30  1  0  0  0
 30 33  1  0  0  0
 33 34  2  0  0  0
 33 35  1  0  0  0
 30 31  2  0  0  0
  5  6  2  0  0  0
 13  8  1  0  0  0
  6  1  1  0  0  0
 31 25  1  0  0  0
 17 18  1  0  0  0
 29 32  1  0  0  0
 35 36  1  0  0  0
M  END
> <score>
-0.481785

> <minimizedAffinity>
-8.22832

> <CNNscore>
0.4923593402

> <CNNaffinity>
6.5142812729

> <CNN_VS>
3.2073671818

$$$$
HIPS6563


 28 29  0  0  0  0  0  0  0  0999 V2000
   67.1623   79.7082   89.0343 C   0  0  0  0  0  0  0  0  0  0  0  0
   68.0183   80.9427   88.9196 C   0  0  0  0  0  0  0  0  0  0  0  0
   67.5747   82.0335   88.1585 C   0  0  0  0  0  0  0  0  0  0  0  0
   68.3511   83.1994   88.0580 C   0  0  0  0  0  0  0  0  0  0  0  0
   69.6064   83.2425   88.6883 C   0  0  0  0  0  0  0  0  0  0  0  0
   70.0719   82.1498   89.4397 C   0  0  0  0  0  0  0  0  0  0  0  0
   69.2539   81.0170   89.5791 C   0  0  0  0  0  0  0  0  0  0  0  0
   67.8866   84.3529   87.2038 C   0  0  0  0  0  0  0  0  0  0  0  0
   67.8113   85.5163   87.9502 F   0  0  0  0  0  0  0  0  0  0  0  0
   68.7638   84.5696   86.1552 F   0  0  0  0  0  0  0  0  0  0  0  0
   66.6354   84.0645   86.6921 F   0  0  0  0  0  0  0  0  0  0  0  0
   71.3942   82.2253   90.1621 C   0  0  0  0  0  0  0  0  0  0  0  0
   71.1978   82.7786   91.4135 F   0  0  0  0  0  0  0  0  0  0  0  0
   71.9431   80.9628   90.3080 F   0  0  0  0  0  0  0  0  0  0  0  0
   72.2943   83.0078   89.4594 F   0  0  0  0  0  0  0  0  0  0  0  0
   67.8535   78.5635   88.5316 O   0  0  0  0  0  0  0  0  0  0  0  0
   69.3279   76.1638   91.0089 C   0  0  0  0  0  0  0  0  0  0  0  0
   69.0653   77.3597   90.3133 C   0  0  0  0  0  0  0  0  0  0  0  0
   68.1309   77.3952   89.2610 C   0  0  0  0  0  0  0  0  0  0  0  0
   67.4451   76.2280   88.9191 C   0  0  0  0  0  0  0  0  0  0  0  0
   67.6893   75.0368   89.6016 C   0  0  0  0  0  0  0  0  0  0  0  0
   68.6269   74.9921   90.6422 C   0  0  0  0  0  0  0  0  0  0  0  0
   68.8565   73.7854   91.3036 O   0  0  0  0  0  0  0  0  0  0  0  0
   68.3855   73.0157   91.0512 H   0  0  0  0  0  0  0  0  0  0  0  0
   71.5069   76.5816   91.9029 O   0  0  0  0  0  0  0  0  0  0  0  0
   70.3334   76.1677   92.1030 C   0  0  0  0  0  0  0  0  0  0  0  0
   69.9865   75.7111   93.3726 O   0  0  0  0  0  0  0  0  0  0  0  0
   69.1182   75.4001   93.5375 H   0  0  0  0  0  0  0  0  0  0  0  0
 25 26  2  0  0  0
 26 27  1  0  0  0
 26 17  1  0  0  0
 17 18  2  0  0  0
 18 19  1  0  0  0
 19 16  1  0  0  0
 16  1  1  0  0  0
  1  2  1  0  0  0
  2  3  2  0  0  0
  3  4  1  0  0  0
  4  8  1  0  0  0
  8  9  1  0  0  0
  8 10  1  0  0  0
  8 11  1  0  0  0
  4  5  2  0  0  0
  5  6  1  0  0  0
  6 12  1  0  0  0
 12 13  1  0  0  0
 12 14  1  0  0  0
 12 15  1  0  0  0
  6  7  2  0  0  0
 19 20  2  0  0  0
 20 21  1  0  0  0
 21 22  2  0  0  0
 22 23  1  0  0  0
 22 17  1  0  0  0
  7  2  1  0  0  0
 27 28  1  0  0  0
 23 24  1  0  0  0
M  END
> <score>
-0.179564

> <minimizedAffinity>
-7.62129

> <CNNscore>
0.8302139640

> <CNNaffinity>
5.9500999451

> <CNN_VS>
4.9398560524

$$$$
HIPS6563


 28 29  0  0  0  0  0  0  0  0999 V2000
   66.7646   78.0281   92.3335 C   0  0  0  0  0  0  0  0  0  0  0  0
   67.6764   77.9487   91.1368 C   0  0  0  0  0  0  0  0  0  0  0  0
   67.1551   77.6048   89.8815 C   0  0  0  0  0  0  0  0  0  0  0  0
   67.9877   77.5462   88.7520 C   0  0  0  0  0  0  0  0  0  0  0  0
   69.3641   77.7862   88.9030 C   0  0  0  0  0  0  0  0  0  0  0  0
   69.9037   78.1144   90.1586 C   0  0  0  0  0  0  0  0  0  0  0  0
   69.0449   78.2284   91.2638 C   0  0  0  0  0  0  0  0  0  0  0  0
   67.4276   77.1352   87.4129 C   0  0  0  0  0  0  0  0  0  0  0  0
   68.3533   77.3522   86.4069 F   0  0  0  0  0  0  0  0  0  0  0  0
   67.0975   75.7909   87.4123 F   0  0  0  0  0  0  0  0  0  0  0  0
   66.2923   77.8778   87.1479 F   0  0  0  0  0  0  0  0  0  0  0  0
   71.3723   78.4284   90.3023 C   0  0  0  0  0  0  0  0  0  0  0  0
   71.8077   78.0085   91.5451 F   0  0  0  0  0  0  0  0  0  0  0  0
   72.1074   77.7809   89.3241 F   0  0  0  0  0  0  0  0  0  0  0  0
   71.5983   79.7888   90.1813 F   0  0  0  0  0  0  0  0  0  0  0  0
   66.1712   76.7570   92.6039 O   0  0  0  0  0  0  0  0  0  0  0  0
   68.2251   74.1268   94.3166 C   0  0  0  0  0  0  0  0  0  0  0  0
   67.8019   75.0623   93.3529 C   0  0  0  0  0  0  0  0  0  0  0  0
   66.6359   75.8265   93.5484 C   0  0  0  0  0  0  0  0  0  0  0  0
   65.9029   75.6621   94.7254 C   0  0  0  0  0  0  0  0  0  0  0  0
   66.3113   74.7441   95.6923 C   0  0  0  0  0  0  0  0  0  0  0  0
   67.4645   73.9718   95.4983 C   0  0  0  0  0  0  0  0  0  0  0  0
   67.8464   73.0560   96.4790 O   0  0  0  0  0  0  0  0  0  0  0  0
   67.3339   72.9625   97.2578 H   0  0  0  0  0  0  0  0  0  0  0  0
   70.3630   73.7653   93.3067 O   0  0  0  0  0  0  0  0  0  0  0  0
   69.4534   73.3301   94.0628 C   0  0  0  0  0  0  0  0  0  0  0  0
   69.6147   72.0838   94.6639 O   0  0  0  0  0  0  0  0  0  0  0  0
   68.9475   71.7462   95.2287 H   0  0  0  0  0  0  0  0  0  0  0  0
 25 26  2  0  0  0
 26 27  1  0  0  0
 26 17  1  0  0  0
 17 18  2  0  0  0
 18 19  1  0  0  0
 19 16  1  0  0  0
 16  1  1  0  0  0
  1  2  1  0  0  0
  2  3  2  0  0  0
  3  4  1  0  0  0
  4  8  1  0  0  0
  8  9  1  0  0  0
  8 10  1  0  0  0
  8 11  1  0  0  0
  4  5  2  0  0  0
  5  6  1  0  0  0
  6 12  1  0  0  0
 12 13  1  0  0  0
 12 14  1  0  0  0
 12 15  1  0  0  0
  6  7  2  0  0  0
 19 20  2  0  0  0
 20 21  1  0  0  0
 21 22  2  0  0  0
 22 23  1  0  0  0
 22 17  1  0  0  0
  7  2  1  0  0  0
 27 28  1  0  0  0
 23 24  1  0  0  0
M  END
> <score>
-0.179564

> <minimizedAffinity>
-7.78134

> <CNNscore>
0.8138597608

> <CNNaffinity>
5.9643630981

> <CNN_VS>
4.8541550636

$$$$
HIPS6563


 28 29  0  0  0  0  0  0  0  0999 V2000
   69.7835   80.4425   90.2167 C   0  0  0  0  0  0  0  0  0  0  0  0
   69.9403   81.7208   89.4349 C   0  0  0  0  0  0  0  0  0  0  0  0
   68.8376   82.2722   88.7671 C   0  0  0  0  0  0  0  0  0  0  0  0
   68.9619   83.4738   88.0508 C   0  0  0  0  0  0  0  0  0  0  0  0
   70.2203   84.0936   87.9667 C   0  0  0  0  0  0  0  0  0  0  0  0
   71.3384   83.5428   88.6161 C   0  0  0  0  0  0  0  0  0  0  0  0
   71.1801   82.3741   89.3783 C   0  0  0  0  0  0  0  0  0  0  0  0
   67.7815   84.0392   87.3006 C   0  0  0  0  0  0  0  0  0  0  0  0
   68.1957   84.6764   86.1436 F   0  0  0  0  0  0  0  0  0  0  0  0
   66.8993   83.0331   86.9463 F   0  0  0  0  0  0  0  0  0  0  0  0
   67.1252   84.9506   88.1063 F   0  0  0  0  0  0  0  0  0  0  0  0
   72.6730   84.2448   88.5704 C   0  0  0  0  0  0  0  0  0  0  0  0
   72.4711   85.6105   88.6394 F   0  0  0  0  0  0  0  0  0  0  0  0
   73.4674   83.8518   89.6339 F   0  0  0  0  0  0  0  0  0  0  0  0
   73.3452   83.9470   87.3975 F   0  0  0  0  0  0  0  0  0  0  0  0
   68.7657   79.6196   89.6442 O   0  0  0  0  0  0  0  0  0  0  0  0
   69.1783   76.1479   91.0031 C   0  0  0  0  0  0  0  0  0  0  0  0
   69.3254   77.5399   90.8501 C   0  0  0  0  0  0  0  0  0  0  0  0
   68.6328   78.2348   89.8405 C   0  0  0  0  0  0  0  0  0  0  0  0
   67.7755   77.5298   88.9934 C   0  0  0  0  0  0  0  0  0  0  0  0
   67.6142   76.1520   89.1350 C   0  0  0  0  0  0  0  0  0  0  0  0
   68.3099   75.4527   90.1304 C   0  0  0  0  0  0  0  0  0  0  0  0
   68.1351   74.0734   90.2455 O   0  0  0  0  0  0  0  0  0  0  0  0
   67.5567   73.6240   89.6611 H   0  0  0  0  0  0  0  0  0  0  0  0
   70.3614   74.2756   91.9067 O   0  0  0  0  0  0  0  0  0  0  0  0
   69.9400   75.4518   92.0723 C   0  0  0  0  0  0  0  0  0  0  0  0
   70.1999   76.0977   93.2789 O   0  0  0  0  0  0  0  0  0  0  0  0
   69.8935   76.9723   93.4177 H   0  0  0  0  0  0  0  0  0  0  0  0
 25 26  2  0  0  0
 26 27  1  0  0  0
 26 17  1  0  0  0
 17 18  2  0  0  0
 18 19  1  0  0  0
 19 16  1  0  0  0
 16  1  1  0  0  0
  1  2  1  0  0  0
  2  3  2  0  0  0
  3  4  1  0  0  0
  4  8  1  0  0  0
  8  9  1  0  0  0
  8 10  1  0  0  0
  8 11  1  0  0  0
  4  5  2  0  0  0
  5  6  1  0  0  0
  6 12  1  0  0  0
 12 13  1  0  0  0
 12 14  1  0  0  0
 12 15  1  0  0  0
  6  7  2  0  0  0
 19 20  2  0  0  0
 20 21  1  0  0  0
 21 22  2  0  0  0
 22 23  1  0  0  0
 22 17  1  0  0  0
  7  2  1  0  0  0
 27 28  1  0  0  0
 23 24  1  0  0  0
M  END
> <score>
-0.179564

> <minimizedAffinity>
-7.84992

> <CNNscore>
0.7999951243

> <CNNaffinity>
5.7728576660

> <CNN_VS>
4.6182579994

$$$$
HIPS6566


 32 33  0  0  0  0  0  0  0  0999 V2000
   66.6093   77.4384   93.1977 C   0  0  0  0  0  0  0  0  0  0  0  0
   65.7683   78.4708   93.6508 C   0  0  0  0  0  0  0  0  0  0  0  0
   65.7658   79.7132   93.0124 C   0  0  0  0  0  0  0  0  0  0  0  0
   66.5962   79.9401   91.9133 C   0  0  0  0  0  0  0  0  0  0  0  0
   67.4293   78.9181   91.4354 C   0  0  0  0  0  0  0  0  0  0  0  0
   67.4438   77.6758   92.0894 C   0  0  0  0  0  0  0  0  0  0  0  0
   67.4203   73.8097   94.0222 C   0  0  0  0  0  0  0  0  0  0  0  0
   66.6213   73.6204   95.1600 C   0  0  0  0  0  0  0  0  0  0  0  0
   65.8226   74.6554   95.6484 C   0  0  0  0  0  0  0  0  0  0  0  0
   65.8149   75.8964   95.0111 C   0  0  0  0  0  0  0  0  0  0  0  0
   66.6155   76.1178   93.8779 C   0  0  0  0  0  0  0  0  0  0  0  0
   67.4213   75.0699   93.3946 C   0  0  0  0  0  0  0  0  0  0  0  0
   68.2296   72.7149   93.5528 N   0  0  0  0  0  0  0  0  0  0  0  0
   67.7649   71.8779   93.3231 H   0  0  0  0  0  0  0  0  0  0  0  0
   69.9580   72.7443   93.3568 S   0  0  0  0  0  0  0  0  0  0  0  0
   70.5636   73.2316   94.6431 O   0  0  0  0  0  0  0  0  0  0  0  0
   70.3538   73.7046   92.2706 O   0  0  0  0  0  0  0  0  0  0  0  0
   70.9033   70.3764   94.3423 C   0  0  0  0  0  0  0  0  0  0  0  0
   70.6098   71.1028   93.0280 C   0  0  0  0  0  0  0  0  0  0  0  0
   69.6594   70.2802   92.1559 C   0  0  0  0  0  0  0  0  0  0  0  0
   68.3530   79.1731   90.2803 C   0  0  0  0  0  0  0  0  0  0  0  0
   68.6259   80.5700   90.1984 O   0  0  0  0  0  0  0  0  0  0  0  0
   69.8805   81.1265   89.9057 C   0  0  0  0  0  0  0  0  0  0  0  0
   70.0525   82.4109   89.5550 C   0  0  0  0  0  0  0  0  0  0  0  0
   71.3841   82.9947   89.2505 C   0  0  0  0  0  0  0  0  0  0  0  0
   72.4216   82.6513   90.0371 C   0  0  0  0  0  0  0  0  0  0  0  0
   73.6942   83.2177   89.9303 O   0  0  0  0  0  0  0  0  0  0  0  0
   73.8618   83.8749   89.2838 H   0  0  0  0  0  0  0  0  0  0  0  0
   71.5396   83.9500   88.1298 C   0  0  0  0  0  0  0  0  0  0  0  0
   72.1179   85.0561   88.3061 O   0  0  0  0  0  0  0  0  0  0  0  0
   71.0772   83.6106   86.8615 O   0  0  0  0  0  0  0  0  0  0  0  0
   70.6465   82.7899   86.7240 H   0  0  0  0  0  0  0  0  0  0  0  0
 18 19  1  0  0  0
 19 20  1  0  0  0
 19 15  1  0  0  0
 15 16  2  0  0  0
 15 17  2  0  0  0
 15 13  1  0  0  0
 13  7  1  0  0  0
  7  8  2  0  0  0
  8  9  1  0  0  0
  9 10  2  0  0  0
 10 11  1  0  0  0
 11  1  1  0  0  0
  1  2  2  0  0  0
  2  3  1  0  0  0
  3  4  2  0  0  0
  4  5  1  0  0  0
  5 21  1  0  0  0
 21 22  1  0  0  0
 22 23  1  0  0  0
 23 24  2  0  0  0
 24 25  1  0  0  0
 25 26  2  0  0  0
 26 27  1  0  0  0
 25 29  1  0  0  0
 29 30  2  0  0  0
 29 31  1  0  0  0
  5  6  2  0  0  0
 11 12  2  0  0  0
 12  7  1  0  0  0
  6  1  1  0  0  0
 13 14  1  0  0  0
 27 28  1  0  0  0
 31 32  1  0  0  0
M  END
> <score>
-0.561558

> <minimizedAffinity>
-7.63574

> <CNNscore>
0.5225492716

> <CNNaffinity>
5.6787805557

> <CNN_VS>
2.9674427509

$$$$
HIPS6566


 32 33  0  0  0  0  0  0  0  0999 V2000
   70.6169   80.5184   90.0540 C   0  0  0  0  0  0  0  0  0  0  0  0
   69.2118   80.4626   90.0257 C   0  0  0  0  0  0  0  0  0  0  0  0
   68.5431   79.2859   90.3711 C   0  0  0  0  0  0  0  0  0  0  0  0
   69.2649   78.1537   90.7532 C   0  0  0  0  0  0  0  0  0  0  0  0
   70.6658   78.1941   90.8046 C   0  0  0  0  0  0  0  0  0  0  0  0
   71.3370   79.3721   90.4397 C   0  0  0  0  0  0  0  0  0  0  0  0
   71.3684   83.9230   88.5215 C   0  0  0  0  0  0  0  0  0  0  0  0
   72.6796   84.1261   88.9783 C   0  0  0  0  0  0  0  0  0  0  0  0
   73.3147   83.1658   89.7670 C   0  0  0  0  0  0  0  0  0  0  0  0
   72.6476   81.9914   90.1159 C   0  0  0  0  0  0  0  0  0  0  0  0
   71.3295   81.7680   89.6836 C   0  0  0  0  0  0  0  0  0  0  0  0
   70.6948   82.7437   88.8922 C   0  0  0  0  0  0  0  0  0  0  0  0
   70.7508   84.9404   87.7107 N   0  0  0  0  0  0  0  0  0  0  0  0
   71.1391   85.1040   86.8210 H   0  0  0  0  0  0  0  0  0  0  0  0
   69.3774   85.9050   88.1685 S   0  0  0  0  0  0  0  0  0  0  0  0
   69.3707   87.1403   87.3124 O   0  0  0  0  0  0  0  0  0  0  0  0
   69.4879   86.3411   89.6024 O   0  0  0  0  0  0  0  0  0  0  0  0
   67.9799   84.0734   86.6974 C   0  0  0  0  0  0  0  0  0  0  0  0
   67.8350   85.0289   87.8836 C   0  0  0  0  0  0  0  0  0  0  0  0
   67.3729   84.2750   89.1321 C   0  0  0  0  0  0  0  0  0  0  0  0
   71.4451   76.9660   91.1748 C   0  0  0  0  0  0  0  0  0  0  0  0
   70.7518   76.2642   92.2040 O   0  0  0  0  0  0  0  0  0  0  0  0
   69.6418   75.4302   91.9990 C   0  0  0  0  0  0  0  0  0  0  0  0
   69.7313   74.2053   91.4570 C   0  0  0  0  0  0  0  0  0  0  0  0
   68.5526   73.3260   91.2466 C   0  0  0  0  0  0  0  0  0  0  0  0
   67.9715   73.3249   90.0320 C   0  0  0  0  0  0  0  0  0  0  0  0
   66.7921   72.6355   89.7392 O   0  0  0  0  0  0  0  0  0  0  0  0
   66.3616   72.1388   90.4070 H   0  0  0  0  0  0  0  0  0  0  0  0
   68.0269   72.5062   92.3620 C   0  0  0  0  0  0  0  0  0  0  0  0
   68.8131   71.9622   93.1835 O   0  0  0  0  0  0  0  0  0  0  0  0
   66.6523   72.3640   92.5289 O   0  0  0  0  0  0  0  0  0  0  0  0
   66.0626   72.7660   91.9217 H   0  0  0  0  0  0  0  0  0  0  0  0
 18 19  1  0  0  0
 19 20  1  0  0  0
 19 15  1  0  0  0
 15 16  2  0  0  0
 15 17  2  0  0  0
 15 13  1  0  0  0
 13  7  1  0  0  0
  7  8  2  0  0  0
  8  9  1  0  0  0
  9 10  2  0  0  0
 10 11  1  0  0  0
 11  1  1  0  0  0
  1  2  2  0  0  0
  2  3  1  0  0  0
  3  4  2  0  0  0
  4  5  1  0  0  0
  5 21  1  0  0  0
 21 22  1  0  0  0
 22 23  1  0  0  0
 23 24  2  0  0  0
 24 25  1  0  0  0
 25 26  2  0  0  0
 26 27  1  0  0  0
 25 29  1  0  0  0
 29 30  2  0  0  0
 29 31  1  0  0  0
  5  6  2  0  0  0
 11 12  2  0  0  0
 12  7  1  0  0  0
  6  1  1  0  0  0
 13 14  1  0  0  0
 27 28  1  0  0  0
 31 32  1  0  0  0
M  END
> <score>
-0.561558

> <minimizedAffinity>
-8.06924

> <CNNscore>
0.5217295885

> <CNNaffinity>
5.7698431015

> <CNN_VS>
3.0102977753

$$$$
HIPS6566


 32 33  0  0  0  0  0  0  0  0999 V2000
   66.5358   77.3528   93.1968 C   0  0  0  0  0  0  0  0  0  0  0  0
   65.8443   78.4898   93.6524 C   0  0  0  0  0  0  0  0  0  0  0  0
   65.7882   79.6450   92.8692 C   0  0  0  0  0  0  0  0  0  0  0  0
   66.4151   79.6798   91.6223 C   0  0  0  0  0  0  0  0  0  0  0  0
   67.0949   78.5509   91.1425 C   0  0  0  0  0  0  0  0  0  0  0  0
   67.1657   77.3967   91.9388 C   0  0  0  0  0  0  0  0  0  0  0  0
   67.7969   74.1195   94.7653 C   0  0  0  0  0  0  0  0  0  0  0  0
   66.7152   73.8005   95.6003 C   0  0  0  0  0  0  0  0  0  0  0  0
   65.5869   74.6205   95.6470 C   0  0  0  0  0  0  0  0  0  0  0  0
   65.5249   75.7741   94.8650 C   0  0  0  0  0  0  0  0  0  0  0  0
   66.5992   76.1248   94.0301 C   0  0  0  0  0  0  0  0  0  0  0  0
   67.7352   75.2946   93.9924 C   0  0  0  0  0  0  0  0  0  0  0  0
   68.9417   73.2460   94.7486 N   0  0  0  0  0  0  0  0  0  0  0  0
   69.1906   72.8142   95.5977 H   0  0  0  0  0  0  0  0  0  0  0  0
   69.9225   72.8882   93.3571 S   0  0  0  0  0  0  0  0  0  0  0  0
   71.1299   72.1242   93.8233 O   0  0  0  0  0  0  0  0  0  0  0  0
   70.4038   74.1542   92.7059 O   0  0  0  0  0  0  0  0  0  0  0  0
   68.7714   72.6388   90.8904 C   0  0  0  0  0  0  0  0  0  0  0  0
   69.0401   71.8583   92.1787 C   0  0  0  0  0  0  0  0  0  0  0  0
   69.7983   70.5638   91.8788 C   0  0  0  0  0  0  0  0  0  0  0  0
   67.8046   78.6000   89.8210 C   0  0  0  0  0  0  0  0  0  0  0  0
   68.9396   79.4558   89.9307 O   0  0  0  0  0  0  0  0  0  0  0  0
   68.8879   80.8185   90.2623 C   0  0  0  0  0  0  0  0  0  0  0  0
   68.9283   81.8008   89.3480 C   0  0  0  0  0  0  0  0  0  0  0  0
   68.8689   83.2413   89.7057 C   0  0  0  0  0  0  0  0  0  0  0  0
   69.6565   84.0961   89.0261 C   0  0  0  0  0  0  0  0  0  0  0  0
   69.7810   85.4513   89.3420 O   0  0  0  0  0  0  0  0  0  0  0  0
   69.3008   85.8106   90.0619 H   0  0  0  0  0  0  0  0  0  0  0  0
   67.9867   83.7001   90.8029 C   0  0  0  0  0  0  0  0  0  0  0  0
   68.4532   84.3728   91.7616 O   0  0  0  0  0  0  0  0  0  0  0  0
   66.6241   83.4195   90.7591 O   0  0  0  0  0  0  0  0  0  0  0  0
   66.2712   82.9200   90.0492 H   0  0  0  0  0  0  0  0  0  0  0  0
 18 19  1  0  0  0
 19 20  1  0  0  0
 19 15  1  0  0  0
 15 16  2  0  0  0
 15 17  2  0  0  0
 15 13  1  0  0  0
 13  7  1  0  0  0
  7  8  2  0  0  0
  8  9  1  0  0  0
  9 10  2  0  0  0
 10 11  1  0  0  0
 11  1  1  0  0  0
  1  2  2  0  0  0
  2  3  1  0  0  0
  3  4  2  0  0  0
  4  5  1  0  0  0
  5 21  1  0  0  0
 21 22  1  0  0  0
 22 23  1  0  0  0
 23 24  2  0  0  0
 24 25  1  0  0  0
 25 26  2  0  0  0
 26 27  1  0  0  0
 25 29  1  0  0  0
 29 30  2  0  0  0
 29 31  1  0  0  0
  5  6  2  0  0  0
 11 12  2  0  0  0
 12  7  1  0  0  0
  6  1  1  0  0  0
 13 14  1  0  0  0
 27 28  1  0  0  0
 31 32  1  0  0  0
M  END
> <score>
-0.561558

> <minimizedAffinity>
-6.96602

> <CNNscore>
0.4669466913

> <CNNaffinity>
5.8242807388

> <CNN_VS>
2.7196285725

$$$$
HIPS6568


 20 21  0  0  0  0  0  0  0  0999 V2000
   68.4570   74.6094   94.1526 C   0  0  0  0  0  0  0  0  0  0  0  0
   67.5698   75.5520   93.6013 C   0  0  0  0  0  0  0  0  0  0  0  0
   66.3561   75.8565   94.2264 C   0  0  0  0  0  0  0  0  0  0  0  0
   66.0231   75.2090   95.4283 C   0  0  0  0  0  0  0  0  0  0  0  0
   66.8841   74.2571   95.9750 C   0  0  0  0  0  0  0  0  0  0  0  0
   68.0875   73.9323   95.3401 C   0  0  0  0  0  0  0  0  0  0  0  0
   68.8635   72.9142   95.8979 O   0  0  0  0  0  0  0  0  0  0  0  0
   68.5843   72.4903   96.6855 H   0  0  0  0  0  0  0  0  0  0  0  0
   70.3378   73.2730   93.5875 O   0  0  0  0  0  0  0  0  0  0  0  0
   69.7601   74.3894   93.4881 C   0  0  0  0  0  0  0  0  0  0  0  0
   70.3308   75.3847   92.7002 O   0  0  0  0  0  0  0  0  0  0  0  0
   69.9094   76.2178   92.6198 H   0  0  0  0  0  0  0  0  0  0  0  0
   65.5201   76.8106   93.6229 O   0  0  0  0  0  0  0  0  0  0  0  0
   65.5700   78.2174   93.8591 C   0  0  0  0  0  0  0  0  0  0  0  0
   66.1657   78.9285   92.6840 C   0  0  0  0  0  0  0  0  0  0  0  0
   67.3900   78.6439   92.0938 C   0  0  0  0  0  0  0  0  0  0  0  0
   67.6666   79.4597   90.9905 C   0  0  0  0  0  0  0  0  0  0  0  0
   69.2724   79.3205   89.9711 Br  0  0  0  0  0  0  0  0  0  0  0  0
   66.6643   80.3771   90.7019 C   0  0  0  0  0  0  0  0  0  0  0  0
   65.4284   80.1721   91.8243 S   0  0  0  0  0  0  0  0  0  0  0  0
  9 10  2  0  0  0
 10 11  1  0  0  0
 10  1  1  0  0  0
  1  2  2  0  0  0
  2  3  1  0  0  0
  3 13  1  0  0  0
 13 14  1  0  0  0
 14 15  1  0  0  0
 15 16  2  0  0  0
 16 17  1  0  0  0
 17 18  1  0  0  0
 17 19  2  0  0  0
 19 20  1  0  0  0
  3  4  2  0  0  0
  4  5  1  0  0  0
  5  6  2  0  0  0
  6  7  1  0  0  0
  6  1  1  0  0  0
 20 15  1  0  0  0
 11 12  1  0  0  0
  7  8  1  0  0  0
M  END
> <score>
0.108263

> <minimizedAffinity>
-5.70092

> <CNNscore>
0.8982242346

> <CNNaffinity>
5.2350759506

> <CNN_VS>
4.7022719383

$$$$
HIPS6568


 20 21  0  0  0  0  0  0  0  0999 V2000
   69.3863   77.0369   91.5248 C   0  0  0  0  0  0  0  0  0  0  0  0
   69.5886   78.1225   90.6529 C   0  0  0  0  0  0  0  0  0  0  0  0
   68.5138   78.8852   90.1844 C   0  0  0  0  0  0  0  0  0  0  0  0
   67.2108   78.5595   90.5977 C   0  0  0  0  0  0  0  0  0  0  0  0
   66.9940   77.4728   91.4454 C   0  0  0  0  0  0  0  0  0  0  0  0
   68.0640   76.6930   91.8967 C   0  0  0  0  0  0  0  0  0  0  0  0
   67.7693   75.5730   92.6770 O   0  0  0  0  0  0  0  0  0  0  0  0
   66.8806   75.3793   92.9018 H   0  0  0  0  0  0  0  0  0  0  0  0
   70.5136   75.0753   92.2486 O   0  0  0  0  0  0  0  0  0  0  0  0
   70.5687   76.3190   92.0490 C   0  0  0  0  0  0  0  0  0  0  0  0
   71.7668   76.9926   92.2686 O   0  0  0  0  0  0  0  0  0  0  0  0
   71.8182   77.9168   92.1232 H   0  0  0  0  0  0  0  0  0  0  0  0
   68.7885   79.9577   89.3196 O   0  0  0  0  0  0  0  0  0  0  0  0
   68.6554   81.3395   89.6519 C   0  0  0  0  0  0  0  0  0  0  0  0
   69.9785   82.0340   89.5588 C   0  0  0  0  0  0  0  0  0  0  0  0
   70.2479   83.1792   88.8212 C   0  0  0  0  0  0  0  0  0  0  0  0
   71.5717   83.6143   88.9535 C   0  0  0  0  0  0  0  0  0  0  0  0
   72.2539   85.1547   88.0595 Br  0  0  0  0  0  0  0  0  0  0  0  0
   72.3430   82.8260   89.7980 C   0  0  0  0  0  0  0  0  0  0  0  0
   71.3736   81.5822   90.3829 S   0  0  0  0  0  0  0  0  0  0  0  0
  9 10  2  0  0  0
 10 11  1  0  0  0
 10  1  1  0  0  0
  1  2  2  0  0  0
  2  3  1  0  0  0
  3 13  1  0  0  0
 13 14  1  0  0  0
 14 15  1  0  0  0
 15 16  2  0  0  0
 16 17  1  0  0  0
 17 18  1  0  0  0
 17 19  2  0  0  0
 19 20  1  0  0  0
  3  4  2  0  0  0
  4  5  1  0  0  0
  5  6  2  0  0  0
  6  7  1  0  0  0
  6  1  1  0  0  0
 20 15  1  0  0  0
 11 12  1  0  0  0
  7  8  1  0  0  0
M  END
> <score>
0.108263

> <minimizedAffinity>
-5.37469

> <CNNscore>
0.8760210872

> <CNNaffinity>
5.1070909500

> <CNN_VS>
4.4739193916

$$$$
HIPS6568


 20 21  0  0  0  0  0  0  0  0999 V2000
   68.7780   76.6283   92.7723 C   0  0  0  0  0  0  0  0  0  0  0  0
   68.5793   77.6380   91.8128 C   0  0  0  0  0  0  0  0  0  0  0  0
   67.4289   78.4335   91.8260 C   0  0  0  0  0  0  0  0  0  0  0  0
   66.4587   78.2187   92.8196 C   0  0  0  0  0  0  0  0  0  0  0  0
   66.6333   77.2072   93.7645 C   0  0  0  0  0  0  0  0  0  0  0  0
   67.7710   76.3938   93.7398 C   0  0  0  0  0  0  0  0  0  0  0  0
   67.8446   75.3495   94.6639 O   0  0  0  0  0  0  0  0  0  0  0  0
   67.1571   75.2275   95.2887 H   0  0  0  0  0  0  0  0  0  0  0  0
   70.0741   74.6687   93.1226 O   0  0  0  0  0  0  0  0  0  0  0  0
   70.0506   75.8745   92.7548 C   0  0  0  0  0  0  0  0  0  0  0  0
   71.2173   76.4647   92.2774 O   0  0  0  0  0  0  0  0  0  0  0  0
   71.2104   77.3601   92.0016 H   0  0  0  0  0  0  0  0  0  0  0  0
   67.2974   79.4261   90.8406 O   0  0  0  0  0  0  0  0  0  0  0  0
   66.3282   79.4241   89.7927 C   0  0  0  0  0  0  0  0  0  0  0  0
   66.6801   78.4080   88.7510 C   0  0  0  0  0  0  0  0  0  0  0  0
   67.3395   78.6611   87.5554 C   0  0  0  0  0  0  0  0  0  0  0  0
   67.5563   77.5050   86.7966 C   0  0  0  0  0  0  0  0  0  0  0  0
   68.4301   77.5226   85.1016 Br  0  0  0  0  0  0  0  0  0  0  0  0
   67.0817   76.3428   87.3913 C   0  0  0  0  0  0  0  0  0  0  0  0
   66.3895   76.7554   88.8676 S   0  0  0  0  0  0  0  0  0  0  0  0
  9 10  2  0  0  0
 10 11  1  0  0  0
 10  1  1  0  0  0
  1  2  2  0  0  0
  2  3  1  0  0  0
  3 13  1  0  0  0
 13 14  1  0  0  0
 14 15  1  0  0  0
 15 16  2  0  0  0
 16 17  1  0  0  0
 17 18  1  0  0  0
 17 19  2  0  0  0
 19 20  1  0  0  0
  3  4  2  0  0  0
  4  5  1  0  0  0
  5  6  2  0  0  0
  6  7  1  0  0  0
  6  1  1  0  0  0
 20 15  1  0  0  0
 11 12  1  0  0  0
  7  8  1  0  0  0
M  END
> <score>
0.108263

> <minimizedAffinity>
-5.26546

> <CNNscore>
0.8580145240

> <CNNaffinity>
5.2411174774

> <CNN_VS>
4.4969549179

$$$$
HIPS6569


 20 21  0  0  0  0  0  0  0  0999 V2000
   69.3112   73.2144   91.6549 C   0  0  0  0  0  0  0  0  0  0  0  0
   68.3918   72.5648   90.8096 C   0  0  0  0  0  0  0  0  0  0  0  0
   67.6091   73.2840   89.8998 C   0  0  0  0  0  0  0  0  0  0  0  0
   67.7414   74.6814   89.8353 C   0  0  0  0  0  0  0  0  0  0  0  0
   68.6481   75.3399   90.6658 C   0  0  0  0  0  0  0  0  0  0  0  0
   69.4353   74.6204   91.5750 C   0  0  0  0  0  0  0  0  0  0  0  0
   70.3341   75.3061   92.3926 O   0  0  0  0  0  0  0  0  0  0  0  0
   70.4070   76.2381   92.3302 H   0  0  0  0  0  0  0  0  0  0  0  0
   70.5078   72.8895   93.7002 O   0  0  0  0  0  0  0  0  0  0  0  0
   70.1217   72.4063   92.6020 C   0  0  0  0  0  0  0  0  0  0  0  0
   70.4665   71.0948   92.2838 O   0  0  0  0  0  0  0  0  0  0  0  0
   70.1872   70.7209   91.4712 H   0  0  0  0  0  0  0  0  0  0  0  0
   66.7162   72.5697   89.0837 O   0  0  0  0  0  0  0  0  0  0  0  0
   66.4810   72.8242   87.6987 C   0  0  0  0  0  0  0  0  0  0  0  0
   67.0695   71.7394   86.8511 C   0  0  0  0  0  0  0  0  0  0  0  0
   67.9005   70.7187   87.2947 C   0  0  0  0  0  0  0  0  0  0  0  0
   68.2552   69.8235   86.2788 C   0  0  0  0  0  0  0  0  0  0  0  0
   69.3925   68.3201   86.5682 Br  0  0  0  0  0  0  0  0  0  0  0  0
   67.6982   70.1242   85.0423 C   0  0  0  0  0  0  0  0  0  0  0  0
   66.7597   71.5095   85.2143 S   0  0  0  0  0  0  0  0  0  0  0  0
  9 10  2  0  0  0
 10 11  1  0  0  0
 10  1  1  0  0  0
  1  2  2  0  0  0
  2  3  1  0  0  0
  3 13  1  0  0  0
 13 14  1  0  0  0
 14 15  1  0  0  0
 15 16  2  0  0  0
 16 17  1  0  0  0
 17 18  1  0  0  0
 17 19  2  0  0  0
 19 20  1  0  0  0
  3  4  2  0  0  0
  4  5  1  0  0  0
  5  6  2  0  0  0
  6  7  1  0  0  0
  6  1  1  0  0  0
 20 15  1  0  0  0
 11 12  1  0  0  0
  7  8  1  0  0  0
M  END
> <score>
0.67348

> <minimizedAffinity>
-6.60972

> <CNNscore>
0.9282481074

> <CNNaffinity>
5.1302204132

> <CNN_VS>
4.7621173859

$$$$
HIPS6569


 20 21  0  0  0  0  0  0  0  0999 V2000
   70.2532   76.9576   91.6968 C   0  0  0  0  0  0  0  0  0  0  0  0
   69.0651   77.6684   91.4415 C   0  0  0  0  0  0  0  0  0  0  0  0
   69.0555   78.7879   90.6023 C   0  0  0  0  0  0  0  0  0  0  0  0
   70.2569   79.2115   90.0095 C   0  0  0  0  0  0  0  0  0  0  0  0
   71.4424   78.5180   90.2522 C   0  0  0  0  0  0  0  0  0  0  0  0
   71.4529   77.3943   91.0896 C   0  0  0  0  0  0  0  0  0  0  0  0
   72.6537   76.7202   91.3135 O   0  0  0  0  0  0  0  0  0  0  0  0
   73.4421   77.0195   90.9052 H   0  0  0  0  0  0  0  0  0  0  0  0
   70.5117   74.6264   92.1653 O   0  0  0  0  0  0  0  0  0  0  0  0
   70.2114   75.7734   92.5928 C   0  0  0  0  0  0  0  0  0  0  0  0
   69.8367   75.9193   93.9264 O   0  0  0  0  0  0  0  0  0  0  0  0
   69.6105   76.7654   94.2596 H   0  0  0  0  0  0  0  0  0  0  0  0
   67.8327   79.4454   90.3883 O   0  0  0  0  0  0  0  0  0  0  0  0
   67.2273   79.6670   89.1144 C   0  0  0  0  0  0  0  0  0  0  0  0
   67.0469   78.3752   88.3792 C   0  0  0  0  0  0  0  0  0  0  0  0
   67.3475   78.1495   87.0421 C   0  0  0  0  0  0  0  0  0  0  0  0
   67.1167   76.8268   86.6467 C   0  0  0  0  0  0  0  0  0  0  0  0
   67.4248   76.2037   84.8708 Br  0  0  0  0  0  0  0  0  0  0  0  0
   66.6502   76.0067   87.6662 C   0  0  0  0  0  0  0  0  0  0  0  0
   66.5253   76.9315   89.0657 S   0  0  0  0  0  0  0  0  0  0  0  0
  9 10  2  0  0  0
 10 11  1  0  0  0
 10  1  1  0  0  0
  1  2  2  0  0  0
  2  3  1  0  0  0
  3 13  1  0  0  0
 13 14  1  0  0  0
 14 15  1  0  0  0
 15 16  2  0  0  0
 16 17  1  0  0  0
 17 18  1  0  0  0
 17 19  2  0  0  0
 19 20  1  0  0  0
  3  4  2  0  0  0
  4  5  1  0  0  0
  5  6  2  0  0  0
  6  7  1  0  0  0
  6  1  1  0  0  0
 20 15  1  0  0  0
 11 12  1  0  0  0
  7  8  1  0  0  0
M  END
> <score>
0.67348

> <minimizedAffinity>
-5.53552

> <CNNscore>
0.9183768034

> <CNNaffinity>
5.3897533417

> <CNN_VS>
4.9498243332

$$$$
HIPS6569


 20 21  0  0  0  0  0  0  0  0999 V2000
   68.1391   74.2261   94.4424 C   0  0  0  0  0  0  0  0  0  0  0  0
   68.0763   75.1417   93.3750 C   0  0  0  0  0  0  0  0  0  0  0  0
   66.9210   75.8917   93.1294 C   0  0  0  0  0  0  0  0  0  0  0  0
   65.8022   75.7211   93.9621 C   0  0  0  0  0  0  0  0  0  0  0  0
   65.8485   74.8181   95.0241 C   0  0  0  0  0  0  0  0  0  0  0  0
   67.0063   74.0688   95.2734 C   0  0  0  0  0  0  0  0  0  0  0  0
   67.0235   73.1736   96.3433 O   0  0  0  0  0  0  0  0  0  0  0  0
   66.2662   73.0785   96.8868 H   0  0  0  0  0  0  0  0  0  0  0  0
   69.5977   72.8573   95.7538 O   0  0  0  0  0  0  0  0  0  0  0  0
   69.3896   73.4552   94.6640 C   0  0  0  0  0  0  0  0  0  0  0  0
   70.3536   73.3844   93.6611 O   0  0  0  0  0  0  0  0  0  0  0  0
   70.2139   73.8234   92.8451 H   0  0  0  0  0  0  0  0  0  0  0  0
   66.9312   76.7905   92.0498 O   0  0  0  0  0  0  0  0  0  0  0  0
   68.0521   77.0523   91.2051 C   0  0  0  0  0  0  0  0  0  0  0  0
   67.6029   77.4753   89.8410 C   0  0  0  0  0  0  0  0  0  0  0  0
   67.7018   76.7201   88.6796 C   0  0  0  0  0  0  0  0  0  0  0  0
   67.1533   77.3617   87.5630 C   0  0  0  0  0  0  0  0  0  0  0  0
   67.1420   76.5874   85.8202 Br  0  0  0  0  0  0  0  0  0  0  0  0
   66.6109   78.6102   87.8400 C   0  0  0  0  0  0  0  0  0  0  0  0
   66.8141   78.9163   89.4814 S   0  0  0  0  0  0  0  0  0  0  0  0
  9 10  2  0  0  0
 10 11  1  0  0  0
 10  1  1  0  0  0
  1  2  2  0  0  0
  2  3  1  0  0  0
  3 13  1  0  0  0
 13 14  1  0  0  0
 14 15  1  0  0  0
 15 16  2  0  0  0
 16 17  1  0  0  0
 17 18  1  0  0  0
 17 19  2  0  0  0
 19 20  1  0  0  0
  3  4  2  0  0  0
  4  5  1  0  0  0
  5  6  2  0  0  0
  6  7  1  0  0  0
  6  1  1  0  0  0
 20 15  1  0  0  0
 11 12  1  0  0  0
  7  8  1  0  0  0
M  END
> <score>
0.67348

> <minimizedAffinity>
-6.29212

> <CNNscore>
0.8118374944

> <CNNaffinity>
5.0524234772

> <CNN_VS>
4.1017470360

$$$$
HIPS6701


 31 33  0  0  0  0  0  0  0  0999 V2000
   70.4041   78.0237   90.6686 C   0  0  0  0  0  0  0  0  0  0  0  0
   71.4924   77.5628   91.3133 N   0  0  0  0  0  0  0  0  0  0  0  0
   71.1585   76.3725   91.7869 N   0  0  0  0  0  0  0  0  0  0  0  0
   69.8805   76.1562   91.4134 C   0  0  0  0  0  0  0  0  0  0  0  0
   69.4112   77.1710   90.7256 O   0  0  0  0  0  0  0  0  0  0  0  0
   69.1087   74.9394   91.7355 C   0  0  0  0  0  0  0  0  0  0  0  0
   68.6839   74.0721   90.7156 C   0  0  0  0  0  0  0  0  0  0  0  0
   67.9491   72.9260   91.0270 C   0  0  0  0  0  0  0  0  0  0  0  0
   67.6371   72.6323   92.3560 C   0  0  0  0  0  0  0  0  0  0  0  0
   68.0551   73.4791   93.3891 C   0  0  0  0  0  0  0  0  0  0  0  0
   68.7896   74.6395   93.0716 C   0  0  0  0  0  0  0  0  0  0  0  0
   67.7216   73.1282   94.7073 O   0  0  0  0  0  0  0  0  0  0  0  0
   66.7840   73.8167   95.5319 C   0  0  0  0  0  0  0  0  0  0  0  0
   67.1659   75.1369   95.6899 F   0  0  0  0  0  0  0  0  0  0  0  0
   65.5209   73.7548   94.9705 F   0  0  0  0  0  0  0  0  0  0  0  0
   66.7490   73.2114   96.7734 F   0  0  0  0  0  0  0  0  0  0  0  0
   68.3054   79.9581   90.9784 O   0  0  0  0  0  0  0  0  0  0  0  0
   69.1971   80.1781   90.1140 C   0  0  0  0  0  0  0  0  0  0  0  0
   70.3230   79.2902   90.0030 N   0  0  0  0  0  0  0  0  0  0  0  0
   71.0802   79.5680   89.4384 H   0  0  0  0  0  0  0  0  0  0  0  0
   69.0794   81.3713   89.2415 C   0  0  0  0  0  0  0  0  0  0  0  0
   68.0355   81.4566   88.3044 C   0  0  0  0  0  0  0  0  0  0  0  0
   67.9166   82.5755   87.4776 C   0  0  0  0  0  0  0  0  0  0  0  0
   68.8403   83.6187   87.5675 C   0  0  0  0  0  0  0  0  0  0  0  0
   69.9026   83.5456   88.4882 C   0  0  0  0  0  0  0  0  0  0  0  0
   70.0150   82.4206   89.3155 C   0  0  0  0  0  0  0  0  0  0  0  0
   70.8688   84.5570   88.6136 O   0  0  0  0  0  0  0  0  0  0  0  0
   72.1305   84.5792   87.9492 C   0  0  0  0  0  0  0  0  0  0  0  0
   72.3966   85.8707   87.5368 F   0  0  0  0  0  0  0  0  0  0  0  0
   73.1316   84.1719   88.8129 F   0  0  0  0  0  0  0  0  0  0  0  0
   72.0990   83.7540   86.8388 F   0  0  0  0  0  0  0  0  0  0  0  0
 17 18  2  0  0  0
 18 19  1  0  0  0
 19  1  1  0  0  0
  1  2  2  0  0  0
  2  3  1  0  0  0
  3  4  2  0  0  0
  4  6  1  0  0  0
  6  7  2  0  0  0
  7  8  1  0  0  0
  8  9  2  0  0  0
  9 10  1  0  0  0
 10 12  1  0  0  0
 12 13  1  0  0  0
 13 14  1  0  0  0
 13 15  1  0  0  0
 13 16  1  0  0  0
 10 11  2  0  0  0
  4  5  1  0  0  0
 18 21  1  0  0  0
 21 22  2  0  0  0
 22 23  1  0  0  0
 23 24  2  0  0  0
 24 25  1  0  0  0
 25 27  1  0  0  0
 27 28  1  0  0  0
 28 29  1  0  0  0
 28 30  1  0  0  0
 28 31  1  0  0  0
 25 26  2  0  0  0
  5  1  1  0  0  0
 26 21  1  0  0  0
 11  6  1  0  0  0
 19 20  1  0  0  0
M  END
> <score>
-0.247372

> <minimizedAffinity>
-8.94737

> <CNNscore>
0.6001500487

> <CNNaffinity>
6.1496162415

> <CNN_VS>
3.6906924248

$$$$
HIPS6701


 31 33  0  0  0  0  0  0  0  0999 V2000
   71.3021   78.5580   90.7492 C   0  0  0  0  0  0  0  0  0  0  0  0
   72.2260   77.9256   91.4967 N   0  0  0  0  0  0  0  0  0  0  0  0
   71.6070   76.8902   92.0422 N   0  0  0  0  0  0  0  0  0  0  0  0
   70.3310   76.9337   91.6066 C   0  0  0  0  0  0  0  0  0  0  0  0
   70.1382   77.9598   90.8111 O   0  0  0  0  0  0  0  0  0  0  0  0
   69.2868   75.9572   91.9756 C   0  0  0  0  0  0  0  0  0  0  0  0
   69.0163   74.8541   91.1491 C   0  0  0  0  0  0  0  0  0  0  0  0
   68.0232   73.9376   91.5013 C   0  0  0  0  0  0  0  0  0  0  0  0
   67.2964   74.1095   92.6813 C   0  0  0  0  0  0  0  0  0  0  0  0
   67.5530   75.1981   93.5229 C   0  0  0  0  0  0  0  0  0  0  0  0
   68.5503   76.1262   93.1612 C   0  0  0  0  0  0  0  0  0  0  0  0
   66.7984   75.3146   94.7015 O   0  0  0  0  0  0  0  0  0  0  0  0
   66.8082   74.3844   95.7822 C   0  0  0  0  0  0  0  0  0  0  0  0
   66.5611   75.0371   96.9766 F   0  0  0  0  0  0  0  0  0  0  0  0
   65.8548   73.4034   95.5745 F   0  0  0  0  0  0  0  0  0  0  0  0
   68.0526   73.7880   95.8496 F   0  0  0  0  0  0  0  0  0  0  0  0
   71.7913   81.1818   91.8068 O   0  0  0  0  0  0  0  0  0  0  0  0
   71.6796   81.0532   90.5571 C   0  0  0  0  0  0  0  0  0  0  0  0
   71.5435   79.7429   89.9802 N   0  0  0  0  0  0  0  0  0  0  0  0
   71.6205   79.6551   89.0027 H   0  0  0  0  0  0  0  0  0  0  0  0
   71.7183   82.2624   89.6997 C   0  0  0  0  0  0  0  0  0  0  0  0
   72.8775   83.0558   89.6555 C   0  0  0  0  0  0  0  0  0  0  0  0
   72.9235   84.1969   88.8520 C   0  0  0  0  0  0  0  0  0  0  0  0
   71.8135   84.5668   88.0900 C   0  0  0  0  0  0  0  0  0  0  0  0
   70.6372   83.7947   88.1325 C   0  0  0  0  0  0  0  0  0  0  0  0
   70.5986   82.6504   88.9398 C   0  0  0  0  0  0  0  0  0  0  0  0
   69.4861   84.1251   87.3991 O   0  0  0  0  0  0  0  0  0  0  0  0
   68.6529   85.2576   87.6379 C   0  0  0  0  0  0  0  0  0  0  0  0
   68.6186   85.5096   88.9959 F   0  0  0  0  0  0  0  0  0  0  0  0
   69.1624   86.3694   86.9909 F   0  0  0  0  0  0  0  0  0  0  0  0
   67.3656   85.0033   87.1988 F   0  0  0  0  0  0  0  0  0  0  0  0
 17 18  2  0  0  0
 18 19  1  0  0  0
 19  1  1  0  0  0
  1  2  2  0  0  0
  2  3  1  0  0  0
  3  4  2  0  0  0
  4  6  1  0  0  0
  6  7  2  0  0  0
  7  8  1  0  0  0
  8  9  2  0  0  0
  9 10  1  0  0  0
 10 12  1  0  0  0
 12 13  1  0  0  0
 13 14  1  0  0  0
 13 15  1  0  0  0
 13 16  1  0  0  0
 10 11  2  0  0  0
  4  5  1  0  0  0
 18 21  1  0  0  0
 21 22  2  0  0  0
 22 23  1  0  0  0
 23 24  2  0  0  0
 24 25  1  0  0  0
 25 27  1  0  0  0
 27 28  1  0  0  0
 28 29  1  0  0  0
 28 30  1  0  0  0
 28 31  1  0  0  0
 25 26  2  0  0  0
  5  1  1  0  0  0
 26 21  1  0  0  0
 11  6  1  0  0  0
 19 20  1  0  0  0
M  END
> <score>
-0.247372

> <minimizedAffinity>
-8.26170

> <CNNscore>
0.5455611944

> <CNNaffinity>
5.9838895798

> <CNN_VS>
3.2645778656

$$$$
HIPS6701


 31 33  0  0  0  0  0  0  0  0999 V2000
   71.3651   78.4724   90.6116 C   0  0  0  0  0  0  0  0  0  0  0  0
   72.4246   77.6484   90.7154 N   0  0  0  0  0  0  0  0  0  0  0  0
   72.0304   76.6424   91.4804 N   0  0  0  0  0  0  0  0  0  0  0  0
   70.7476   76.8940   91.8132 C   0  0  0  0  0  0  0  0  0  0  0  0
   70.3339   78.0206   91.2816 O   0  0  0  0  0  0  0  0  0  0  0  0
   69.9165   76.0192   92.6642 C   0  0  0  0  0  0  0  0  0  0  0  0
   69.4213   76.4811   93.8948 C   0  0  0  0  0  0  0  0  0  0  0  0
   68.6408   75.6462   94.6973 C   0  0  0  0  0  0  0  0  0  0  0  0
   68.3430   74.3480   94.2780 C   0  0  0  0  0  0  0  0  0  0  0  0
   68.8208   73.8686   93.0529 C   0  0  0  0  0  0  0  0  0  0  0  0
   69.6152   74.7104   92.2483 C   0  0  0  0  0  0  0  0  0  0  0  0
   68.4811   72.5587   92.6777 O   0  0  0  0  0  0  0  0  0  0  0  0
   69.3524   71.6339   92.0309 C   0  0  0  0  0  0  0  0  0  0  0  0
   69.0101   70.3372   92.3705 F   0  0  0  0  0  0  0  0  0  0  0  0
   69.2846   71.7958   90.6584 F   0  0  0  0  0  0  0  0  0  0  0  0
   70.6488   71.8749   92.4435 F   0  0  0  0  0  0  0  0  0  0  0  0
   72.0011   81.0740   91.6459 O   0  0  0  0  0  0  0  0  0  0  0  0
   71.5776   80.9899   90.4608 C   0  0  0  0  0  0  0  0  0  0  0  0
   71.3520   79.6984   89.8697 N   0  0  0  0  0  0  0  0  0  0  0  0
   71.1788   79.6541   88.9016 H   0  0  0  0  0  0  0  0  0  0  0  0
   71.3451   82.2329   89.6864 C   0  0  0  0  0  0  0  0  0  0  0  0
   72.4196   83.0902   89.3940 C   0  0  0  0  0  0  0  0  0  0  0  0
   72.2107   84.2635   88.6662 C   0  0  0  0  0  0  0  0  0  0  0  0
   70.9287   84.6018   88.2286 C   0  0  0  0  0  0  0  0  0  0  0  0
   69.8363   83.7649   88.5248 C   0  0  0  0  0  0  0  0  0  0  0  0
   70.0533   82.5887   89.2542 C   0  0  0  0  0  0  0  0  0  0  0  0
   68.5235   84.0604   88.1231 O   0  0  0  0  0  0  0  0  0  0  0  0
   68.0010   83.8727   86.8094 C   0  0  0  0  0  0  0  0  0  0  0  0
   66.6459   84.1417   86.8240 F   0  0  0  0  0  0  0  0  0  0  0  0
   68.6177   84.7375   85.9229 F   0  0  0  0  0  0  0  0  0  0  0  0
   68.1916   82.5636   86.4034 F   0  0  0  0  0  0  0  0  0  0  0  0
 17 18  2  0  0  0
 18 19  1  0  0  0
 19  1  1  0  0  0
  1  2  2  0  0  0
  2  3  1  0  0  0
  3  4  2  0  0  0
  4  6  1  0  0  0
  6  7  2  0  0  0
  7  8  1  0  0  0
  8  9  2  0  0  0
  9 10  1  0  0  0
 10 12  1  0  0  0
 12 13  1  0  0  0
 13 14  1  0  0  0
 13 15  1  0  0  0
 13 16  1  0  0  0
 10 11  2  0  0  0
  4  5  1  0  0  0
 18 21  1  0  0  0
 21 22  2  0  0  0
 22 23  1  0  0  0
 23 24  2  0  0  0
 24 25  1  0  0  0
 25 27  1  0  0  0
 27 28  1  0  0  0
 28 29  1  0  0  0
 28 30  1  0  0  0
 28 31  1  0  0  0
 25 26  2  0  0  0
  5  1  1  0  0  0
 26 21  1  0  0  0
 11  6  1  0  0  0
 19 20  1  0  0  0
M  END
> <score>
-0.247372

> <minimizedAffinity>
-7.71210

> <CNNscore>
0.4924031496

> <CNNaffinity>
6.0085020065

> <CNN_VS>
2.9586052895

$$$$
HIPS6705


 26 27  0  0  0  0  0  0  0  0999 V2000
   66.1880   76.8080   88.8059 O   0  0  0  0  0  0  0  0  0  0  0  0
   67.2537   77.4813   88.7978 C   0  0  0  0  0  0  0  0  0  0  0  0
   68.1492   77.4475   89.9217 N   0  0  0  0  0  0  0  0  0  0  0  0
   68.9112   78.0708   89.9293 H   0  0  0  0  0  0  0  0  0  0  0  0
   67.9948   76.5706   91.0119 N   0  0  0  0  0  0  0  0  0  0  0  0
   67.0217   76.6529   91.8686 C   0  0  0  0  0  0  0  0  0  0  0  0
   66.9280   75.7122   93.0058 C   0  0  0  0  0  0  0  0  0  0  0  0
   67.6183   74.4849   92.9921 C   0  0  0  0  0  0  0  0  0  0  0  0
   67.5215   73.6062   94.0749 C   0  0  0  0  0  0  0  0  0  0  0  0
   66.7359   73.9402   95.1848 C   0  0  0  0  0  0  0  0  0  0  0  0
   66.6323   73.0719   96.2693 O   0  0  0  0  0  0  0  0  0  0  0  0
   66.0483   75.1567   95.2063 C   0  0  0  0  0  0  0  0  0  0  0  0
   66.1411   76.0406   94.1258 C   0  0  0  0  0  0  0  0  0  0  0  0
   65.4623   77.2151   94.1762 F   0  0  0  0  0  0  0  0  0  0  0  0
   67.0909   72.2549   96.2607 H   0  0  0  0  0  0  0  0  0  0  0  0
   67.5759   78.3271   87.6016 C   0  0  0  0  0  0  0  0  0  0  0  0
   66.8596   79.5615   87.6469 O   0  0  0  0  0  0  0  0  0  0  0  0
   67.4341   80.8261   87.8557 C   0  0  0  0  0  0  0  0  0  0  0  0
   67.8234   81.2838   89.1284 C   0  0  0  0  0  0  0  0  0  0  0  0
   68.3887   82.5535   89.2800 C   0  0  0  0  0  0  0  0  0  0  0  0
   68.5785   83.3891   88.1662 C   0  0  0  0  0  0  0  0  0  0  0  0
   68.1910   82.9261   86.8962 C   0  0  0  0  0  0  0  0  0  0  0  0
   67.6256   81.6567   86.7466 C   0  0  0  0  0  0  0  0  0  0  0  0
   69.1607   84.6958   88.3264 N   0  0  0  0  0  0  0  0  0  0  0  0
   68.5836   85.7093   87.8807 O   0  0  0  0  0  0  0  0  0  0  0  0
   70.3647   84.8502   88.9749 O   0  0  0  0  0  0  0  0  0  0  0  0
  1  2  2  0  0  0
  2 16  1  0  0  0
 16 17  1  0  0  0
 17 18  1  0  0  0
 18 19  2  0  0  0
 19 20  1  0  0  0
 20 21  2  0  0  0
 21 24  1  0  0  0
 24 25  2  0  0  0
 24 26  1  0  0  0
 21 22  1  0  0  0
 22 23  2  0  0  0
  2  3  1  0  0  0
  3  5  1  0  0  0
  5  6  2  0  0  0
  6  7  1  0  0  0
  7  8  2  0  0  0
  8  9  1  0  0  0
  9 10  2  0  0  0
 10 11  1  0  0  0
 10 12  1  0  0  0
 12 13  2  0  0  0
 13 14  1  0  0  0
 23 18  1  0  0  0
 13  7  1  0  0  0
  3  4  1  0  0  0
 11 15  1  0  0  0
M  CHG 1  24   1
M  CHG 1  26  -1
M  END
> <score>
0.467977

> <minimizedAffinity>
-6.21336

> <CNNscore>
0.5213527083

> <CNNaffinity>
5.2333211899

> <CNN_VS>
2.7284061909

$$$$
HIPS6705


 26 27  0  0  0  0  0  0  0  0999 V2000
   66.0461   79.1640   90.4586 O   0  0  0  0  0  0  0  0  0  0  0  0
   67.2672   79.2785   90.1671 C   0  0  0  0  0  0  0  0  0  0  0  0
   68.2559   78.4700   90.8265 N   0  0  0  0  0  0  0  0  0  0  0  0
   69.2059   78.6653   90.6574 H   0  0  0  0  0  0  0  0  0  0  0  0
   67.9383   77.4137   91.7011 N   0  0  0  0  0  0  0  0  0  0  0  0
   68.0269   77.4996   92.9942 C   0  0  0  0  0  0  0  0  0  0  0  0
   67.6978   76.3448   93.8575 C   0  0  0  0  0  0  0  0  0  0  0  0
   68.7097   75.5158   94.3788 C   0  0  0  0  0  0  0  0  0  0  0  0
   68.3837   74.4286   95.1947 C   0  0  0  0  0  0  0  0  0  0  0  0
   67.0452   74.1547   95.5013 C   0  0  0  0  0  0  0  0  0  0  0  0
   66.7091   73.0738   96.3133 O   0  0  0  0  0  0  0  0  0  0  0  0
   66.0352   74.9733   94.9884 C   0  0  0  0  0  0  0  0  0  0  0  0
   66.3549   76.0630   94.1713 C   0  0  0  0  0  0  0  0  0  0  0  0
   65.3519   76.8403   93.6888 F   0  0  0  0  0  0  0  0  0  0  0  0
   67.3817   72.5214   96.6602 H   0  0  0  0  0  0  0  0  0  0  0  0
   67.6806   80.2762   89.1260 C   0  0  0  0  0  0  0  0  0  0  0  0
   67.1535   81.5688   89.4262 O   0  0  0  0  0  0  0  0  0  0  0  0
   67.5911   82.4017   90.4691 C   0  0  0  0  0  0  0  0  0  0  0  0
   68.9528   82.5930   90.7692 C   0  0  0  0  0  0  0  0  0  0  0  0
   69.3332   83.4321   91.8208 C   0  0  0  0  0  0  0  0  0  0  0  0
   68.3642   84.0974   92.5909 C   0  0  0  0  0  0  0  0  0  0  0  0
   67.0050   83.9058   92.2851 C   0  0  0  0  0  0  0  0  0  0  0  0
   66.6265   83.0662   91.2337 C   0  0  0  0  0  0  0  0  0  0  0  0
   68.7598   84.9604   93.6729 N   0  0  0  0  0  0  0  0  0  0  0  0
   68.8060   84.5323   94.8449 O   0  0  0  0  0  0  0  0  0  0  0  0
   69.0947   86.2736   93.4334 O   0  0  0  0  0  0  0  0  0  0  0  0
  1  2  2  0  0  0
  2 16  1  0  0  0
 16 17  1  0  0  0
 17 18  1  0  0  0
 18 19  2  0  0  0
 19 20  1  0  0  0
 20 21  2  0  0  0
 21 24  1  0  0  0
 24 25  2  0  0  0
 24 26  1  0  0  0
 21 22  1  0  0  0
 22 23  2  0  0  0
  2  3  1  0  0  0
  3  5  1  0  0  0
  5  6  2  0  0  0
  6  7  1  0  0  0
  7  8  2  0  0  0
  8  9  1  0  0  0
  9 10  2  0  0  0
 10 11  1  0  0  0
 10 12  1  0  0  0
 12 13  2  0  0  0
 13 14  1  0  0  0
 23 18  1  0  0  0
 13  7  1  0  0  0
  3  4  1  0  0  0
 11 15  1  0  0  0
M  CHG 1  24   1
M  CHG 1  26  -1
M  END
> <score>
0.467977

> <minimizedAffinity>
-5.46946

> <CNNscore>
0.4801832438

> <CNNaffinity>
5.2568292618

> <CNN_VS>
2.5242412090

$$$$
HIPS6705


 26 27  0  0  0  0  0  0  0  0999 V2000
   64.9070   80.1233   91.5567 O   0  0  0  0  0  0  0  0  0  0  0  0
   65.9910   80.7328   91.7631 C   0  0  0  0  0  0  0  0  0  0  0  0
   66.9136   80.2671   92.7622 N   0  0  0  0  0  0  0  0  0  0  0  0
   67.6930   80.8296   92.9751 H   0  0  0  0  0  0  0  0  0  0  0  0
   66.7620   79.0497   93.4524 N   0  0  0  0  0  0  0  0  0  0  0  0
   67.3691   77.9518   93.1155 C   0  0  0  0  0  0  0  0  0  0  0  0
   67.1504   76.6992   93.8707 C   0  0  0  0  0  0  0  0  0  0  0  0
   65.8511   76.2085   94.1031 C   0  0  0  0  0  0  0  0  0  0  0  0
   65.6597   75.0223   94.8174 C   0  0  0  0  0  0  0  0  0  0  0  0
   66.7610   74.3104   95.3084 C   0  0  0  0  0  0  0  0  0  0  0  0
   66.5818   73.1273   96.0216 O   0  0  0  0  0  0  0  0  0  0  0  0
   68.0537   74.7906   95.0813 C   0  0  0  0  0  0  0  0  0  0  0  0
   68.2520   75.9771   94.3671 C   0  0  0  0  0  0  0  0  0  0  0  0
   69.5195   76.4177   94.1618 F   0  0  0  0  0  0  0  0  0  0  0  0
   65.7176   72.8003   96.1771 H   0  0  0  0  0  0  0  0  0  0  0  0
   66.3065   81.9581   90.9574 C   0  0  0  0  0  0  0  0  0  0  0  0
   67.3225   81.6818   89.9929 O   0  0  0  0  0  0  0  0  0  0  0  0
   67.3527   80.5638   89.1433 C   0  0  0  0  0  0  0  0  0  0  0  0
   66.5649   80.4706   87.9807 C   0  0  0  0  0  0  0  0  0  0  0  0
   66.6322   79.3327   87.1712 C   0  0  0  0  0  0  0  0  0  0  0  0
   67.4872   78.2682   87.5039 C   0  0  0  0  0  0  0  0  0  0  0  0
   68.2749   78.3674   88.6646 C   0  0  0  0  0  0  0  0  0  0  0  0
   68.2059   79.5055   89.4730 C   0  0  0  0  0  0  0  0  0  0  0  0
   67.5536   77.0983   86.6679 N   0  0  0  0  0  0  0  0  0  0  0  0
   67.0597   76.0159   87.0467 O   0  0  0  0  0  0  0  0  0  0  0  0
   68.1630   77.1533   85.4352 O   0  0  0  0  0  0  0  0  0  0  0  0
  1  2  2  0  0  0
  2 16  1  0  0  0
 16 17  1  0  0  0
 17 18  1  0  0  0
 18 19  2  0  0  0
 19 20  1  0  0  0
 20 21  2  0  0  0
 21 24  1  0  0  0
 24 25  2  0  0  0
 24 26  1  0  0  0
 21 22  1  0  0  0
 22 23  2  0  0  0
  2  3  1  0  0  0
  3  5  1  0  0  0
  5  6  2  0  0  0
  6  7  1  0  0  0
  7  8  2  0  0  0
  8  9  1  0  0  0
  9 10  2  0  0  0
 10 11  1  0  0  0
 10 12  1  0  0  0
 12 13  2  0  0  0
 13 14  1  0  0  0
 23 18  1  0  0  0
 13  7  1  0  0  0
  3  4  1  0  0  0
 11 15  1  0  0  0
M  CHG 1  24   1
M  CHG 1  26  -1
M  END
> <score>
0.467977

> <minimizedAffinity>
-6.17031

> <CNNscore>
0.4729534090

> <CNNaffinity>
5.5505390167

> <CNN_VS>
2.6251463890

$$$$
HIPS6706


 25 27  0  0  0  0  0  0  0  0999 V2000
   67.2145   81.0832   91.7232 N   0  0  0  0  0  0  0  0  0  0  0  0
   66.7684   80.7996   92.9128 C   0  0  0  0  0  0  0  0  0  0  0  0
   66.3308   79.4581   93.3405 C   0  0  0  0  0  0  0  0  0  0  0  0
   65.3423   79.1547   94.2590 C   0  0  0  0  0  0  0  0  0  0  0  0
   65.3360   77.7808   94.3659 C   0  0  0  0  0  0  0  0  0  0  0  0
   66.3311   77.3272   93.5137 C   0  0  0  0  0  0  0  0  0  0  0  0
   66.9063   78.3537   92.9265 O   0  0  0  0  0  0  0  0  0  0  0  0
   66.7282   75.9204   93.2723 C   0  0  0  0  0  0  0  0  0  0  0  0
   66.3831   74.8928   94.1712 C   0  0  0  0  0  0  0  0  0  0  0  0
   66.7701   73.5727   93.9194 C   0  0  0  0  0  0  0  0  0  0  0  0
   67.5038   73.2625   92.7710 C   0  0  0  0  0  0  0  0  0  0  0  0
   67.9875   71.6056   92.4583 Cl  0  0  0  0  0  0  0  0  0  0  0  0
   67.8511   74.2746   91.8723 C   0  0  0  0  0  0  0  0  0  0  0  0
   67.4663   75.5957   92.1200 C   0  0  0  0  0  0  0  0  0  0  0  0
   65.2224   79.9517   90.1902 O   0  0  0  0  0  0  0  0  0  0  0  0
   66.4125   79.6648   89.8861 C   0  0  0  0  0  0  0  0  0  0  0  0
   67.4791   80.1357   90.7190 N   0  0  0  0  0  0  0  0  0  0  0  0
   68.3942   79.7969   90.5885 H   0  0  0  0  0  0  0  0  0  0  0  0
   66.6770   78.8263   88.6916 C   0  0  0  0  0  0  0  0  0  0  0  0
   66.4530   77.4362   88.7103 C   0  0  0  0  0  0  0  0  0  0  0  0
   66.7127   76.6617   87.5753 C   0  0  0  0  0  0  0  0  0  0  0  0
   67.2037   77.2613   86.4125 C   0  0  0  0  0  0  0  0  0  0  0  0
   67.5577   76.1997   84.8649 Br  0  0  0  0  0  0  0  0  0  0  0  0
   67.4415   78.6379   86.3863 C   0  0  0  0  0  0  0  0  0  0  0  0
   67.1844   79.4164   87.5189 C   0  0  0  0  0  0  0  0  0  0  0  0
 15 16  2  0  0  0
 16 17  1  0  0  0
 17  1  1  0  0  0
  1  2  2  0  0  0
  2  3  1  0  0  0
  3  4  2  0  0  0
  4  5  1  0  0  0
  5  6  2  0  0  0
  6  8  1  0  0  0
  8  9  2  0  0  0
  9 10  1  0  0  0
 10 11  2  0  0  0
 11 12  1  0  0  0
 11 13  1  0  0  0
 13 14  2  0  0  0
  6  7  1  0  0  0
 16 19  1  0  0  0
 19 20  2  0  0  0
 20 21  1  0  0  0
 21 22  2  0  0  0
 22 23  1  0  0  0
 22 24  1  0  0  0
 24 25  2  0  0  0
  7  3  1  0  0  0
 25 19  1  0  0  0
 14  8  1  0  0  0
 17 18  1  0  0  0
M  END
> <score>
0.172474

> <minimizedAffinity>
-6.27971

> <CNNscore>
0.7687550783

> <CNNaffinity>
6.3980674744

> <CNN_VS>
4.9185466766

$$$$
HIPS6706


 25 27  0  0  0  0  0  0  0  0999 V2000
   66.6362   79.3942   92.5462 N   0  0  0  0  0  0  0  0  0  0  0  0
   66.7831   78.6299   93.5897 C   0  0  0  0  0  0  0  0  0  0  0  0
   66.6404   77.1624   93.5742 C   0  0  0  0  0  0  0  0  0  0  0  0
   65.6995   76.4069   94.2501 C   0  0  0  0  0  0  0  0  0  0  0  0
   66.0006   75.0915   93.9702 C   0  0  0  0  0  0  0  0  0  0  0  0
   67.1168   75.1222   93.1483 C   0  0  0  0  0  0  0  0  0  0  0  0
   67.4735   76.3708   92.9404 O   0  0  0  0  0  0  0  0  0  0  0  0
   67.8362   73.9611   92.5744 C   0  0  0  0  0  0  0  0  0  0  0  0
   68.5172   73.0387   93.3921 C   0  0  0  0  0  0  0  0  0  0  0  0
   69.1881   71.9507   92.8249 C   0  0  0  0  0  0  0  0  0  0  0  0
   69.1877   71.7698   91.4391 C   0  0  0  0  0  0  0  0  0  0  0  0
   70.0303   70.4039   90.7309 Cl  0  0  0  0  0  0  0  0  0  0  0  0
   68.5147   72.6790   90.6185 C   0  0  0  0  0  0  0  0  0  0  0  0
   67.8426   73.7681   91.1813 C   0  0  0  0  0  0  0  0  0  0  0  0
   68.7305   79.1519   90.7702 O   0  0  0  0  0  0  0  0  0  0  0  0
   67.6052   78.7265   90.3909 C   0  0  0  0  0  0  0  0  0  0  0  0
   66.4621   78.9305   91.2306 N   0  0  0  0  0  0  0  0  0  0  0  0
   65.5579   78.7465   90.8873 H   0  0  0  0  0  0  0  0  0  0  0  0
   67.4876   78.0509   89.0758 C   0  0  0  0  0  0  0  0  0  0  0  0
   67.1933   76.6769   88.9836 C   0  0  0  0  0  0  0  0  0  0  0  0
   67.0911   76.0568   87.7344 C   0  0  0  0  0  0  0  0  0  0  0  0
   67.2866   76.7959   86.5647 C   0  0  0  0  0  0  0  0  0  0  0  0
   67.1468   75.9448   84.8606 Br  0  0  0  0  0  0  0  0  0  0  0  0
   67.5915   78.1572   86.6442 C   0  0  0  0  0  0  0  0  0  0  0  0
   67.6958   78.7814   87.8909 C   0  0  0  0  0  0  0  0  0  0  0  0
 15 16  2  0  0  0
 16 17  1  0  0  0
 17  1  1  0  0  0
  1  2  2  0  0  0
  2  3  1  0  0  0
  3  4  2  0  0  0
  4  5  1  0  0  0
  5  6  2  0  0  0
  6  8  1  0  0  0
  8  9  2  0  0  0
  9 10  1  0  0  0
 10 11  2  0  0  0
 11 12  1  0  0  0
 11 13  1  0  0  0
 13 14  2  0  0  0
  6  7  1  0  0  0
 16 19  1  0  0  0
 19 20  2  0  0  0
 20 21  1  0  0  0
 21 22  2  0  0  0
 22 23  1  0  0  0
 22 24  1  0  0  0
 24 25  2  0  0  0
  7  3  1  0  0  0
 25 19  1  0  0  0
 14  8  1  0  0  0
 17 18  1  0  0  0
M  END
> <score>
0.172474

> <minimizedAffinity>
-6.79129

> <CNNscore>
0.6096701026

> <CNNaffinity>
6.2088079453

> <CNN_VS>
3.7853245735

$$$$
HIPS6706


 25 27  0  0  0  0  0  0  0  0999 V2000
   69.9947   84.1294   88.1408 N   0  0  0  0  0  0  0  0  0  0  0  0
   69.2456   83.4580   87.3146 C   0  0  0  0  0  0  0  0  0  0  0  0
   68.2963   82.4046   87.7188 C   0  0  0  0  0  0  0  0  0  0  0  0
   67.5441   81.5938   86.8883 C   0  0  0  0  0  0  0  0  0  0  0  0
   66.7734   80.8123   87.7216 C   0  0  0  0  0  0  0  0  0  0  0  0
   67.0930   81.2017   89.0133 C   0  0  0  0  0  0  0  0  0  0  0  0
   67.9968   82.1561   88.9721 O   0  0  0  0  0  0  0  0  0  0  0  0
   66.5291   80.6649   90.2739 C   0  0  0  0  0  0  0  0  0  0  0  0
   65.1406   80.6372   90.5069 C   0  0  0  0  0  0  0  0  0  0  0  0
   64.6342   80.1246   91.7055 C   0  0  0  0  0  0  0  0  0  0  0  0
   65.5043   79.6346   92.6833 C   0  0  0  0  0  0  0  0  0  0  0  0
   64.8657   78.9922   94.1855 Cl  0  0  0  0  0  0  0  0  0  0  0  0
   66.8839   79.6570   92.4620 C   0  0  0  0  0  0  0  0  0  0  0  0
   67.3945   80.1686   91.2652 C   0  0  0  0  0  0  0  0  0  0  0  0
   68.7235   86.0498   89.6556 O   0  0  0  0  0  0  0  0  0  0  0  0
   69.1453   85.0276   90.2625 C   0  0  0  0  0  0  0  0  0  0  0  0
   69.9107   84.0538   89.5420 N   0  0  0  0  0  0  0  0  0  0  0  0
   70.3761   83.3343   90.0266 H   0  0  0  0  0  0  0  0  0  0  0  0
   68.8625   84.8718   91.7101 C   0  0  0  0  0  0  0  0  0  0  0  0
   68.8575   85.9812   92.5774 C   0  0  0  0  0  0  0  0  0  0  0  0
   68.5931   85.8134   93.9403 C   0  0  0  0  0  0  0  0  0  0  0  0
   68.3373   84.5397   94.4551 C   0  0  0  0  0  0  0  0  0  0  0  0
   67.9776   84.3150   96.3173 Br  0  0  0  0  0  0  0  0  0  0  0  0
   68.3521   83.4300   93.6062 C   0  0  0  0  0  0  0  0  0  0  0  0
   68.6169   83.5925   92.2430 C   0  0  0  0  0  0  0  0  0  0  0  0
 15 16  2  0  0  0
 16 17  1  0  0  0
 17  1  1  0  0  0
  1  2  2  0  0  0
  2  3  1  0  0  0
  3  4  2  0  0  0
  4  5  1  0  0  0
  5  6  2  0  0  0
  6  8  1  0  0  0
  8  9  2  0  0  0
  9 10  1  0  0  0
 10 11  2  0  0  0
 11 12  1  0  0  0
 11 13  1  0  0  0
 13 14  2  0  0  0
  6  7  1  0  0  0
 16 19  1  0  0  0
 19 20  2  0  0  0
 20 21  1  0  0  0
 21 22  2  0  0  0
 22 23  1  0  0  0
 22 24  1  0  0  0
 24 25  2  0  0  0
  7  3  1  0  0  0
 25 19  1  0  0  0
 14  8  1  0  0  0
 17 18  1  0  0  0
M  END
> <score>
0.172474

> <minimizedAffinity>
-5.97532

> <CNNscore>
0.5493680239

> <CNNaffinity>
6.1178960800

> <CNN_VS>
3.3609764576

$$$$
HIPS6707


 26 28  0  0  0  0  0  0  0  0999 V2000
   71.4603   76.5160   91.4595 N   0  0  0  0  0  0  0  0  0  0  0  0
   72.0406   77.5862   90.9967 C   0  0  0  0  0  0  0  0  0  0  0  0
   71.3228   78.7967   90.5514 C   0  0  0  0  0  0  0  0  0  0  0  0
   69.9537   78.9837   90.4760 C   0  0  0  0  0  0  0  0  0  0  0  0
   69.7734   80.2783   90.0399 C   0  0  0  0  0  0  0  0  0  0  0  0
   71.0444   80.8093   89.8846 C   0  0  0  0  0  0  0  0  0  0  0  0
   71.9403   79.9015   90.2042 O   0  0  0  0  0  0  0  0  0  0  0  0
   71.3925   82.1781   89.4371 C   0  0  0  0  0  0  0  0  0  0  0  0
   72.6712   82.6942   89.7138 C   0  0  0  0  0  0  0  0  0  0  0  0
   73.0213   83.9830   89.2999 C   0  0  0  0  0  0  0  0  0  0  0  0
   72.0999   84.7713   88.6052 C   0  0  0  0  0  0  0  0  0  0  0  0
   72.5413   86.3879   88.0868 Cl  0  0  0  0  0  0  0  0  0  0  0  0
   70.8264   84.2691   88.3241 C   0  0  0  0  0  0  0  0  0  0  0  0
   70.4719   82.9806   88.7361 C   0  0  0  0  0  0  0  0  0  0  0  0
   70.1260   74.9100   93.3449 O   0  0  0  0  0  0  0  0  0  0  0  0
   69.4377   75.4736   92.4503 C   0  0  0  0  0  0  0  0  0  0  0  0
   70.0720   76.2940   91.4621 N   0  0  0  0  0  0  0  0  0  0  0  0
   69.5196   76.7147   90.7642 H   0  0  0  0  0  0  0  0  0  0  0  0
   68.0487   75.3111   92.4144 O   0  0  0  0  0  0  0  0  0  0  0  0
   67.1543   76.0269   93.2638 C   0  0  0  0  0  0  0  0  0  0  0  0
   66.9139   77.4120   92.7276 C   0  0  0  0  0  0  0  0  0  0  0  0
   66.6813   77.6200   91.3576 C   0  0  0  0  0  0  0  0  0  0  0  0
   66.4412   78.9096   90.8728 C   0  0  0  0  0  0  0  0  0  0  0  0
   66.4289   79.9972   91.7504 C   0  0  0  0  0  0  0  0  0  0  0  0
   66.6552   79.7970   93.1150 C   0  0  0  0  0  0  0  0  0  0  0  0
   66.8954   78.5091   93.6040 C   0  0  0  0  0  0  0  0  0  0  0  0
 15 16  2  0  0  0
 16 17  1  0  0  0
 17  1  1  0  0  0
  1  2  2  0  0  0
  2  3  1  0  0  0
  3  4  2  0  0  0
  4  5  1  0  0  0
  5  6  2  0  0  0
  6  8  1  0  0  0
  8  9  2  0  0  0
  9 10  1  0  0  0
 10 11  2  0  0  0
 11 12  1  0  0  0
 11 13  1  0  0  0
 13 14  2  0  0  0
  6  7  1  0  0  0
 16 19  1  0  0  0
 19 20  1  0  0  0
 20 21  1  0  0  0
 21 22  2  0  0  0
 22 23  1  0  0  0
 23 24  2  0  0  0
 24 25  1  0  0  0
 25 26  2  0  0  0
  7  3  1  0  0  0
 26 21  1  0  0  0
 14  8  1  0  0  0
 17 18  1  0  0  0
M  END
> <score>
0.552979

> <minimizedAffinity>
-6.85179

> <CNNscore>
0.5846419334

> <CNNaffinity>
5.9066095352

> <CNN_VS>
3.4532516003

$$$$
HIPS6707


 26 28  0  0  0  0  0  0  0  0999 V2000
   69.1246   72.6412   91.7623 N   0  0  0  0  0  0  0  0  0  0  0  0
   68.5068   72.2066   90.7012 C   0  0  0  0  0  0  0  0  0  0  0  0
   67.8194   73.0732   89.7239 C   0  0  0  0  0  0  0  0  0  0  0  0
   66.9965   72.6805   88.6829 C   0  0  0  0  0  0  0  0  0  0  0  0
   66.5712   73.8437   88.0790 C   0  0  0  0  0  0  0  0  0  0  0  0
   67.1518   74.8795   88.7941 C   0  0  0  0  0  0  0  0  0  0  0  0
   67.8818   74.3834   89.7687 O   0  0  0  0  0  0  0  0  0  0  0  0
   67.0017   76.3321   88.5442 C   0  0  0  0  0  0  0  0  0  0  0  0
   67.2158   76.8391   87.2499 C   0  0  0  0  0  0  0  0  0  0  0  0
   67.0787   78.2062   86.9913 C   0  0  0  0  0  0  0  0  0  0  0  0
   66.7261   79.0830   88.0209 C   0  0  0  0  0  0  0  0  0  0  0  0
   66.5545   80.7979   87.6943 Cl  0  0  0  0  0  0  0  0  0  0  0  0
   66.5103   78.5909   89.3110 C   0  0  0  0  0  0  0  0  0  0  0  0
   66.6463   77.2242   89.5742 C   0  0  0  0  0  0  0  0  0  0  0  0
   70.1280   73.4737   94.2551 O   0  0  0  0  0  0  0  0  0  0  0  0
   69.6326   74.3472   93.4915 C   0  0  0  0  0  0  0  0  0  0  0  0
   69.1004   73.9717   92.2157 N   0  0  0  0  0  0  0  0  0  0  0  0
   68.7060   74.6658   91.6395 H   0  0  0  0  0  0  0  0  0  0  0  0
   69.6018   75.6920   93.8758 O   0  0  0  0  0  0  0  0  0  0  0  0
   69.2635   76.7533   92.9854 C   0  0  0  0  0  0  0  0  0  0  0  0
   67.8785   77.2639   93.2768 C   0  0  0  0  0  0  0  0  0  0  0  0
   66.9089   76.4211   93.8459 C   0  0  0  0  0  0  0  0  0  0  0  0
   65.6301   76.9111   94.1292 C   0  0  0  0  0  0  0  0  0  0  0  0
   65.3121   78.2431   93.8496 C   0  0  0  0  0  0  0  0  0  0  0  0
   66.2731   79.0881   93.2875 C   0  0  0  0  0  0  0  0  0  0  0  0
   67.5531   78.6022   93.0030 C   0  0  0  0  0  0  0  0  0  0  0  0
 15 16  2  0  0  0
 16 17  1  0  0  0
 17  1  1  0  0  0
  1  2  2  0  0  0
  2  3  1  0  0  0
  3  4  2  0  0  0
  4  5  1  0  0  0
  5  6  2  0  0  0
  6  8  1  0  0  0
  8  9  2  0  0  0
  9 10  1  0  0  0
 10 11  2  0  0  0
 11 12  1  0  0  0
 11 13  1  0  0  0
 13 14  2  0  0  0
  6  7  1  0  0  0
 16 19  1  0  0  0
 19 20  1  0  0  0
 20 21  1  0  0  0
 21 22  2  0  0  0
 22 23  1  0  0  0
 23 24  2  0  0  0
 24 25  1  0  0  0
 25 26  2  0  0  0
  7  3  1  0  0  0
 26 21  1  0  0  0
 14  8  1  0  0  0
 17 18  1  0  0  0
M  END
> <score>
0.552979

> <minimizedAffinity>
-7.06542

> <CNNscore>
0.5629330873

> <CNNaffinity>
6.1159162521

> <CNN_VS>
3.4428515434

$$$$
HIPS6707


 26 28  0  0  0  0  0  0  0  0999 V2000
   68.9571   72.5605   91.7081 N   0  0  0  0  0  0  0  0  0  0  0  0
   68.3818   72.1532   90.6129 C   0  0  0  0  0  0  0  0  0  0  0  0
   67.7261   73.0438   89.6354 C   0  0  0  0  0  0  0  0  0  0  0  0
   66.8832   72.6814   88.5994 C   0  0  0  0  0  0  0  0  0  0  0  0
   66.5031   73.8590   87.9931 C   0  0  0  0  0  0  0  0  0  0  0  0
   67.1287   74.8726   88.7020 C   0  0  0  0  0  0  0  0  0  0  0  0
   67.8422   74.3505   89.6752 O   0  0  0  0  0  0  0  0  0  0  0  0
   67.0370   76.3292   88.4474 C   0  0  0  0  0  0  0  0  0  0  0  0
   67.5886   76.8637   87.2692 C   0  0  0  0  0  0  0  0  0  0  0  0
   67.5125   78.2351   87.0082 C   0  0  0  0  0  0  0  0  0  0  0  0
   66.8851   79.0889   87.9195 C   0  0  0  0  0  0  0  0  0  0  0  0
   66.7907   80.8092   87.5901 Cl  0  0  0  0  0  0  0  0  0  0  0  0
   66.3329   78.5694   89.0935 C   0  0  0  0  0  0  0  0  0  0  0  0
   66.4066   77.1983   89.3586 C   0  0  0  0  0  0  0  0  0  0  0  0
   70.4119   73.4662   93.9391 O   0  0  0  0  0  0  0  0  0  0  0  0
   69.6757   74.2926   93.3336 C   0  0  0  0  0  0  0  0  0  0  0  0
   68.9082   73.8775   92.1976 N   0  0  0  0  0  0  0  0  0  0  0  0
   68.3294   74.5337   91.7464 H   0  0  0  0  0  0  0  0  0  0  0  0
   69.6033   75.6238   93.7577 O   0  0  0  0  0  0  0  0  0  0  0  0
   68.9911   76.6580   92.9901 C   0  0  0  0  0  0  0  0  0  0  0  0
   69.9441   77.1737   91.9463 C   0  0  0  0  0  0  0  0  0  0  0  0
   71.3286   76.9739   92.0785 C   0  0  0  0  0  0  0  0  0  0  0  0
   72.2039   77.4417   91.0933 C   0  0  0  0  0  0  0  0  0  0  0  0
   71.7042   78.1080   89.9708 C   0  0  0  0  0  0  0  0  0  0  0  0
   70.3278   78.3063   89.8308 C   0  0  0  0  0  0  0  0  0  0  0  0
   69.4490   77.8399   90.8135 C   0  0  0  0  0  0  0  0  0  0  0  0
 15 16  2  0  0  0
 16 17  1  0  0  0
 17  1  1  0  0  0
  1  2  2  0  0  0
  2  3  1  0  0  0
  3  4  2  0  0  0
  4  5  1  0  0  0
  5  6  2  0  0  0
  6  8  1  0  0  0
  8  9  2  0  0  0
  9 10  1  0  0  0
 10 11  2  0  0  0
 11 12  1  0  0  0
 11 13  1  0  0  0
 13 14  2  0  0  0
  6  7  1  0  0  0
 16 19  1  0  0  0
 19 20  1  0  0  0
 20 21  1  0  0  0
 21 22  2  0  0  0
 22 23  1  0  0  0
 23 24  2  0  0  0
 24 25  1  0  0  0
 25 26  2  0  0  0
  7  3  1  0  0  0
 26 21  1  0  0  0
 14  8  1  0  0  0
 17 18  1  0  0  0
M  END
> <score>
0.552979

> <minimizedAffinity>
-7.49593

> <CNNscore>
0.5319041610

> <CNNaffinity>
6.0555944443

> <CNN_VS>
3.2209959030

$$$$
HIPS6708


 22 23  0  0  0  0  0  0  0  0999 V2000
   68.3385   73.5020   90.5492 C   0  0  0  0  0  0  0  0  0  0  0  0
   67.6457   72.8083   89.5925 C   0  0  0  0  0  0  0  0  0  0  0  0
   66.9497   73.4311   88.5706 C   0  0  0  0  0  0  0  0  0  0  0  0
   66.9704   74.8078   88.5369 C   0  0  0  0  0  0  0  0  0  0  0  0
   67.6543   75.5651   89.4783 C   0  0  0  0  0  0  0  0  0  0  0  0
   68.3319   74.8784   90.4768 C   0  0  0  0  0  0  0  0  0  0  0  0
   69.0518   75.5650   91.4725 O   0  0  0  0  0  0  0  0  0  0  0  0
   69.0794   76.5016   91.4690 H   0  0  0  0  0  0  0  0  0  0  0  0
   68.5514   71.8381   92.2087 O   0  0  0  0  0  0  0  0  0  0  0  0
   69.0666   72.8134   91.6199 C   0  0  0  0  0  0  0  0  0  0  0  0
   70.3197   73.2253   91.9922 O   0  0  0  0  0  0  0  0  0  0  0  0
   70.7204   73.9545   91.5613 H   0  0  0  0  0  0  0  0  0  0  0  0
   66.2282   72.6440   87.5771 C   0  0  0  0  0  0  0  0  0  0  0  0
   66.9277   72.0139   86.6959 N   0  0  0  0  0  0  0  0  0  0  0  0
   66.2163   71.2642   85.7511 N   0  0  0  0  0  0  0  0  0  0  0  0
   66.2841   71.4717   84.3610 C   0  0  0  0  0  0  0  0  0  0  0  0
   67.0359   72.3941   83.9433 O   0  0  0  0  0  0  0  0  0  0  0  0
   65.6305   70.5450   86.0810 H   0  0  0  0  0  0  0  0  0  0  0  0
   65.4974   70.6316   83.4356 C   0  0  0  0  0  0  0  0  0  0  0  0
   63.9857   70.6616   83.6939 C   0  0  0  0  0  0  0  0  0  0  0  0
   63.8355   70.5665   82.1699 C   0  0  0  0  0  0  0  0  0  0  0  0
   65.1821   71.2977   82.0935 C   0  0  0  0  0  0  0  0  0  0  0  0
  9 10  2  0  0  0
 10 11  1  0  0  0
 10  1  1  0  0  0
  1  2  2  0  0  0
  2  3  1  0  0  0
  3 13  1  0  0  0
 13 14  2  0  0  0
 14 15  1  0  0  0
 15 16  1  0  0  0
 16 17  2  0  0  0
 16 19  1  0  0  0
 19 20  1  0  0  0
 20 21  1  0  0  0
 21 22  1  0  0  0
  3  4  2  0  0  0
  4  5  1  0  0  0
  5  6  2  0  0  0
  6  7  1  0  0  0
  6  1  1  0  0  0
 22 19  1  0  0  0
 11 12  1  0  0  0
 15 18  1  0  0  0
  7  8  1  0  0  0
M  END
> <score>
0.273774

> <minimizedAffinity>
-7.29900

> <CNNscore>
0.6943752170

> <CNNaffinity>
4.7422008514

> <CNN_VS>
3.2928667068

$$$$
HIPS6708


 22 23  0  0  0  0  0  0  0  0999 V2000
   67.9896   74.3688   94.5423 C   0  0  0  0  0  0  0  0  0  0  0  0
   67.8932   75.3453   93.5864 C   0  0  0  0  0  0  0  0  0  0  0  0
   66.8091   76.2014   93.4951 C   0  0  0  0  0  0  0  0  0  0  0  0
   65.7976   76.0438   94.4165 C   0  0  0  0  0  0  0  0  0  0  0  0
   65.8386   75.0728   95.4078 C   0  0  0  0  0  0  0  0  0  0  0  0
   66.9541   74.2470   95.4439 C   0  0  0  0  0  0  0  0  0  0  0  0
   67.0799   73.2355   96.4146 O   0  0  0  0  0  0  0  0  0  0  0  0
   66.4039   73.1105   97.0512 H   0  0  0  0  0  0  0  0  0  0  0  0
   69.1594   72.3977   93.9817 O   0  0  0  0  0  0  0  0  0  0  0  0
   69.1515   73.4767   94.6134 C   0  0  0  0  0  0  0  0  0  0  0  0
   70.2444   73.8091   95.3707 O   0  0  0  0  0  0  0  0  0  0  0  0
   70.2549   74.6139   95.8503 H   0  0  0  0  0  0  0  0  0  0  0  0
   66.7570   77.2246   92.4570 C   0  0  0  0  0  0  0  0  0  0  0  0
   66.4458   78.4226   92.8186 N   0  0  0  0  0  0  0  0  0  0  0  0
   66.4013   79.3901   91.8072 N   0  0  0  0  0  0  0  0  0  0  0  0
   66.7105   80.7497   91.9971 C   0  0  0  0  0  0  0  0  0  0  0  0
   67.0493   81.1162   93.1553 O   0  0  0  0  0  0  0  0  0  0  0  0
   66.1363   79.1002   90.9045 H   0  0  0  0  0  0  0  0  0  0  0  0
   66.6366   81.7025   90.8712 C   0  0  0  0  0  0  0  0  0  0  0  0
   66.3931   83.1562   91.2959 C   0  0  0  0  0  0  0  0  0  0  0  0
   67.3128   83.5350   90.1275 C   0  0  0  0  0  0  0  0  0  0  0  0
   67.9983   82.1825   90.3617 C   0  0  0  0  0  0  0  0  0  0  0  0
  9 10  2  0  0  0
 10 11  1  0  0  0
 10  1  1  0  0  0
  1  2  2  0  0  0
  2  3  1  0  0  0
  3 13  1  0  0  0
 13 14  2  0  0  0
 14 15  1  0  0  0
 15 16  1  0  0  0
 16 17  2  0  0  0
 16 19  1  0  0  0
 19 20  1  0  0  0
 20 21  1  0  0  0
 21 22  1  0  0  0
  3  4  2  0  0  0
  4  5  1  0  0  0
  5  6  2  0  0  0
  6  7  1  0  0  0
  6  1  1  0  0  0
 22 19  1  0  0  0
 11 12  1  0  0  0
 15 18  1  0  0  0
  7  8  1  0  0  0
M  END
> <score>
0.273774

> <minimizedAffinity>
-5.90086

> <CNNscore>
0.6751087904

> <CNNaffinity>
4.6322088242

> <CNN_VS>
3.1272449493

$$$$
HIPS6708


 22 23  0  0  0  0  0  0  0  0999 V2000
   67.6399   75.1847   89.5898 C   0  0  0  0  0  0  0  0  0  0  0  0
   66.9731   74.6230   88.5332 C   0  0  0  0  0  0  0  0  0  0  0  0
   66.8711   73.2542   88.3525 C   0  0  0  0  0  0  0  0  0  0  0  0
   67.4746   72.4445   89.2890 C   0  0  0  0  0  0  0  0  0  0  0  0
   68.1642   72.9551   90.3805 C   0  0  0  0  0  0  0  0  0  0  0  0
   68.2289   74.3366   90.5028 C   0  0  0  0  0  0  0  0  0  0  0  0
   68.9070   74.9411   91.5778 O   0  0  0  0  0  0  0  0  0  0  0  0
   69.3248   74.4096   92.2266 H   0  0  0  0  0  0  0  0  0  0  0  0
   67.1584   77.2039   90.7118 O   0  0  0  0  0  0  0  0  0  0  0  0
   67.7306   76.6392   89.7541 C   0  0  0  0  0  0  0  0  0  0  0  0
   68.4414   77.4018   88.8643 O   0  0  0  0  0  0  0  0  0  0  0  0
   68.8761   76.9946   88.1410 H   0  0  0  0  0  0  0  0  0  0  0  0
   66.1488   72.7085   87.2090 C   0  0  0  0  0  0  0  0  0  0  0  0
   66.8236   72.0175   86.3546 N   0  0  0  0  0  0  0  0  0  0  0  0
   66.1119   71.5025   85.2642 N   0  0  0  0  0  0  0  0  0  0  0  0
   66.6618   70.6468   84.2918 C   0  0  0  0  0  0  0  0  0  0  0  0
   67.8752   70.3254   84.4145 O   0  0  0  0  0  0  0  0  0  0  0  0
   65.1650   71.7556   85.1718 H   0  0  0  0  0  0  0  0  0  0  0  0
   65.8360   70.1502   83.1727 C   0  0  0  0  0  0  0  0  0  0  0  0
   64.4506   69.6437   83.5934 C   0  0  0  0  0  0  0  0  0  0  0  0
   63.9560   70.2259   82.2627 C   0  0  0  0  0  0  0  0  0  0  0  0
   65.0935   71.2459   82.4030 C   0  0  0  0  0  0  0  0  0  0  0  0
  9 10  2  0  0  0
 10 11  1  0  0  0
 10  1  1  0  0  0
  1  2  2  0  0  0
  2  3  1  0  0  0
  3 13  1  0  0  0
 13 14  2  0  0  0
 14 15  1  0  0  0
 15 16  1  0  0  0
 16 17  2  0  0  0
 16 19  1  0  0  0
 19 20  1  0  0  0
 20 21  1  0  0  0
 21 22  1  0  0  0
  3  4  2  0  0  0
  4  5  1  0  0  0
  5  6  2  0  0  0
  6  7  1  0  0  0
  6  1  1  0  0  0
 22 19  1  0  0  0
 11 12  1  0  0  0
 15 18  1  0  0  0
  7  8  1  0  0  0
M  END
> <score>
0.273774

> <minimizedAffinity>
-6.97400

> <CNNscore>
0.5666957498

> <CNNaffinity>
4.6634788513

> <CNN_VS>
2.6427736282

$$$$
HIPS6709


 20 21  0  0  0  0  0  0  0  0999 V2000
   69.2703   73.0502   91.7495 C   0  0  0  0  0  0  0  0  0  0  0  0
   68.3752   72.4238   90.8618 C   0  0  0  0  0  0  0  0  0  0  0  0
   67.6365   73.1776   89.9308 C   0  0  0  0  0  0  0  0  0  0  0  0
   67.8004   74.5637   89.8919 C   0  0  0  0  0  0  0  0  0  0  0  0
   68.6986   75.1950   90.7523 C   0  0  0  0  0  0  0  0  0  0  0  0
   69.4527   74.4523   91.6668 C   0  0  0  0  0  0  0  0  0  0  0  0
   70.3910   75.1356   92.4431 O   0  0  0  0  0  0  0  0  0  0  0  0
   70.4814   76.0644   92.3590 H   0  0  0  0  0  0  0  0  0  0  0  0
   71.1565   72.4714   93.0728 O   0  0  0  0  0  0  0  0  0  0  0  0
   69.9600   72.2220   92.7630 C   0  0  0  0  0  0  0  0  0  0  0  0
   69.3204   71.1278   93.3382 O   0  0  0  0  0  0  0  0  0  0  0  0
   68.4313   70.9340   93.1146 H   0  0  0  0  0  0  0  0  0  0  0  0
   66.7295   72.5908   89.0355 O   0  0  0  0  0  0  0  0  0  0  0  0
   66.5542   72.9973   87.6815 C   0  0  0  0  0  0  0  0  0  0  0  0
   66.9838   71.8891   86.7770 C   0  0  0  0  0  0  0  0  0  0  0  0
   66.6206   71.8230   85.4341 C   0  0  0  0  0  0  0  0  0  0  0  0
   67.2521   70.3983   84.8022 S   0  0  0  0  0  0  0  0  0  0  0  0
   67.9444   69.9287   86.2584 C   0  0  0  0  0  0  0  0  0  0  0  0
   68.9296   68.3192   86.5218 Br  0  0  0  0  0  0  0  0  0  0  0  0
   67.7082   70.8314   87.2333 N   0  0  0  0  0  0  0  0  0  0  0  0
  9 10  2  0  0  0
 10 11  1  0  0  0
 10  1  1  0  0  0
  1  2  2  0  0  0
  2  3  1  0  0  0
  3 13  1  0  0  0
 13 14  1  0  0  0
 14 15  1  0  0  0
 15 16  2  0  0  0
 16 17  1  0  0  0
 17 18  1  0  0  0
 18 19  1  0  0  0
 18 20  2  0  0  0
  3  4  2  0  0  0
  4  5  1  0  0  0
  5  6  2  0  0  0
  6  7  1  0  0  0
  6  1  1  0  0  0
 20 15  2  0  0  0
 11 12  1  0  0  0
  7  8  1  0  0  0
M  END
> <score>
0.454141

> <minimizedAffinity>
-6.58349

> <CNNscore>
0.9492365122

> <CNNaffinity>
5.2180852890

> <CNN_VS>
4.9531970024

$$$$
HIPS6709


 20 21  0  0  0  0  0  0  0  0999 V2000
   69.2496   73.0350   91.8529 C   0  0  0  0  0  0  0  0  0  0  0  0
   68.3834   72.3796   90.9573 C   0  0  0  0  0  0  0  0  0  0  0  0
   67.7203   73.0937   89.9420 C   0  0  0  0  0  0  0  0  0  0  0  0
   67.9306   74.4692   89.8266 C   0  0  0  0  0  0  0  0  0  0  0  0
   68.8015   75.1277   90.6947 C   0  0  0  0  0  0  0  0  0  0  0  0
   69.4813   74.4231   91.6937 C   0  0  0  0  0  0  0  0  0  0  0  0
   70.3983   75.1270   92.4770 O   0  0  0  0  0  0  0  0  0  0  0  0
   70.5230   76.0456   92.3408 H   0  0  0  0  0  0  0  0  0  0  0  0
   69.5367   71.0452   93.1187 O   0  0  0  0  0  0  0  0  0  0  0  0
   69.8570   72.2533   92.9522 C   0  0  0  0  0  0  0  0  0  0  0  0
   70.7373   72.8550   93.8469 O   0  0  0  0  0  0  0  0  0  0  0  0
   70.9816   73.7522   93.7319 H   0  0  0  0  0  0  0  0  0  0  0  0
   66.8440   72.4776   89.0359 O   0  0  0  0  0  0  0  0  0  0  0  0
   66.6123   72.9273   87.7042 C   0  0  0  0  0  0  0  0  0  0  0  0
   66.8071   71.7864   86.7602 C   0  0  0  0  0  0  0  0  0  0  0  0
   67.7076   70.7510   86.9986 C   0  0  0  0  0  0  0  0  0  0  0  0
   67.6640   69.7187   85.6718 S   0  0  0  0  0  0  0  0  0  0  0  0
   66.5178   70.6356   84.8558 C   0  0  0  0  0  0  0  0  0  0  0  0
   65.8152   70.2131   83.1358 Br  0  0  0  0  0  0  0  0  0  0  0  0
   66.1576   71.7251   85.5660 N   0  0  0  0  0  0  0  0  0  0  0  0
  9 10  2  0  0  0
 10 11  1  0  0  0
 10  1  1  0  0  0
  1  2  2  0  0  0
  2  3  1  0  0  0
  3 13  1  0  0  0
 13 14  1  0  0  0
 14 15  1  0  0  0
 15 16  2  0  0  0
 16 17  1  0  0  0
 17 18  1  0  0  0
 18 19  1  0  0  0
 18 20  2  0  0  0
  3  4  2  0  0  0
  4  5  1  0  0  0
  5  6  2  0  0  0
  6  7  1  0  0  0
  6  1  1  0  0  0
 20 15  2  0  0  0
 11 12  1  0  0  0
  7  8  1  0  0  0
M  END
> <score>
0.454141

> <minimizedAffinity>
-6.89250

> <CNNscore>
0.9227558970

> <CNNaffinity>
5.1350021362

> <CNN_VS>
4.7383537292

$$$$
HIPS6709


 20 21  0  0  0  0  0  0  0  0999 V2000
   68.6874   75.2201   90.7810 C   0  0  0  0  0  0  0  0  0  0  0  0
   67.8006   74.5999   89.8806 C   0  0  0  0  0  0  0  0  0  0  0  0
   67.7367   73.1975   89.7815 C   0  0  0  0  0  0  0  0  0  0  0  0
   68.5653   72.4181   90.5911 C   0  0  0  0  0  0  0  0  0  0  0  0
   69.4344   73.0191   91.5016 C   0  0  0  0  0  0  0  0  0  0  0  0
   69.4901   74.4115   91.6224 C   0  0  0  0  0  0  0  0  0  0  0  0
   70.3224   74.9463   92.6080 O   0  0  0  0  0  0  0  0  0  0  0  0
   70.8383   74.3774   93.1447 H   0  0  0  0  0  0  0  0  0  0  0  0
   67.7221   77.3905   90.7489 O   0  0  0  0  0  0  0  0  0  0  0  0
   68.7743   76.6969   90.7870 C   0  0  0  0  0  0  0  0  0  0  0  0
   70.0118   77.3337   90.7735 O   0  0  0  0  0  0  0  0  0  0  0  0
   70.7997   76.8273   90.8015 H   0  0  0  0  0  0  0  0  0  0  0  0
   66.8720   72.5431   88.8913 O   0  0  0  0  0  0  0  0  0  0  0  0
   66.6376   72.9511   87.5467 C   0  0  0  0  0  0  0  0  0  0  0  0
   66.8140   71.7774   86.6400 C   0  0  0  0  0  0  0  0  0  0  0  0
   67.7064   70.7418   86.9059 C   0  0  0  0  0  0  0  0  0  0  0  0
   67.6424   69.6662   85.6148 S   0  0  0  0  0  0  0  0  0  0  0  0
   66.4985   70.5665   84.7774 C   0  0  0  0  0  0  0  0  0  0  0  0
   65.7782   70.0938   83.0780 Br  0  0  0  0  0  0  0  0  0  0  0  0
   66.1544   71.6826   85.4535 N   0  0  0  0  0  0  0  0  0  0  0  0
  9 10  2  0  0  0
 10 11  1  0  0  0
 10  1  1  0  0  0
  1  2  2  0  0  0
  2  3  1  0  0  0
  3 13  1  0  0  0
 13 14  1  0  0  0
 14 15  1  0  0  0
 15 16  2  0  0  0
 16 17  1  0  0  0
 17 18  1  0  0  0
 18 19  1  0  0  0
 18 20  2  0  0  0
  3  4  2  0  0  0
  4  5  1  0  0  0
  5  6  2  0  0  0
  6  7  1  0  0  0
  6  1  1  0  0  0
 20 15  2  0  0  0
 11 12  1  0  0  0
  7  8  1  0  0  0
M  END
> <score>
0.454141

> <minimizedAffinity>
-6.44326

> <CNNscore>
0.8557493687

> <CNNaffinity>
4.9808454514

> <CNN_VS>
4.2623553276

$$$$
HIPS6710


 34 37  0  0  0  0  0  0  0  0999 V2000
   66.9439   78.7224   91.6074 C   0  0  0  0  0  0  0  0  0  0  0  0
   66.7208   79.5891   92.6729 C   0  0  0  0  0  0  0  0  0  0  0  0
   66.7695   81.1569   92.0700 S   0  0  0  0  0  0  0  0  0  0  0  0
   67.0753   80.6721   90.4842 C   0  0  0  0  0  0  0  0  0  0  0  0
   67.1423   79.3242   90.4035 N   0  0  0  0  0  0  0  0  0  0  0  0
   67.2817   81.5688   89.3244 C   0  0  0  0  0  0  0  0  0  0  0  0
   67.4003   81.0308   88.0315 C   0  0  0  0  0  0  0  0  0  0  0  0
   67.6021   81.8686   86.9331 C   0  0  0  0  0  0  0  0  0  0  0  0
   67.6900   83.2506   87.1091 C   0  0  0  0  0  0  0  0  0  0  0  0
   67.5791   83.8085   88.3962 C   0  0  0  0  0  0  0  0  0  0  0  0
   67.3713   82.9629   89.4931 C   0  0  0  0  0  0  0  0  0  0  0  0
   67.6668   85.1903   88.6324 O   0  0  0  0  0  0  0  0  0  0  0  0
   68.7389   85.8454   89.3115 C   0  0  0  0  0  0  0  0  0  0  0  0
   70.0699   85.3291   88.8325 C   0  0  0  0  0  0  0  0  0  0  0  0
   70.6464   85.8495   87.6622 C   0  0  0  0  0  0  0  0  0  0  0  0
   71.8789   85.3692   87.2102 C   0  0  0  0  0  0  0  0  0  0  0  0
   72.5407   84.3618   87.9173 C   0  0  0  0  0  0  0  0  0  0  0  0
   71.9685   83.8293   89.0772 C   0  0  0  0  0  0  0  0  0  0  0  0
   72.7979   82.5618   89.9618 Cl  0  0  0  0  0  0  0  0  0  0  0  0
   70.7342   84.3073   89.5318 C   0  0  0  0  0  0  0  0  0  0  0  0
   67.0313   77.2358   91.7713 C   0  0  0  0  0  0  0  0  0  0  0  0
   66.2499   76.8101   92.8880 O   0  0  0  0  0  0  0  0  0  0  0  0
   68.1702   74.1265   94.6694 C   0  0  0  0  0  0  0  0  0  0  0  0
   67.8362   75.1125   93.7228 C   0  0  0  0  0  0  0  0  0  0  0  0
   66.6141   75.8063   93.8015 C   0  0  0  0  0  0  0  0  0  0  0  0
   65.7158   75.4874   94.8220 C   0  0  0  0  0  0  0  0  0  0  0  0
   66.0385   74.5198   95.7737 C   0  0  0  0  0  0  0  0  0  0  0  0
   67.2669   73.8528   95.7250 C   0  0  0  0  0  0  0  0  0  0  0  0
   67.5637   72.9587   96.7559 O   0  0  0  0  0  0  0  0  0  0  0  0
   66.9387   72.8046   97.4368 H   0  0  0  0  0  0  0  0  0  0  0  0
   69.7731   72.5083   95.3441 O   0  0  0  0  0  0  0  0  0  0  0  0
   69.4419   73.3887   94.5044 C   0  0  0  0  0  0  0  0  0  0  0  0
   70.3096   73.6970   93.4607 O   0  0  0  0  0  0  0  0  0  0  0  0
   70.0725   74.3497   92.8316 H   0  0  0  0  0  0  0  0  0  0  0  0
 31 32  2  0  0  0
 32 33  1  0  0  0
 32 23  1  0  0  0
 23 24  2  0  0  0
 24 25  1  0  0  0
 25 22  1  0  0  0
 22 21  1  0  0  0
 21  1  1  0  0  0
  1  2  2  0  0  0
  2  3  1  0  0  0
  3  4  1  0  0  0
  4  6  1  0  0  0
  6  7  2  0  0  0
  7  8  1  0  0  0
  8  9  2  0  0  0
  9 10  1  0  0  0
 10 12  1  0  0  0
 12 13  1  0  0  0
 13 14  1  0  0  0
 14 15  2  0  0  0
 15 16  1  0  0  0
 16 17  2  0  0  0
 17 18  1  0  0  0
 18 19  1  0  0  0
 18 20  2  0  0  0
 10 11  2  0  0  0
  4  5  2  0  0  0
 25 26  2  0  0  0
 26 27  1  0  0  0
 27 28  2  0  0  0
 28 29  1  0  0  0
 28 23  1  0  0  0
  5  1  2  0  0  0
 11  6  1  0  0  0
 20 14  1  0  0  0
 33 34  1  0  0  0
 29 30  1  0  0  0
M  END
> <score>
-0.465219

> <minimizedAffinity>
-8.25787

> <CNNscore>
0.8264394999

> <CNNaffinity>
6.6146297455

> <CNN_VS>
5.4665913582

$$$$
HIPS6710


 34 37  0  0  0  0  0  0  0  0999 V2000
   68.7119   77.7897   90.7453 C   0  0  0  0  0  0  0  0  0  0  0  0
   69.9514   77.1612   90.6754 C   0  0  0  0  0  0  0  0  0  0  0  0
   71.1019   78.3432   90.3542 S   0  0  0  0  0  0  0  0  0  0  0  0
   69.9806   79.6019   90.3133 C   0  0  0  0  0  0  0  0  0  0  0  0
   68.7327   79.1347   90.5416 N   0  0  0  0  0  0  0  0  0  0  0  0
   70.2794   81.0249   90.0350 C   0  0  0  0  0  0  0  0  0  0  0  0
   71.6125   81.4539   89.9173 C   0  0  0  0  0  0  0  0  0  0  0  0
   71.9035   82.7953   89.6619 C   0  0  0  0  0  0  0  0  0  0  0  0
   70.8715   83.7249   89.5229 C   0  0  0  0  0  0  0  0  0  0  0  0
   69.5302   83.3165   89.6425 C   0  0  0  0  0  0  0  0  0  0  0  0
   69.2451   81.9684   89.8933 C   0  0  0  0  0  0  0  0  0  0  0  0
   68.4530   84.2093   89.5188 O   0  0  0  0  0  0  0  0  0  0  0  0
   68.2537   85.3779   90.3153 C   0  0  0  0  0  0  0  0  0  0  0  0
   68.3168   85.0425   91.7819 C   0  0  0  0  0  0  0  0  0  0  0  0
   68.7999   85.9895   92.6998 C   0  0  0  0  0  0  0  0  0  0  0  0
   68.8662   85.6806   94.0616 C   0  0  0  0  0  0  0  0  0  0  0  0
   68.4589   84.4235   94.5159 C   0  0  0  0  0  0  0  0  0  0  0  0
   67.9877   83.4700   93.6075 C   0  0  0  0  0  0  0  0  0  0  0  0
   67.4808   81.8906   94.1781 Cl  0  0  0  0  0  0  0  0  0  0  0  0
   67.9211   83.7757   92.2434 C   0  0  0  0  0  0  0  0  0  0  0  0
   67.4310   77.0429   90.9594 C   0  0  0  0  0  0  0  0  0  0  0  0
   67.0124   77.1500   92.3204 O   0  0  0  0  0  0  0  0  0  0  0  0
   68.1177   74.3057   94.5001 C   0  0  0  0  0  0  0  0  0  0  0  0
   68.1566   75.3345   93.5409 C   0  0  0  0  0  0  0  0  0  0  0  0
   67.0117   76.1026   93.2571 C   0  0  0  0  0  0  0  0  0  0  0  0
   65.8185   75.8160   93.9237 C   0  0  0  0  0  0  0  0  0  0  0  0
   65.7683   74.8063   94.8850 C   0  0  0  0  0  0  0  0  0  0  0  0
   66.9109   74.0638   95.2002 C   0  0  0  0  0  0  0  0  0  0  0  0
   66.8146   73.1272   96.2315 O   0  0  0  0  0  0  0  0  0  0  0  0
   65.9974   72.9962   96.6707 H   0  0  0  0  0  0  0  0  0  0  0  0
   69.4747   72.8396   95.7853 O   0  0  0  0  0  0  0  0  0  0  0  0
   69.3347   73.4928   94.7159 C   0  0  0  0  0  0  0  0  0  0  0  0
   70.3590   73.4865   93.7734 O   0  0  0  0  0  0  0  0  0  0  0  0
   70.2645   73.9688   92.9756 H   0  0  0  0  0  0  0  0  0  0  0  0
 31 32  2  0  0  0
 32 33  1  0  0  0
 32 23  1  0  0  0
 23 24  2  0  0  0
 24 25  1  0  0  0
 25 22  1  0  0  0
 22 21  1  0  0  0
 21  1  1  0  0  0
  1  2  2  0  0  0
  2  3  1  0  0  0
  3  4  1  0  0  0
  4  6  1  0  0  0
  6  7  2  0  0  0
  7  8  1  0  0  0
  8  9  2  0  0  0
  9 10  1  0  0  0
 10 12  1  0  0  0
 12 13  1  0  0  0
 13 14  1  0  0  0
 14 15  2  0  0  0
 15 16  1  0  0  0
 16 17  2  0  0  0
 17 18  1  0  0  0
 18 19  1  0  0  0
 18 20  2  0  0  0
 10 11  2  0  0  0
  4  5  2  0  0  0
 25 26  2  0  0  0
 26 27  1  0  0  0
 27 28  2  0  0  0
 28 29  1  0  0  0
 28 23  1  0  0  0
  5  1  2  0  0  0
 11  6  1  0  0  0
 20 14  1  0  0  0
 33 34  1  0  0  0
 29 30  1  0  0  0
M  END
> <score>
-0.465219

> <minimizedAffinity>
-7.88972

> <CNNscore>
0.7188658118

> <CNNaffinity>
6.7230253220

> <CNN_VS>
4.8329529762

$$$$
HIPS6710


 34 37  0  0  0  0  0  0  0  0999 V2000
   69.0602   77.9458   90.8697 C   0  0  0  0  0  0  0  0  0  0  0  0
   70.2408   77.2097   90.8477 C   0  0  0  0  0  0  0  0  0  0  0  0
   71.4891   78.2649   90.4579 S   0  0  0  0  0  0  0  0  0  0  0  0
   70.4806   79.6102   90.3295 C   0  0  0  0  0  0  0  0  0  0  0  0
   69.1970   79.2680   90.5800 N   0  0  0  0  0  0  0  0  0  0  0  0
   70.9012   80.9813   89.9619 C   0  0  0  0  0  0  0  0  0  0  0  0
   72.1831   81.4409   90.3096 C   0  0  0  0  0  0  0  0  0  0  0  0
   72.5853   82.7348   89.9731 C   0  0  0  0  0  0  0  0  0  0  0  0
   71.7161   83.5862   89.2888 C   0  0  0  0  0  0  0  0  0  0  0  0
   70.4267   83.1468   88.9363 C   0  0  0  0  0  0  0  0  0  0  0  0
   70.0314   81.8458   89.2720 C   0  0  0  0  0  0  0  0  0  0  0  0
   69.5090   83.9625   88.2542 O   0  0  0  0  0  0  0  0  0  0  0  0
   68.1400   84.1470   88.6166 C   0  0  0  0  0  0  0  0  0  0  0  0
   67.4259   82.8238   88.6997 C   0  0  0  0  0  0  0  0  0  0  0  0
   67.2143   82.0646   87.5372 C   0  0  0  0  0  0  0  0  0  0  0  0
   66.5465   80.8385   87.6083 C   0  0  0  0  0  0  0  0  0  0  0  0
   66.0786   80.3655   88.8371 C   0  0  0  0  0  0  0  0  0  0  0  0
   66.2744   81.1204   89.9982 C   0  0  0  0  0  0  0  0  0  0  0  0
   65.6827   80.5279   91.5395 Cl  0  0  0  0  0  0  0  0  0  0  0  0
   66.9416   82.3488   89.9301 C   0  0  0  0  0  0  0  0  0  0  0  0
   67.7195   77.3274   91.1239 C   0  0  0  0  0  0  0  0  0  0  0  0
   67.3901   77.4027   92.5113 O   0  0  0  0  0  0  0  0  0  0  0  0
   68.2129   74.3740   94.5639 C   0  0  0  0  0  0  0  0  0  0  0  0
   68.3608   75.4509   93.6704 C   0  0  0  0  0  0  0  0  0  0  0  0
   67.2803   76.3059   93.3829 C   0  0  0  0  0  0  0  0  0  0  0  0
   66.0413   76.0594   93.9780 C   0  0  0  0  0  0  0  0  0  0  0  0
   65.8831   75.0020   94.8742 C   0  0  0  0  0  0  0  0  0  0  0  0
   66.9614   74.1709   95.1946 C   0  0  0  0  0  0  0  0  0  0  0  0
   66.7586   73.1853   96.1629 O   0  0  0  0  0  0  0  0  0  0  0  0
   65.9148   73.0825   96.5571 H   0  0  0  0  0  0  0  0  0  0  0  0
   69.4703   72.8372   95.8676 O   0  0  0  0  0  0  0  0  0  0  0  0
   69.3658   73.4735   94.7841 C   0  0  0  0  0  0  0  0  0  0  0  0
   70.3722   73.3644   93.8289 O   0  0  0  0  0  0  0  0  0  0  0  0
   70.3038   73.8334   93.0205 H   0  0  0  0  0  0  0  0  0  0  0  0
 31 32  2  0  0  0
 32 33  1  0  0  0
 32 23  1  0  0  0
 23 24  2  0  0  0
 24 25  1  0  0  0
 25 22  1  0  0  0
 22 21  1  0  0  0
 21  1  1  0  0  0
  1  2  2  0  0  0
  2  3  1  0  0  0
  3  4  1  0  0  0
  4  6  1  0  0  0
  6  7  2  0  0  0
  7  8  1  0  0  0
  8  9  2  0  0  0
  9 10  1  0  0  0
 10 12  1  0  0  0
 12 13  1  0  0  0
 13 14  1  0  0  0
 14 15  2  0  0  0
 15 16  1  0  0  0
 16 17  2  0  0  0
 17 18  1  0  0  0
 18 19  1  0  0  0
 18 20  2  0  0  0
 10 11  2  0  0  0
  4  5  2  0  0  0
 25 26  2  0  0  0
 26 27  1  0  0  0
 27 28  2  0  0  0
 28 29  1  0  0  0
 28 23  1  0  0  0
  5  1  2  0  0  0
 11  6  1  0  0  0
 20 14  1  0  0  0
 33 34  1  0  0  0
 29 30  1  0  0  0
M  END
> <score>
-0.465219

> <minimizedAffinity>
-8.23871

> <CNNscore>
0.7182230949

> <CNNaffinity>
6.9413576126

> <CNN_VS>
4.9854431152

$$$$
HIPS6774


 35 38  0  0  0  0  0  0  0  0999 V2000
   66.4916   79.8839   91.6912 C   0  0  0  0  0  0  0  0  0  0  0  0
   65.4699   80.0240   90.7444 C   0  0  0  0  0  0  0  0  0  0  0  0
   65.7087   80.7548   89.5819 C   0  0  0  0  0  0  0  0  0  0  0  0
   66.9258   81.3196   89.3704 N   0  0  0  0  0  0  0  0  0  0  0  0
   67.9468   81.2176   90.2686 C   0  0  0  0  0  0  0  0  0  0  0  0
   67.7256   80.5114   91.4675 C   0  0  0  0  0  0  0  0  0  0  0  0
   69.2605   81.8459   89.9465 C   0  0  0  0  0  0  0  0  0  0  0  0
   70.2722   81.8842   90.9246 C   0  0  0  0  0  0  0  0  0  0  0  0
   71.4929   82.5085   90.6621 C   0  0  0  0  0  0  0  0  0  0  0  0
   71.7238   83.1052   89.4229 C   0  0  0  0  0  0  0  0  0  0  0  0
   70.7411   83.0795   88.4294 C   0  0  0  0  0  0  0  0  0  0  0  0
   69.5084   82.4521   88.6963 C   0  0  0  0  0  0  0  0  0  0  0  0
   71.0297   83.6906   87.1978 O   0  0  0  0  0  0  0  0  0  0  0  0
   70.3722   84.8453   86.6723 C   0  0  0  0  0  0  0  0  0  0  0  0
   70.7118   86.0874   87.4554 C   0  0  0  0  0  0  0  0  0  0  0  0
   69.6961   86.9213   87.9522 C   0  0  0  0  0  0  0  0  0  0  0  0
   70.0208   88.0546   88.7042 C   0  0  0  0  0  0  0  0  0  0  0  0
   71.3574   88.3528   88.9826 C   0  0  0  0  0  0  0  0  0  0  0  0
   72.3740   87.5164   88.5103 C   0  0  0  0  0  0  0  0  0  0  0  0
   74.0508   87.8732   88.8830 Cl  0  0  0  0  0  0  0  0  0  0  0  0
   72.0527   86.3862   87.7512 C   0  0  0  0  0  0  0  0  0  0  0  0
   66.2637   79.0706   92.9390 C   0  0  0  0  0  0  0  0  0  0  0  0
   67.2276   78.0217   93.0470 O   0  0  0  0  0  0  0  0  0  0  0  0
   68.0265   74.7255   94.5461 C   0  0  0  0  0  0  0  0  0  0  0  0
   68.1232   75.9292   93.8241 C   0  0  0  0  0  0  0  0  0  0  0  0
   67.0504   76.8245   93.7609 C   0  0  0  0  0  0  0  0  0  0  0  0
   65.8504   76.5027   94.4176 C   0  0  0  0  0  0  0  0  0  0  0  0
   65.7378   75.3076   95.1285 C   0  0  0  0  0  0  0  0  0  0  0  0
   66.8030   74.4034   95.1817 C   0  0  0  0  0  0  0  0  0  0  0  0
   66.5935   73.1894   95.8393 O   0  0  0  0  0  0  0  0  0  0  0  0
   65.7688   73.0142   96.2479 H   0  0  0  0  0  0  0  0  0  0  0  0
   69.3335   73.0474   95.6033 O   0  0  0  0  0  0  0  0  0  0  0  0
   69.2232   73.8621   94.6473 C   0  0  0  0  0  0  0  0  0  0  0  0
   70.2059   73.8944   93.6622 O   0  0  0  0  0  0  0  0  0  0  0  0
   70.1332   74.4961   92.9476 H   0  0  0  0  0  0  0  0  0  0  0  0
 32 33  2  0  0  0
 33 34  1  0  0  0
 33 24  1  0  0  0
 24 25  2  0  0  0
 25 26  1  0  0  0
 26 23  1  0  0  0
 23 22  1  0  0  0
 22  1  1  0  0  0
  1  2  2  0  0  0
  2  3  1  0  0  0
  3  4  2  0  0  0
  4  5  2  0  0  0
  5  7  1  0  0  0
  7  8  2  0  0  0
  8  9  1  0  0  0
  9 10  2  0  0  0
 10 11  1  0  0  0
 11 13  1  0  0  0
 13 14  1  0  0  0
 14 15  1  0  0  0
 15 16  2  0  0  0
 16 17  1  0  0  0
 17 18  2  0  0  0
 18 19  1  0  0  0
 19 20  1  0  0  0
 19 21  2  0  0  0
 11 12  2  0  0  0
  5  6  2  0  0  0
 26 27  2  0  0  0
 27 28  1  0  0  0
 28 29  2  0  0  0
 29 30  1  0  0  0
 29 24  1  0  0  0
  6  1  1  0  0  0
 12  7  1  0  0  0
 21 15  1  0  0  0
 34 35  1  0  0  0
 30 31  1  0  0  0
M  END
> <score>
-0.431007

> <minimizedAffinity>
-8.94771

> <CNNscore>
0.6986333132

> <CNNaffinity>
6.2141923904

> <CNN_VS>
4.3414416313

$$$$
HIPS6774


 35 38  0  0  0  0  0  0  0  0999 V2000
   68.4044   77.4648   89.7759 C   0  0  0  0  0  0  0  0  0  0  0  0
   67.4967   76.6708   89.0649 C   0  0  0  0  0  0  0  0  0  0  0  0
   66.6329   77.2699   88.1497 C   0  0  0  0  0  0  0  0  0  0  0  0
   66.6789   78.6124   87.9478 N   0  0  0  0  0  0  0  0  0  0  0  0
   67.5393   79.4258   88.6242 C   0  0  0  0  0  0  0  0  0  0  0  0
   68.4032   78.8532   89.5786 C   0  0  0  0  0  0  0  0  0  0  0  0
   67.5431   80.8865   88.3231 C   0  0  0  0  0  0  0  0  0  0  0  0
   67.4768   81.3218   86.9860 C   0  0  0  0  0  0  0  0  0  0  0  0
   67.5264   82.6822   86.6770 C   0  0  0  0  0  0  0  0  0  0  0  0
   67.6446   83.6291   87.6940 C   0  0  0  0  0  0  0  0  0  0  0  0
   67.7077   83.2289   89.0316 C   0  0  0  0  0  0  0  0  0  0  0  0
   67.6608   81.8557   89.3423 C   0  0  0  0  0  0  0  0  0  0  0  0
   67.8202   84.2253   90.0154 O   0  0  0  0  0  0  0  0  0  0  0  0
   68.6224   85.4033   89.9130 C   0  0  0  0  0  0  0  0  0  0  0  0
   69.9292   85.1311   89.2133 C   0  0  0  0  0  0  0  0  0  0  0  0
   70.3044   85.8741   88.0815 C   0  0  0  0  0  0  0  0  0  0  0  0
   71.5330   85.6350   87.4581 C   0  0  0  0  0  0  0  0  0  0  0  0
   72.4033   84.6687   87.9698 C   0  0  0  0  0  0  0  0  0  0  0  0
   72.0473   83.9392   89.1088 C   0  0  0  0  0  0  0  0  0  0  0  0
   73.1507   82.7460   89.7695 Cl  0  0  0  0  0  0  0  0  0  0  0  0
   70.8156   84.1709   89.7301 C   0  0  0  0  0  0  0  0  0  0  0  0
   69.3686   76.8322   90.7456 C   0  0  0  0  0  0  0  0  0  0  0  0
   68.7046   75.8770   91.5748 O   0  0  0  0  0  0  0  0  0  0  0  0
   69.9711   72.5953   92.7483 C   0  0  0  0  0  0  0  0  0  0  0  0
   69.7027   73.9732   92.6537 C   0  0  0  0  0  0  0  0  0  0  0  0
   68.9603   74.4954   91.5894 C   0  0  0  0  0  0  0  0  0  0  0  0
   68.4915   73.6259   90.5898 C   0  0  0  0  0  0  0  0  0  0  0  0
   68.7594   72.2589   90.6662 C   0  0  0  0  0  0  0  0  0  0  0  0
   69.5136   71.7353   91.7208 C   0  0  0  0  0  0  0  0  0  0  0  0
   69.8156   70.3722   91.6905 O   0  0  0  0  0  0  0  0  0  0  0  0
   69.4934   69.8364   90.9926 H   0  0  0  0  0  0  0  0  0  0  0  0
   70.1418   72.1589   95.0769 O   0  0  0  0  0  0  0  0  0  0  0  0
   70.6865   72.0933   93.9416 C   0  0  0  0  0  0  0  0  0  0  0  0
   71.9350   71.4907   93.8182 O   0  0  0  0  0  0  0  0  0  0  0  0
   72.3483   71.4368   92.9790 H   0  0  0  0  0  0  0  0  0  0  0  0
 32 33  2  0  0  0
 33 34  1  0  0  0
 33 24  1  0  0  0
 24 25  2  0  0  0
 25 26  1  0  0  0
 26 23  1  0  0  0
 23 22  1  0  0  0
 22  1  1  0  0  0
  1  2  2  0  0  0
  2  3  1  0  0  0
  3  4  2  0  0  0
  4  5  2  0  0  0
  5  7  1  0  0  0
  7  8  2  0  0  0
  8  9  1  0  0  0
  9 10  2  0  0  0
 10 11  1  0  0  0
 11 13  1  0  0  0
 13 14  1  0  0  0
 14 15  1  0  0  0
 15 16  2  0  0  0
 16 17  1  0  0  0
 17 18  2  0  0  0
 18 19  1  0  0  0
 19 20  1  0  0  0
 19 21  2  0  0  0
 11 12  2  0  0  0
  5  6  2  0  0  0
 26 27  2  0  0  0
 27 28  1  0  0  0
 28 29  2  0  0  0
 29 30  1  0  0  0
 29 24  1  0  0  0
  6  1  1  0  0  0
 12  7  1  0  0  0
 21 15  1  0  0  0
 34 35  1  0  0  0
 30 31  1  0  0  0
M  END
> <score>
-0.431007

> <minimizedAffinity>
-8.40239

> <CNNscore>
0.6961367726

> <CNNaffinity>
6.4734821320

> <CNN_VS>
4.5064291954

$$$$
HIPS6774


 35 38  0  0  0  0  0  0  0  0999 V2000
   68.0342   77.6905   90.6260 C   0  0  0  0  0  0  0  0  0  0  0  0
   67.3099   76.7553   89.8771 C   0  0  0  0  0  0  0  0  0  0  0  0
   66.6455   77.1680   88.7236 C   0  0  0  0  0  0  0  0  0  0  0  0
   66.7077   78.4664   88.3294 N   0  0  0  0  0  0  0  0  0  0  0  0
   67.3926   79.4133   89.0321 C   0  0  0  0  0  0  0  0  0  0  0  0
   68.0485   79.0325   90.2195 C   0  0  0  0  0  0  0  0  0  0  0  0
   67.4322   80.8116   88.5151 C   0  0  0  0  0  0  0  0  0  0  0  0
   67.3190   81.0458   87.1315 C   0  0  0  0  0  0  0  0  0  0  0  0
   67.4005   82.3419   86.6199 C   0  0  0  0  0  0  0  0  0  0  0  0
   67.5977   83.4239   87.4774 C   0  0  0  0  0  0  0  0  0  0  0  0
   67.7088   83.2247   88.8563 C   0  0  0  0  0  0  0  0  0  0  0  0
   67.6296   81.9160   89.3715 C   0  0  0  0  0  0  0  0  0  0  0  0
   67.9003   84.3509   89.6739 O   0  0  0  0  0  0  0  0  0  0  0  0
   68.5766   85.5490   89.2878 C   0  0  0  0  0  0  0  0  0  0  0  0
   70.0134   85.2857   88.9168 C   0  0  0  0  0  0  0  0  0  0  0  0
   70.7048   86.1607   88.0623 C   0  0  0  0  0  0  0  0  0  0  0  0
   72.0469   85.9244   87.7491 C   0  0  0  0  0  0  0  0  0  0  0  0
   72.7136   84.8269   88.3006 C   0  0  0  0  0  0  0  0  0  0  0  0
   72.0393   83.9627   89.1692 C   0  0  0  0  0  0  0  0  0  0  0  0
   72.8824   82.6009   89.8850 Cl  0  0  0  0  0  0  0  0  0  0  0  0
   70.6944   84.1921   89.4784 C   0  0  0  0  0  0  0  0  0  0  0  0
   68.7861   77.2577   91.8579 C   0  0  0  0  0  0  0  0  0  0  0  0
   67.9470   77.3127   93.0128 O   0  0  0  0  0  0  0  0  0  0  0  0
   68.4592   74.1762   94.9236 C   0  0  0  0  0  0  0  0  0  0  0  0
   68.6609   75.2686   94.0601 C   0  0  0  0  0  0  0  0  0  0  0  0
   67.6657   76.2322   93.8660 C   0  0  0  0  0  0  0  0  0  0  0  0
   66.4375   76.0924   94.5344 C   0  0  0  0  0  0  0  0  0  0  0  0
   66.2208   75.0084   95.3856 C   0  0  0  0  0  0  0  0  0  0  0  0
   67.2077   74.0354   95.5707 C   0  0  0  0  0  0  0  0  0  0  0  0
   66.8935   72.9339   96.3694 O   0  0  0  0  0  0  0  0  0  0  0  0
   66.0535   72.8779   96.7808 H   0  0  0  0  0  0  0  0  0  0  0  0
   69.6313   72.5675   96.2198 O   0  0  0  0  0  0  0  0  0  0  0  0
   69.5801   73.2390   95.1539 C   0  0  0  0  0  0  0  0  0  0  0  0
   70.5519   73.0427   94.1770 O   0  0  0  0  0  0  0  0  0  0  0  0
   70.5228   73.5366   93.3813 H   0  0  0  0  0  0  0  0  0  0  0  0
 32 33  2  0  0  0
 33 34  1  0  0  0
 33 24  1  0  0  0
 24 25  2  0  0  0
 25 26  1  0  0  0
 26 23  1  0  0  0
 23 22  1  0  0  0
 22  1  1  0  0  0
  1  2  2  0  0  0
  2  3  1  0  0  0
  3  4  2  0  0  0
  4  5  2  0  0  0
  5  7  1  0  0  0
  7  8  2  0  0  0
  8  9  1  0  0  0
  9 10  2  0  0  0
 10 11  1  0  0  0
 11 13  1  0  0  0
 13 14  1  0  0  0
 14 15  1  0  0  0
 15 16  2  0  0  0
 16 17  1  0  0  0
 17 18  2  0  0  0
 18 19  1  0  0  0
 19 20  1  0  0  0
 19 21  2  0  0  0
 11 12  2  0  0  0
  5  6  2  0  0  0
 26 27  2  0  0  0
 27 28  1  0  0  0
 28 29  2  0  0  0
 29 30  1  0  0  0
 29 24  1  0  0  0
  6  1  1  0  0  0
 12  7  1  0  0  0
 21 15  1  0  0  0
 34 35  1  0  0  0
 30 31  1  0  0  0
M  END
> <score>
-0.431007

> <minimizedAffinity>
-8.53253

> <CNNscore>
0.6795661449

> <CNNaffinity>
6.5102224350

> <CNN_VS>
4.4241266251

$$$$
HIPS6785


 23 23  0  0  0  0  0  0  0  0999 V2000
   67.1150   73.7521   88.7602 C   0  0  0  0  0  0  0  0  0  0  0  0
   67.1307   75.1513   88.8100 C   0  0  0  0  0  0  0  0  0  0  0  0
   67.7877   75.8134   89.8474 C   0  0  0  0  0  0  0  0  0  0  0  0
   68.4394   75.0945   90.8548 C   0  0  0  0  0  0  0  0  0  0  0  0
   69.0082   75.8170   91.9057 O   0  0  0  0  0  0  0  0  0  0  0  0
   68.4703   73.6798   90.7977 C   0  0  0  0  0  0  0  0  0  0  0  0
   67.7868   73.0228   89.7573 C   0  0  0  0  0  0  0  0  0  0  0  0
   68.9669   76.7531   91.9070 H   0  0  0  0  0  0  0  0  0  0  0  0
   69.2282   72.8656   91.7729 C   0  0  0  0  0  0  0  0  0  0  0  0
   70.3359   73.2773   92.2122 O   0  0  0  0  0  0  0  0  0  0  0  0
   68.7024   71.6723   92.2599 O   0  0  0  0  0  0  0  0  0  0  0  0
   67.8798   71.3577   91.9399 H   0  0  0  0  0  0  0  0  0  0  0  0
   66.9068   72.0315   87.0754 N   0  0  0  0  0  0  0  0  0  0  0  0
   66.4033   73.0756   87.6566 C   0  0  0  0  0  0  0  0  0  0  0  0
   66.9907   70.7073   85.0082 C   0  0  0  0  0  0  0  0  0  0  0  0
   68.2506   70.7027   85.0507 O   0  0  0  0  0  0  0  0  0  0  0  0
   66.2427   71.3762   86.0268 N   0  0  0  0  0  0  0  0  0  0  0  0
   65.2588   71.3770   85.9925 H   0  0  0  0  0  0  0  0  0  0  0  0
   66.2841   69.9747   83.9107 C   0  0  0  0  0  0  0  0  0  0  0  0
   64.0599   70.0518   82.0141 C   0  0  0  0  0  0  0  0  0  0  0  0
   64.9280   70.9493   83.2827 S   0  0  0  0  0  0  0  0  0  0  0  0
   65.4677   72.2253   82.7012 O   0  0  0  0  0  0  0  0  0  0  0  0
   63.9780   71.2786   84.3998 O   0  0  0  0  0  0  0  0  0  0  0  0
 20 21  1  0  0  0
 21 22  2  0  0  0
 21 23  2  0  0  0
 21 19  1  0  0  0
 19 15  1  0  0  0
 15 16  2  0  0  0
 15 17  1  0  0  0
 17 13  1  0  0  0
 13 14  2  0  0  0
 14  1  1  0  0  0
  1  2  2  0  0  0
  2  3  1  0  0  0
  3  4  2  0  0  0
  4  5  1  0  0  0
  4  6  1  0  0  0
  6  9  1  0  0  0
  9 10  2  0  0  0
  9 11  1  0  0  0
  6  7  2  0  0  0
  7  1  1  0  0  0
 17 18  1  0  0  0
  5  8  1  0  0  0
 11 12  1  0  0  0
M  END
> <score>
0.176673

> <minimizedAffinity>
-7.37772

> <CNNscore>
0.7000671625

> <CNNaffinity>
4.6967315674

> <CNN_VS>
3.2880275249

$$$$
HIPS6785


 23 23  0  0  0  0  0  0  0  0999 V2000
   66.9310   77.0953   93.4874 C   0  0  0  0  0  0  0  0  0  0  0  0
   65.9009   76.2539   93.9252 C   0  0  0  0  0  0  0  0  0  0  0  0
   66.1057   74.8771   94.0186 C   0  0  0  0  0  0  0  0  0  0  0  0
   67.3389   74.3129   93.6763 C   0  0  0  0  0  0  0  0  0  0  0  0
   67.4513   72.9217   93.7160 O   0  0  0  0  0  0  0  0  0  0  0  0
   68.4053   75.1527   93.2722 C   0  0  0  0  0  0  0  0  0  0  0  0
   68.1805   76.5378   93.1626 C   0  0  0  0  0  0  0  0  0  0  0  0
   66.7223   72.4003   93.9893 H   0  0  0  0  0  0  0  0  0  0  0  0
   69.7617   74.6308   92.9964 C   0  0  0  0  0  0  0  0  0  0  0  0
   70.5134   75.2289   92.1798 O   0  0  0  0  0  0  0  0  0  0  0  0
   70.2434   73.5157   93.6761 O   0  0  0  0  0  0  0  0  0  0  0  0
   69.6927   73.0642   94.2851 H   0  0  0  0  0  0  0  0  0  0  0  0
   67.1404   79.2379   92.3884 N   0  0  0  0  0  0  0  0  0  0  0  0
   66.6848   78.5484   93.3876 C   0  0  0  0  0  0  0  0  0  0  0  0
   66.1488   81.1370   91.1869 C   0  0  0  0  0  0  0  0  0  0  0  0
   65.6729   80.3536   90.3214 O   0  0  0  0  0  0  0  0  0  0  0  0
   66.9140   80.6186   92.2777 N   0  0  0  0  0  0  0  0  0  0  0  0
   67.2833   81.2321   92.9534 H   0  0  0  0  0  0  0  0  0  0  0  0
   65.8730   82.6049   91.0884 C   0  0  0  0  0  0  0  0  0  0  0  0
   67.7104   82.8807   88.8305 C   0  0  0  0  0  0  0  0  0  0  0  0
   67.3034   83.4674   90.4610 S   0  0  0  0  0  0  0  0  0  0  0  0
   68.4677   83.2202   91.3779 O   0  0  0  0  0  0  0  0  0  0  0  0
   67.0235   84.9430   90.4049 O   0  0  0  0  0  0  0  0  0  0  0  0
 20 21  1  0  0  0
 21 22  2  0  0  0
 21 23  2  0  0  0
 21 19  1  0  0  0
 19 15  1  0  0  0
 15 16  2  0  0  0
 15 17  1  0  0  0
 17 13  1  0  0  0
 13 14  2  0  0  0
 14  1  1  0  0  0
  1  2  2  0  0  0
  2  3  1  0  0  0
  3  4  2  0  0  0
  4  5  1  0  0  0
  4  6  1  0  0  0
  6  9  1  0  0  0
  9 10  2  0  0  0
  9 11  1  0  0  0
  6  7  2  0  0  0
  7  1  1  0  0  0
 17 18  1  0  0  0
  5  8  1  0  0  0
 11 12  1  0  0  0
M  END
> <score>
0.176673

> <minimizedAffinity>
-5.16409

> <CNNscore>
0.6609857678

> <CNNaffinity>
4.5137567520

> <CNN_VS>
2.9835290909

$$$$
HIPS6785


 23 23  0  0  0  0  0  0  0  0999 V2000
   67.1483   73.5448   88.8457 C   0  0  0  0  0  0  0  0  0  0  0  0
   67.7182   72.8401   89.9130 C   0  0  0  0  0  0  0  0  0  0  0  0
   68.3859   73.5205   90.9317 C   0  0  0  0  0  0  0  0  0  0  0  0
   68.4996   74.9143   90.9053 C   0  0  0  0  0  0  0  0  0  0  0  0
   69.2488   75.5250   91.9130 O   0  0  0  0  0  0  0  0  0  0  0  0
   67.8928   75.6468   89.8561 C   0  0  0  0  0  0  0  0  0  0  0  0
   67.2394   74.9479   88.8238 C   0  0  0  0  0  0  0  0  0  0  0  0
   69.6346   75.0052   92.5905 H   0  0  0  0  0  0  0  0  0  0  0  0
   67.8877   77.1258   89.8245 C   0  0  0  0  0  0  0  0  0  0  0  0
   67.5494   77.7772   90.8496 O   0  0  0  0  0  0  0  0  0  0  0  0
   68.3119   77.8115   88.6899 O   0  0  0  0  0  0  0  0  0  0  0  0
   68.5655   77.3367   87.9230 H   0  0  0  0  0  0  0  0  0  0  0  0
   67.0493   71.8407   87.1344 N   0  0  0  0  0  0  0  0  0  0  0  0
   66.4558   72.7996   87.7746 C   0  0  0  0  0  0  0  0  0  0  0  0
   67.0539   70.9184   84.8577 C   0  0  0  0  0  0  0  0  0  0  0  0
   68.2092   71.3831   84.6613 O   0  0  0  0  0  0  0  0  0  0  0  0
   66.4050   71.1218   86.1154 N   0  0  0  0  0  0  0  0  0  0  0  0
   65.5035   70.7565   86.2672 H   0  0  0  0  0  0  0  0  0  0  0  0
   66.3849   70.1186   83.7838 C   0  0  0  0  0  0  0  0  0  0  0  0
   64.0627   69.9499   82.0149 C   0  0  0  0  0  0  0  0  0  0  0  0
   64.9364   70.9698   83.1831 S   0  0  0  0  0  0  0  0  0  0  0  0
   65.3596   72.2423   82.5057 O   0  0  0  0  0  0  0  0  0  0  0  0
   64.0277   71.3014   84.3335 O   0  0  0  0  0  0  0  0  0  0  0  0
 20 21  1  0  0  0
 21 22  2  0  0  0
 21 23  2  0  0  0
 21 19  1  0  0  0
 19 15  1  0  0  0
 15 16  2  0  0  0
 15 17  1  0  0  0
 17 13  1  0  0  0
 13 14  2  0  0  0
 14  1  1  0  0  0
  1  2  2  0  0  0
  2  3  1  0  0  0
  3  4  2  0  0  0
  4  5  1  0  0  0
  4  6  1  0  0  0
  6  9  1  0  0  0
  9 10  2  0  0  0
  9 11  1  0  0  0
  6  7  2  0  0  0
  7  1  1  0  0  0
 17 18  1  0  0  0
  5  8  1  0  0  0
 11 12  1  0  0  0
M  END
> <score>
0.176673

> <minimizedAffinity>
-6.91796

> <CNNscore>
0.5875727534

> <CNNaffinity>
4.5587539673

> <CNN_VS>
2.6785995960

$$$$
HIPS6786


 21 21  0  0  0  0  0  0  0  0999 V2000
   70.3848   79.5609   89.9079 N   0  0  0  0  0  0  0  0  0  0  0  0
   71.3058   80.3894   90.2909 C   0  0  0  0  0  0  0  0  0  0  0  0
   71.3518   81.7698   89.7702 C   0  0  0  0  0  0  0  0  0  0  0  0
   72.5327   82.5300   89.7946 C   0  0  0  0  0  0  0  0  0  0  0  0
   72.5371   83.8327   89.2931 C   0  0  0  0  0  0  0  0  0  0  0  0
   71.3567   84.3737   88.7668 C   0  0  0  0  0  0  0  0  0  0  0  0
   70.2224   83.6210   88.7522 N   0  0  0  0  0  0  0  0  0  0  0  0
   70.1932   82.3502   89.2347 C   0  0  0  0  0  0  0  0  0  0  0  0
   71.3398   85.7722   88.2227 C   0  0  0  0  0  0  0  0  0  0  0  0
   72.6080   86.3251   88.2622 F   0  0  0  0  0  0  0  0  0  0  0  0
   70.4870   86.5550   88.9793 F   0  0  0  0  0  0  0  0  0  0  0  0
   70.9000   85.7556   86.9117 F   0  0  0  0  0  0  0  0  0  0  0  0
   69.0685   77.6599   90.7375 C   0  0  0  0  0  0  0  0  0  0  0  0
   68.0064   78.3266   90.6092 O   0  0  0  0  0  0  0  0  0  0  0  0
   70.3268   78.2446   90.3918 N   0  0  0  0  0  0  0  0  0  0  0  0
   71.1550   77.7222   90.4935 H   0  0  0  0  0  0  0  0  0  0  0  0
   68.9985   76.2411   91.2097 C   0  0  0  0  0  0  0  0  0  0  0  0
   69.0267   76.6687   94.1051 C   0  0  0  0  0  0  0  0  0  0  0  0
   69.9383   76.0373   92.7125 S   0  0  0  0  0  0  0  0  0  0  0  0
   71.2443   76.7719   92.5967 O   0  0  0  0  0  0  0  0  0  0  0  0
   70.2114   74.5753   92.9260 O   0  0  0  0  0  0  0  0  0  0  0  0
 18 19  1  0  0  0
 19 20  2  0  0  0
 19 21  2  0  0  0
 19 17  1  0  0  0
 17 13  1  0  0  0
 13 14  2  0  0  0
 13 15  1  0  0  0
 15  1  1  0  0  0
  1  2  2  0  0  0
  2  3  1  0  0  0
  3  4  2  0  0  0
  4  5  1  0  0  0
  5  6  2  0  0  0
  6  9  1  0  0  0
  9 10  1  0  0  0
  9 11  1  0  0  0
  9 12  1  0  0  0
  6  7  2  0  0  0
  7  8  2  0  0  0
  8  3  1  0  0  0
 15 16  1  0  0  0
M  END
> <score>
0.98272

> <minimizedAffinity>
-6.15614

> <CNNscore>
0.7741133571

> <CNNaffinity>
5.1258640289

> <CNN_VS>
3.9679996967

$$$$
HIPS6786


 21 21  0  0  0  0  0  0  0  0999 V2000
   70.2268   78.5233   90.4780 N   0  0  0  0  0  0  0  0  0  0  0  0
   69.5337   79.6182   90.4296 C   0  0  0  0  0  0  0  0  0  0  0  0
   70.1330   80.8773   89.9456 C   0  0  0  0  0  0  0  0  0  0  0  0
   71.4523   81.2385   90.2647 C   0  0  0  0  0  0  0  0  0  0  0  0
   71.9845   82.4380   89.7886 C   0  0  0  0  0  0  0  0  0  0  0  0
   71.1932   83.2760   88.9921 C   0  0  0  0  0  0  0  0  0  0  0  0
   69.9166   82.9084   88.6939 N   0  0  0  0  0  0  0  0  0  0  0  0
   69.3763   81.7454   89.1457 C   0  0  0  0  0  0  0  0  0  0  0  0
   71.7458   84.5700   88.4700 C   0  0  0  0  0  0  0  0  0  0  0  0
   73.0225   84.7862   88.9587 F   0  0  0  0  0  0  0  0  0  0  0  0
   70.9325   85.6161   88.8658 F   0  0  0  0  0  0  0  0  0  0  0  0
   71.7966   84.5301   87.0887 F   0  0  0  0  0  0  0  0  0  0  0  0
   70.4254   76.4643   91.8029 C   0  0  0  0  0  0  0  0  0  0  0  0
   71.5897   76.7928   92.1573 O   0  0  0  0  0  0  0  0  0  0  0  0
   69.6734   77.3176   90.9364 N   0  0  0  0  0  0  0  0  0  0  0  0
   68.7645   77.0586   90.6604 H   0  0  0  0  0  0  0  0  0  0  0  0
   69.8206   75.2007   92.3308 C   0  0  0  0  0  0  0  0  0  0  0  0
   67.9571   74.0852   94.2929 C   0  0  0  0  0  0  0  0  0  0  0  0
   68.8720   75.5323   93.8050 S   0  0  0  0  0  0  0  0  0  0  0  0
   67.9164   76.6636   93.5486 O   0  0  0  0  0  0  0  0  0  0  0  0
   69.8084   75.9188   94.9147 O   0  0  0  0  0  0  0  0  0  0  0  0
 18 19  1  0  0  0
 19 20  2  0  0  0
 19 21  2  0  0  0
 19 17  1  0  0  0
 17 13  1  0  0  0
 13 14  2  0  0  0
 13 15  1  0  0  0
 15  1  1  0  0  0
  1  2  2  0  0  0
  2  3  1  0  0  0
  3  4  2  0  0  0
  4  5  1  0  0  0
  5  6  2  0  0  0
  6  9  1  0  0  0
  9 10  1  0  0  0
  9 11  1  0  0  0
  9 12  1  0  0  0
  6  7  2  0  0  0
  7  8  2  0  0  0
  8  3  1  0  0  0
 15 16  1  0  0  0
M  END
> <score>
0.98272

> <minimizedAffinity>
-6.04198

> <CNNscore>
0.6937314868

> <CNNaffinity>
4.9133100510

> <CNN_VS>
3.4085178375

$$$$
HIPS6786


 21 21  0  0  0  0  0  0  0  0999 V2000
   70.1149   78.2579   90.5514 N   0  0  0  0  0  0  0  0  0  0  0  0
   69.3573   79.2927   90.3596 C   0  0  0  0  0  0  0  0  0  0  0  0
   69.9268   80.5819   89.9211 C   0  0  0  0  0  0  0  0  0  0  0  0
   71.2610   80.9298   90.1888 C   0  0  0  0  0  0  0  0  0  0  0  0
   71.7640   82.1587   89.7583 C   0  0  0  0  0  0  0  0  0  0  0  0
   70.9286   83.0395   89.0587 C   0  0  0  0  0  0  0  0  0  0  0  0
   69.6383   82.6841   88.8091 N   0  0  0  0  0  0  0  0  0  0  0  0
   69.1257   81.4931   89.2182 C   0  0  0  0  0  0  0  0  0  0  0  0
   71.4494   84.3655   88.5870 C   0  0  0  0  0  0  0  0  0  0  0  0
   71.4238   84.4345   87.2049 F   0  0  0  0  0  0  0  0  0  0  0  0
   72.7523   84.5336   89.0190 F   0  0  0  0  0  0  0  0  0  0  0  0
   70.6648   85.3822   89.0999 F   0  0  0  0  0  0  0  0  0  0  0  0
   70.2754   76.2488   91.9557 C   0  0  0  0  0  0  0  0  0  0  0  0
   71.3545   76.6704   92.4527 O   0  0  0  0  0  0  0  0  0  0  0  0
   69.5904   77.0249   90.9693 N   0  0  0  0  0  0  0  0  0  0  0  0
   68.7482   76.6933   90.5821 H   0  0  0  0  0  0  0  0  0  0  0  0
   69.6949   74.9558   92.4374 C   0  0  0  0  0  0  0  0  0  0  0  0
   67.4197   73.1248   92.2421 C   0  0  0  0  0  0  0  0  0  0  0  0
   68.1547   74.6152   91.6036 S   0  0  0  0  0  0  0  0  0  0  0  0
   68.4009   74.4580   90.1294 O   0  0  0  0  0  0  0  0  0  0  0  0
   67.2114   75.7631   91.8271 O   0  0  0  0  0  0  0  0  0  0  0  0
 18 19  1  0  0  0
 19 20  2  0  0  0
 19 21  2  0  0  0
 19 17  1  0  0  0
 17 13  1  0  0  0
 13 14  2  0  0  0
 13 15  1  0  0  0
 15  1  1  0  0  0
  1  2  2  0  0  0
  2  3  1  0  0  0
  3  4  2  0  0  0
  4  5  1  0  0  0
  5  6  2  0  0  0
  6  9  1  0  0  0
  9 10  1  0  0  0
  9 11  1  0  0  0
  9 12  1  0  0  0
  6  7  2  0  0  0
  7  8  2  0  0  0
  8  3  1  0  0  0
 15 16  1  0  0  0
M  END
> <score>
0.98272

> <minimizedAffinity>
-5.78537

> <CNNscore>
0.5898131728

> <CNNaffinity>
4.8487024307

> <CNN_VS>
2.8598284721

$$$$
HIPS6787


 21 22  0  0  0  0  0  0  0  0999 V2000
   68.2113   73.1903   92.0310 N   0  0  0  0  0  0  0  0  0  0  0  0
   67.8146   72.7072   92.7916 H   0  0  0  0  0  0  0  0  0  0  0  0
   69.0184   74.6957   92.3481 S   0  0  0  0  0  0  0  0  0  0  0  0
   70.0767   74.4732   93.3922 O   0  0  0  0  0  0  0  0  0  0  0  0
   69.6712   75.1831   91.0854 O   0  0  0  0  0  0  0  0  0  0  0  0
   65.0121   78.8704   94.1864 C   0  0  0  0  0  0  0  0  0  0  0  0
   65.9891   77.8365   93.7109 C   0  0  0  0  0  0  0  0  0  0  0  0
   65.7881   76.4819   94.0176 C   0  0  0  0  0  0  0  0  0  0  0  0
   66.7150   75.5203   93.6041 C   0  0  0  0  0  0  0  0  0  0  0  0
   67.8568   75.9041   92.8881 C   0  0  0  0  0  0  0  0  0  0  0  0
   68.0717   77.2586   92.6022 C   0  0  0  0  0  0  0  0  0  0  0  0
   67.1453   78.2209   93.0145 C   0  0  0  0  0  0  0  0  0  0  0  0
   68.0919   72.6214   90.7484 N   0  0  0  0  0  0  0  0  0  0  0  0
   67.2284   72.9995   89.8544 C   0  0  0  0  0  0  0  0  0  0  0  0
   67.1906   72.3633   88.5237 C   0  0  0  0  0  0  0  0  0  0  0  0
   67.9182   71.1996   88.2328 C   0  0  0  0  0  0  0  0  0  0  0  0
   67.8573   70.6520   86.9916 N   0  0  0  0  0  0  0  0  0  0  0  0
   67.0921   71.2089   86.0160 C   0  0  0  0  0  0  0  0  0  0  0  0
   67.0680   70.6093   84.6495 C   0  0  0  0  0  0  0  0  0  0  0  0
   66.3901   72.3442   86.2715 N   0  0  0  0  0  0  0  0  0  0  0  0
   66.4203   72.9252   87.4987 C   0  0  0  0  0  0  0  0  0  0  0  0
  6  7  1  0  0  0
  7  8  2  0  0  0
  8  9  1  0  0  0
  9 10  2  0  0  0
 10  3  1  0  0  0
  3  4  2  0  0  0
  3  5  2  0  0  0
  3  1  1  0  0  0
  1 13  1  0  0  0
 13 14  2  0  0  0
 14 15  1  0  0  0
 15 16  2  0  0  0
 16 17  2  0  0  0
 17 18  2  0  0  0
 18 19  1  0  0  0
 18 20  2  0  0  0
 20 21  2  0  0  0
 10 11  1  0  0  0
 11 12  2  0  0  0
 12  7  1  0  0  0
 21 15  1  0  0  0
  1  2  1  0  0  0
M  END
> <score>
1.007412

> <minimizedAffinity>
-5.69555

> <CNNscore>
0.5995585322

> <CNNaffinity>
5.3625745773

> <CNN_VS>
3.2151772976

$$$$
HIPS6787


 21 22  0  0  0  0  0  0  0  0999 V2000
   69.2798   75.5231   94.9898 N   0  0  0  0  0  0  0  0  0  0  0  0
   69.8035   75.8038   95.7748 H   0  0  0  0  0  0  0  0  0  0  0  0
   69.1125   73.8213   94.6829 S   0  0  0  0  0  0  0  0  0  0  0  0
   70.4406   73.1518   94.9007 O   0  0  0  0  0  0  0  0  0  0  0  0
   68.1093   73.2419   95.6400 O   0  0  0  0  0  0  0  0  0  0  0  0
   67.1778   72.8951   89.0033 C   0  0  0  0  0  0  0  0  0  0  0  0
   67.6694   73.1030   90.4051 C   0  0  0  0  0  0  0  0  0  0  0  0
   66.9443   72.5880   91.4907 C   0  0  0  0  0  0  0  0  0  0  0  0
   67.3827   72.8091   92.7998 C   0  0  0  0  0  0  0  0  0  0  0  0
   68.5448   73.5552   93.0373 C   0  0  0  0  0  0  0  0  0  0  0  0
   69.2565   74.0909   91.9561 C   0  0  0  0  0  0  0  0  0  0  0  0
   68.8196   73.8699   90.6466 C   0  0  0  0  0  0  0  0  0  0  0  0
   68.7092   76.5241   94.1802 N   0  0  0  0  0  0  0  0  0  0  0  0
   67.4511   76.5827   93.8613 C   0  0  0  0  0  0  0  0  0  0  0  0
   66.9335   77.6841   93.0271 C   0  0  0  0  0  0  0  0  0  0  0  0
   66.0434   78.6450   93.5297 C   0  0  0  0  0  0  0  0  0  0  0  0
   65.5887   79.6384   92.7231 N   0  0  0  0  0  0  0  0  0  0  0  0
   65.9874   79.7273   91.4267 C   0  0  0  0  0  0  0  0  0  0  0  0
   65.4474   80.8073   90.5497 C   0  0  0  0  0  0  0  0  0  0  0  0
   66.8381   78.7991   90.9150 N   0  0  0  0  0  0  0  0  0  0  0  0
   67.3193   77.7896   91.6855 C   0  0  0  0  0  0  0  0  0  0  0  0
  6  7  1  0  0  0
  7  8  2  0  0  0
  8  9  1  0  0  0
  9 10  2  0  0  0
 10  3  1  0  0  0
  3  4  2  0  0  0
  3  5  2  0  0  0
  3  1  1  0  0  0
  1 13  1  0  0  0
 13 14  2  0  0  0
 14 15  1  0  0  0
 15 16  2  0  0  0
 16 17  2  0  0  0
 17 18  2  0  0  0
 18 19  1  0  0  0
 18 20  2  0  0  0
 20 21  2  0  0  0
 10 11  1  0  0  0
 11 12  2  0  0  0
 12  7  1  0  0  0
 21 15  1  0  0  0
  1  2  1  0  0  0
M  END
> <score>
1.007412

> <minimizedAffinity>
-6.57156

> <CNNscore>
0.5442842841

> <CNNaffinity>
5.5792608261

> <CNN_VS>
3.0367040634

$$$$
HIPS6787


 21 22  0  0  0  0  0  0  0  0999 V2000
   68.0093   79.4163   90.7672 N   0  0  0  0  0  0  0  0  0  0  0  0
   68.8768   79.8818   90.7674 H   0  0  0  0  0  0  0  0  0  0  0  0
   66.9043   79.7443   89.4674 S   0  0  0  0  0  0  0  0  0  0  0  0
   65.5046   79.7870   90.0139 O   0  0  0  0  0  0  0  0  0  0  0  0
   67.2343   81.0795   88.8620 O   0  0  0  0  0  0  0  0  0  0  0  0
   67.4246   75.4833   85.1742 C   0  0  0  0  0  0  0  0  0  0  0  0
   67.3187   76.5299   86.2435 C   0  0  0  0  0  0  0  0  0  0  0  0
   66.7362   76.2173   87.4814 C   0  0  0  0  0  0  0  0  0  0  0  0
   66.6061   77.1999   88.4675 C   0  0  0  0  0  0  0  0  0  0  0  0
   67.0481   78.5068   88.2228 C   0  0  0  0  0  0  0  0  0  0  0  0
   67.6075   78.8269   86.9789 C   0  0  0  0  0  0  0  0  0  0  0  0
   67.7387   77.8451   85.9923 C   0  0  0  0  0  0  0  0  0  0  0  0
   67.7353   78.5227   91.8205 N   0  0  0  0  0  0  0  0  0  0  0  0
   68.1339   77.2868   91.8581 C   0  0  0  0  0  0  0  0  0  0  0  0
   67.8223   76.4271   93.0160 C   0  0  0  0  0  0  0  0  0  0  0  0
   68.8224   75.9246   93.8619 C   0  0  0  0  0  0  0  0  0  0  0  0
   68.4889   75.1321   94.9131 N   0  0  0  0  0  0  0  0  0  0  0  0
   67.1919   74.8177   95.1708 C   0  0  0  0  0  0  0  0  0  0  0  0
   66.8523   73.9167   96.3111 C   0  0  0  0  0  0  0  0  0  0  0  0
   66.2081   75.2819   94.3562 N   0  0  0  0  0  0  0  0  0  0  0  0
   66.4954   76.0787   93.2946 C   0  0  0  0  0  0  0  0  0  0  0  0
  6  7  1  0  0  0
  7  8  2  0  0  0
  8  9  1  0  0  0
  9 10  2  0  0  0
 10  3  1  0  0  0
  3  4  2  0  0  0
  3  5  2  0  0  0
  3  1  1  0  0  0
  1 13  1  0  0  0
 13 14  2  0  0  0
 14 15  1  0  0  0
 15 16  2  0  0  0
 16 17  2  0  0  0
 17 18  2  0  0  0
 18 19  1  0  0  0
 18 20  2  0  0  0
 20 21  2  0  0  0
 10 11  1  0  0  0
 11 12  2  0  0  0
 12  7  1  0  0  0
 21 15  1  0  0  0
  1  2  1  0  0  0
M  END
> <score>
1.007412

> <minimizedAffinity>
-5.62406

> <CNNscore>
0.4985191822

> <CNNaffinity>
5.4684486389

> <CNN_VS>
2.7261264324

$$$$
HIPS6788


 22 23  0  0  0  0  0  0  0  0999 V2000
   67.7276   79.5166   90.9391 N   0  0  0  0  0  0  0  0  0  0  0  0
   66.8315   79.1805   91.8175 C   0  0  0  0  0  0  0  0  0  0  0  0
   66.7915   77.8152   92.3774 C   0  0  0  0  0  0  0  0  0  0  0  0
   66.0960   77.5730   93.5697 C   0  0  0  0  0  0  0  0  0  0  0  0
   66.0527   76.2860   94.1083 C   0  0  0  0  0  0  0  0  0  0  0  0
   66.7099   75.2394   93.4482 C   0  0  0  0  0  0  0  0  0  0  0  0
   67.3813   75.4930   92.2913 N   0  0  0  0  0  0  0  0  0  0  0  0
   67.4376   76.7379   91.7473 C   0  0  0  0  0  0  0  0  0  0  0  0
   66.6763   73.8483   94.0100 C   0  0  0  0  0  0  0  0  0  0  0  0
   67.7848   73.6182   94.8063 F   0  0  0  0  0  0  0  0  0  0  0  0
   65.5352   73.6827   94.7734 F   0  0  0  0  0  0  0  0  0  0  0  0
   66.6700   72.9295   92.9763 F   0  0  0  0  0  0  0  0  0  0  0  0
   66.5526   80.3648   88.4696 O   0  0  0  0  0  0  0  0  0  0  0  0
   67.3558   81.1339   89.0631 C   0  0  0  0  0  0  0  0  0  0  0  0
   67.8271   80.8053   90.3812 N   0  0  0  0  0  0  0  0  0  0  0  0
   68.2402   81.5175   90.9209 H   0  0  0  0  0  0  0  0  0  0  0  0
   67.7651   82.3872   88.4057 C   0  0  0  0  0  0  0  0  0  0  0  0
   67.3990   82.8160   87.1310 C   0  0  0  0  0  0  0  0  0  0  0  0
   67.9362   84.0635   86.7908 C   0  0  0  0  0  0  0  0  0  0  0  0
   68.7175   84.6135   87.7953 C   0  0  0  0  0  0  0  0  0  0  0  0
   69.5396   86.1577   87.7223 Cl  0  0  0  0  0  0  0  0  0  0  0  0
   68.7467   83.5646   89.1064 S   0  0  0  0  0  0  0  0  0  0  0  0
 13 14  2  0  0  0
 14 15  1  0  0  0
 15  1  1  0  0  0
  1  2  2  0  0  0
  2  3  1  0  0  0
  3  4  2  0  0  0
  4  5  1  0  0  0
  5  6  2  0  0  0
  6  9  1  0  0  0
  9 10  1  0  0  0
  9 11  1  0  0  0
  9 12  1  0  0  0
  6  7  2  0  0  0
  7  8  2  0  0  0
 14 17  1  0  0  0
 17 18  2  0  0  0
 18 19  1  0  0  0
 19 20  2  0  0  0
 20 21  1  0  0  0
 20 22  1  0  0  0
  8  3  1  0  0  0
 22 17  1  0  0  0
 15 16  1  0  0  0
M  END
> <score>
1.032103

> <minimizedAffinity>
-6.01613

> <CNNscore>
0.6055791378

> <CNNaffinity>
5.2763662338

> <CNN_VS>
3.1952574253

$$$$
HIPS6788


 22 23  0  0  0  0  0  0  0  0999 V2000
   67.0046   81.2923   92.6357 N   0  0  0  0  0  0  0  0  0  0  0  0
   66.2546   80.3826   92.0902 C   0  0  0  0  0  0  0  0  0  0  0  0
   66.2832   78.9869   92.5699 C   0  0  0  0  0  0  0  0  0  0  0  0
   65.6101   78.6436   93.7503 C   0  0  0  0  0  0  0  0  0  0  0  0
   65.6317   77.3270   94.2134 C   0  0  0  0  0  0  0  0  0  0  0  0
   66.3311   76.3524   93.4897 C   0  0  0  0  0  0  0  0  0  0  0  0
   66.9799   76.7038   92.3455 N   0  0  0  0  0  0  0  0  0  0  0  0
   66.9733   77.9793   91.8744 C   0  0  0  0  0  0  0  0  0  0  0  0
   66.3674   74.9312   93.9698 C   0  0  0  0  0  0  0  0  0  0  0  0
   65.1178   74.5356   94.4143 F   0  0  0  0  0  0  0  0  0  0  0  0
   66.7575   74.1008   92.9350 F   0  0  0  0  0  0  0  0  0  0  0  0
   67.2698   74.8153   95.0115 F   0  0  0  0  0  0  0  0  0  0  0  0
   68.8196   82.4712   90.7611 O   0  0  0  0  0  0  0  0  0  0  0  0
   68.0419   83.2175   91.4147 C   0  0  0  0  0  0  0  0  0  0  0  0
   67.0100   82.6415   92.2339 N   0  0  0  0  0  0  0  0  0  0  0  0
   66.2699   83.2199   92.5287 H   0  0  0  0  0  0  0  0  0  0  0  0
   68.1795   84.6790   91.2905 C   0  0  0  0  0  0  0  0  0  0  0  0
   69.0417   85.3638   90.4359 C   0  0  0  0  0  0  0  0  0  0  0  0
   68.9300   86.7560   90.5355 C   0  0  0  0  0  0  0  0  0  0  0  0
   67.9817   87.1625   91.4616 C   0  0  0  0  0  0  0  0  0  0  0  0
   67.5710   88.8209   91.8444 Cl  0  0  0  0  0  0  0  0  0  0  0  0
   67.2769   85.8070   92.1586 S   0  0  0  0  0  0  0  0  0  0  0  0
 13 14  2  0  0  0
 14 15  1  0  0  0
 15  1  1  0  0  0
  1  2  2  0  0  0
  2  3  1  0  0  0
  3  4  2  0  0  0
  4  5  1  0  0  0
  5  6  2  0  0  0
  6  9  1  0  0  0
  9 10  1  0  0  0
  9 11  1  0  0  0
  9 12  1  0  0  0
  6  7  2  0  0  0
  7  8  2  0  0  0
 14 17  1  0  0  0
 17 18  2  0  0  0
 18 19  1  0  0  0
 19 20  2  0  0  0
 20 21  1  0  0  0
 20 22  1  0  0  0
  8  3  1  0  0  0
 22 17  1  0  0  0
 15 16  1  0  0  0
M  END
> <score>
1.032103

> <minimizedAffinity>
-4.72278

> <CNNscore>
0.5960731506

> <CNNaffinity>
5.1022596359

> <CNN_VS>
3.0413200855

$$$$
HIPS6788


 22 23  0  0  0  0  0  0  0  0999 V2000
   70.5823   80.3594   89.8934 N   0  0  0  0  0  0  0  0  0  0  0  0
   69.4364   79.8883   90.2840 C   0  0  0  0  0  0  0  0  0  0  0  0
   69.2221   78.4349   90.4284 C   0  0  0  0  0  0  0  0  0  0  0  0
   70.1774   77.6541   91.0932 C   0  0  0  0  0  0  0  0  0  0  0  0
   69.9851   76.2788   91.2343 C   0  0  0  0  0  0  0  0  0  0  0  0
   68.8309   75.6857   90.7063 C   0  0  0  0  0  0  0  0  0  0  0  0
   67.9138   76.4594   90.0629 N   0  0  0  0  0  0  0  0  0  0  0  0
   68.0788   77.8007   89.9130 C   0  0  0  0  0  0  0  0  0  0  0  0
   68.6046   74.2089   90.8465 C   0  0  0  0  0  0  0  0  0  0  0  0
   68.2098   73.6602   89.6388 F   0  0  0  0  0  0  0  0  0  0  0  0
   69.7751   73.5961   91.2549 F   0  0  0  0  0  0  0  0  0  0  0  0
   67.6172   73.9772   91.7869 F   0  0  0  0  0  0  0  0  0  0  0  0
   68.9495   82.2495   88.4937 O   0  0  0  0  0  0  0  0  0  0  0  0
   70.0864   82.6065   88.9047 C   0  0  0  0  0  0  0  0  0  0  0  0
   70.8527   81.7337   89.7524 N   0  0  0  0  0  0  0  0  0  0  0  0
   71.6044   82.1166   90.2599 H   0  0  0  0  0  0  0  0  0  0  0  0
   70.5929   83.9411   88.5405 C   0  0  0  0  0  0  0  0  0  0  0  0
   69.8398   85.0193   88.0787 C   0  0  0  0  0  0  0  0  0  0  0  0
   70.6060   86.1650   87.8322 C   0  0  0  0  0  0  0  0  0  0  0  0
   71.9542   85.9884   88.1028 C   0  0  0  0  0  0  0  0  0  0  0  0
   73.2024   87.2021   87.9169 Cl  0  0  0  0  0  0  0  0  0  0  0  0
   72.2052   84.4203   88.6486 S   0  0  0  0  0  0  0  0  0  0  0  0
 13 14  2  0  0  0
 14 15  1  0  0  0
 15  1  1  0  0  0
  1  2  2  0  0  0
  2  3  1  0  0  0
  3  4  2  0  0  0
  4  5  1  0  0  0
  5  6  2  0  0  0
  6  9  1  0  0  0
  9 10  1  0  0  0
  9 11  1  0  0  0
  9 12  1  0  0  0
  6  7  2  0  0  0
  7  8  2  0  0  0
 14 17  1  0  0  0
 17 18  2  0  0  0
 18 19  1  0  0  0
 19 20  2  0  0  0
 20 21  1  0  0  0
 20 22  1  0  0  0
  8  3  1  0  0  0
 22 17  1  0  0  0
 15 16  1  0  0  0
M  END
> <score>
1.032103

> <minimizedAffinity>
-6.06985

> <CNNscore>
0.4840532839

> <CNNaffinity>
5.2358551025

> <CNN_VS>
2.5344328880

$$$$
HIPS6789


 21 22  0  0  0  0  0  0  0  0999 V2000
   67.8617   80.8321   91.1243 N   0  0  0  0  0  0  0  0  0  0  0  0
   68.4329   81.9772   90.9022 C   0  0  0  0  0  0  0  0  0  0  0  0
   68.3059   83.1011   91.8566 C   0  0  0  0  0  0  0  0  0  0  0  0
   69.4431   83.5059   92.5761 C   0  0  0  0  0  0  0  0  0  0  0  0
   69.3689   84.5620   93.4884 C   0  0  0  0  0  0  0  0  0  0  0  0
   68.1590   85.2285   93.6963 C   0  0  0  0  0  0  0  0  0  0  0  0
   68.1001   86.2793   94.6089 O   0  0  0  0  0  0  0  0  0  0  0  0
   67.0184   84.8340   92.9863 C   0  0  0  0  0  0  0  0  0  0  0  0
   67.0849   83.7775   92.0712 C   0  0  0  0  0  0  0  0  0  0  0  0
   65.9564   83.4244   91.4049 F   0  0  0  0  0  0  0  0  0  0  0  0
   68.8692   86.5354   95.0788 H   0  0  0  0  0  0  0  0  0  0  0  0
   66.2013   80.3369   88.8453 O   0  0  0  0  0  0  0  0  0  0  0  0
   67.0061   79.4436   89.2236 C   0  0  0  0  0  0  0  0  0  0  0  0
   67.9650   79.7284   90.2565 N   0  0  0  0  0  0  0  0  0  0  0  0
   68.7324   79.1209   90.3622 H   0  0  0  0  0  0  0  0  0  0  0  0
   66.9764   78.1269   88.5633 C   0  0  0  0  0  0  0  0  0  0  0  0
   67.0872   77.8790   87.1962 C   0  0  0  0  0  0  0  0  0  0  0  0
   67.0402   76.5172   86.8746 C   0  0  0  0  0  0  0  0  0  0  0  0
   66.8969   75.6989   87.9847 C   0  0  0  0  0  0  0  0  0  0  0  0
   66.8079   73.9504   87.9622 Cl  0  0  0  0  0  0  0  0  0  0  0  0
   66.8299   76.6519   89.3657 S   0  0  0  0  0  0  0  0  0  0  0  0
 12 13  2  0  0  0
 13 14  1  0  0  0
 14  1  1  0  0  0
  1  2  2  0  0  0
  2  3  1  0  0  0
  3  4  2  0  0  0
  4  5  1  0  0  0
  5  6  2  0  0  0
  6  7  1  0  0  0
  6  8  1  0  0  0
  8  9  2  0  0  0
  9 10  1  0  0  0
 13 16  1  0  0  0
 16 17  2  0  0  0
 17 18  1  0  0  0
 18 19  2  0  0  0
 19 20  1  0  0  0
 19 21  1  0  0  0
  9  3  1  0  0  0
 21 16  1  0  0  0
 14 15  1  0  0  0
  7 11  1  0  0  0
M  END
> <score>
0.35716

> <minimizedAffinity>
-4.70009

> <CNNscore>
0.6516357064

> <CNNaffinity>
4.9277982712

> <CNN_VS>
3.2111291885

$$$$
HIPS6789


 21 22  0  0  0  0  0  0  0  0999 V2000
   67.6254   79.9290   90.9981 N   0  0  0  0  0  0  0  0  0  0  0  0
   66.8103   79.7284   91.9892 C   0  0  0  0  0  0  0  0  0  0  0  0
   66.6377   78.3857   92.5871 C   0  0  0  0  0  0  0  0  0  0  0  0
   67.3828   77.3148   92.0649 C   0  0  0  0  0  0  0  0  0  0  0  0
   67.2509   76.0297   92.5982 C   0  0  0  0  0  0  0  0  0  0  0  0
   66.3733   75.7950   93.6593 C   0  0  0  0  0  0  0  0  0  0  0  0
   66.2522   74.5088   94.1806 O   0  0  0  0  0  0  0  0  0  0  0  0
   65.6245   76.8536   94.1878 C   0  0  0  0  0  0  0  0  0  0  0  0
   65.7511   78.1429   93.6592 C   0  0  0  0  0  0  0  0  0  0  0  0
   65.0059   79.1411   94.1981 F   0  0  0  0  0  0  0  0  0  0  0  0
   66.7580   73.8075   93.8196 H   0  0  0  0  0  0  0  0  0  0  0  0
   66.2876   80.9267   88.6719 O   0  0  0  0  0  0  0  0  0  0  0  0
   67.2575   81.5761   89.1477 C   0  0  0  0  0  0  0  0  0  0  0  0
   67.8366   81.1883   90.4053 N   0  0  0  0  0  0  0  0  0  0  0  0
   68.4097   81.8361   90.8756 H   0  0  0  0  0  0  0  0  0  0  0  0
   67.7545   82.7568   88.4199 C   0  0  0  0  0  0  0  0  0  0  0  0
   67.6320   83.0044   87.0537 C   0  0  0  0  0  0  0  0  0  0  0  0
   68.1929   84.2253   86.6597 C   0  0  0  0  0  0  0  0  0  0  0  0
   68.7501   84.9350   87.7124 C   0  0  0  0  0  0  0  0  0  0  0  0
   69.5308   86.4976   87.5930 Cl  0  0  0  0  0  0  0  0  0  0  0  0
   68.5509   84.0604   89.1319 S   0  0  0  0  0  0  0  0  0  0  0  0
 12 13  2  0  0  0
 13 14  1  0  0  0
 14  1  1  0  0  0
  1  2  2  0  0  0
  2  3  1  0  0  0
  3  4  2  0  0  0
  4  5  1  0  0  0
  5  6  2  0  0  0
  6  7  1  0  0  0
  6  8  1  0  0  0
  8  9  2  0  0  0
  9 10  1  0  0  0
 13 16  1  0  0  0
 16 17  2  0  0  0
 17 18  1  0  0  0
 18 19  2  0  0  0
 19 20  1  0  0  0
 19 21  1  0  0  0
  9  3  1  0  0  0
 21 16  1  0  0  0
 14 15  1  0  0  0
  7 11  1  0  0  0
M  END
> <score>
0.35716

> <minimizedAffinity>
-5.61038

> <CNNscore>
0.6451785564

> <CNNaffinity>
5.0562286377

> <CNN_VS>
3.2621703148

$$$$
HIPS6789


 21 22  0  0  0  0  0  0  0  0999 V2000
   68.0471   77.6876   91.8786 N   0  0  0  0  0  0  0  0  0  0  0  0
   67.0828   76.8197   91.9379 C   0  0  0  0  0  0  0  0  0  0  0  0
   66.9519   75.8880   93.0803 C   0  0  0  0  0  0  0  0  0  0  0  0
   67.7595   74.7383   93.1080 C   0  0  0  0  0  0  0  0  0  0  0  0
   67.6686   73.8307   94.1669 C   0  0  0  0  0  0  0  0  0  0  0  0
   66.7704   74.0570   95.2124 C   0  0  0  0  0  0  0  0  0  0  0  0
   66.6908   73.1435   96.2612 O   0  0  0  0  0  0  0  0  0  0  0  0
   65.9594   75.1984   95.1959 C   0  0  0  0  0  0  0  0  0  0  0  0
   66.0447   76.1116   94.1392 C   0  0  0  0  0  0  0  0  0  0  0  0
   65.2398   77.2042   94.1595 F   0  0  0  0  0  0  0  0  0  0  0  0
   67.2380   72.3829   96.2625 H   0  0  0  0  0  0  0  0  0  0  0  0
   67.0460   80.3693   91.8295 O   0  0  0  0  0  0  0  0  0  0  0  0
   67.5475   79.8824   90.7806 C   0  0  0  0  0  0  0  0  0  0  0  0
   68.2062   78.6050   90.8226 N   0  0  0  0  0  0  0  0  0  0  0  0
   68.7982   78.3595   90.0754 H   0  0  0  0  0  0  0  0  0  0  0  0
   67.4863   80.6594   89.5303 C   0  0  0  0  0  0  0  0  0  0  0  0
   66.8401   80.2898   88.3519 C   0  0  0  0  0  0  0  0  0  0  0  0
   66.9457   81.2494   87.3379 C   0  0  0  0  0  0  0  0  0  0  0  0
   67.6685   82.3694   87.7196 C   0  0  0  0  0  0  0  0  0  0  0  0
   67.9963   83.7663   86.7162 Cl  0  0  0  0  0  0  0  0  0  0  0  0
   68.1774   82.1805   89.3086 S   0  0  0  0  0  0  0  0  0  0  0  0
 12 13  2  0  0  0
 13 14  1  0  0  0
 14  1  1  0  0  0
  1  2  2  0  0  0
  2  3  1  0  0  0
  3  4  2  0  0  0
  4  5  1  0  0  0
  5  6  2  0  0  0
  6  7  1  0  0  0
  6  8  1  0  0  0
  8  9  2  0  0  0
  9 10  1  0  0  0
 13 16  1  0  0  0
 16 17  2  0  0  0
 17 18  1  0  0  0
 18 19  2  0  0  0
 19 20  1  0  0  0
 19 21  1  0  0  0
  9  3  1  0  0  0
 21 16  1  0  0  0
 14 15  1  0  0  0
  7 11  1  0  0  0
M  END
> <score>
0.35716

> <minimizedAffinity>
-6.09360

> <CNNscore>
0.6374231577

> <CNNaffinity>
5.1406459808

> <CNN_VS>
3.2767667770

$$$$
HIPS6790


 24 26  0  0  0  0  0  0  0  0999 V2000
   69.7508   76.9830   90.8833 C   0  0  0  0  0  0  0  0  0  0  0  0
   69.5394   78.2921   90.4080 C   0  0  0  0  0  0  0  0  0  0  0  0
   68.4451   78.5994   89.5927 C   0  0  0  0  0  0  0  0  0  0  0  0
   67.5406   77.5827   89.2446 C   0  0  0  0  0  0  0  0  0  0  0  0
   67.7359   76.2815   89.7074 C   0  0  0  0  0  0  0  0  0  0  0  0
   68.8319   75.9712   90.5242 C   0  0  0  0  0  0  0  0  0  0  0  0
   68.9966   74.6628   90.9778 O   0  0  0  0  0  0  0  0  0  0  0  0
   68.3803   74.0009   90.7326 H   0  0  0  0  0  0  0  0  0  0  0  0
   70.7608   76.2605   92.9187 O   0  0  0  0  0  0  0  0  0  0  0  0
   70.9259   76.6989   91.7476 C   0  0  0  0  0  0  0  0  0  0  0  0
   72.2218   76.9108   91.2850 O   0  0  0  0  0  0  0  0  0  0  0  0
   72.3623   77.2361   90.4176 H   0  0  0  0  0  0  0  0  0  0  0  0
   68.2951   79.9229   89.1535 O   0  0  0  0  0  0  0  0  0  0  0  0
   68.7170   81.0708   89.8853 C   0  0  0  0  0  0  0  0  0  0  0  0
   69.2485   82.1072   88.9253 C   0  0  0  0  0  0  0  0  0  0  0  0
   68.3994   82.5838   87.9117 C   0  0  0  0  0  0  0  0  0  0  0  0
   68.8375   83.5504   87.0072 C   0  0  0  0  0  0  0  0  0  0  0  0
   70.1274   84.0673   87.1001 C   0  0  0  0  0  0  0  0  0  0  0  0
   70.9967   83.6204   88.1045 C   0  0  0  0  0  0  0  0  0  0  0  0
   72.2930   84.1518   88.1960 C   0  0  0  0  0  0  0  0  0  0  0  0
   73.1623   83.7183   89.1973 C   0  0  0  0  0  0  0  0  0  0  0  0
   72.7480   82.7539   90.1152 C   0  0  0  0  0  0  0  0  0  0  0  0
   71.4623   82.2133   90.0387 C   0  0  0  0  0  0  0  0  0  0  0  0
   70.5644   82.6342   89.0331 C   0  0  0  0  0  0  0  0  0  0  0  0
  9 10  2  0  0  0
 10 11  1  0  0  0
 10  1  1  0  0  0
  1  2  2  0  0  0
  2  3  1  0  0  0
  3 13  1  0  0  0
 13 14  1  0  0  0
 14 15  1  0  0  0
 15 16  2  0  0  0
 16 17  1  0  0  0
 17 18  2  0  0  0
 18 19  1  0  0  0
 19 20  2  0  0  0
 20 21  1  0  0  0
 21 22  2  0  0  0
 22 23  1  0  0  0
 23 24  2  0  0  0
  3  4  2  0  0  0
  4  5  1  0  0  0
  5  6  2  0  0  0
  6  7  1  0  0  0
  6  1  1  0  0  0
 24 15  1  0  0  0
 24 19  1  0  0  0
 11 12  1  0  0  0
  7  8  1  0  0  0
M  END
> <score>
0.107624

> <minimizedAffinity>
-7.81395

> <CNNscore>
0.8133391738

> <CNNaffinity>
5.4506492615

> <CNN_VS>
4.4332265854

$$$$
HIPS6790


 24 26  0  0  0  0  0  0  0  0999 V2000
   69.5835   76.4799   91.1355 C   0  0  0  0  0  0  0  0  0  0  0  0
   70.2502   77.7120   90.9886 C   0  0  0  0  0  0  0  0  0  0  0  0
   69.8569   78.6376   90.0164 C   0  0  0  0  0  0  0  0  0  0  0  0
   68.7757   78.3316   89.1736 C   0  0  0  0  0  0  0  0  0  0  0  0
   68.1050   77.1158   89.3067 C   0  0  0  0  0  0  0  0  0  0  0  0
   68.4976   76.1867   90.2800 C   0  0  0  0  0  0  0  0  0  0  0  0
   67.8029   74.9829   90.3942 O   0  0  0  0  0  0  0  0  0  0  0  0
   67.0846   74.8003   89.8209 H   0  0  0  0  0  0  0  0  0  0  0  0
   70.2851   74.3262   91.8799 O   0  0  0  0  0  0  0  0  0  0  0  0
   70.0328   75.5246   92.1815 C   0  0  0  0  0  0  0  0  0  0  0  0
   70.1817   75.9310   93.5048 O   0  0  0  0  0  0  0  0  0  0  0  0
   69.9985   76.8177   93.7460 H   0  0  0  0  0  0  0  0  0  0  0  0
   70.5652   79.8447   89.9235 O   0  0  0  0  0  0  0  0  0  0  0  0
   70.0069   81.1316   90.1751 C   0  0  0  0  0  0  0  0  0  0  0  0
   70.9261   82.1918   89.6191 C   0  0  0  0  0  0  0  0  0  0  0  0
   72.2330   82.2836   90.1282 C   0  0  0  0  0  0  0  0  0  0  0  0
   73.1256   83.2371   89.6398 C   0  0  0  0  0  0  0  0  0  0  0  0
   72.7364   84.1122   88.6287 C   0  0  0  0  0  0  0  0  0  0  0  0
   71.4434   84.0416   88.0926 C   0  0  0  0  0  0  0  0  0  0  0  0
   71.0611   84.9225   87.0683 C   0  0  0  0  0  0  0  0  0  0  0  0
   69.7786   84.8543   86.5236 C   0  0  0  0  0  0  0  0  0  0  0  0
   68.8676   83.9089   86.9933 C   0  0  0  0  0  0  0  0  0  0  0  0
   69.2302   83.0252   88.0125 C   0  0  0  0  0  0  0  0  0  0  0  0
   70.5218   83.0755   88.5815 C   0  0  0  0  0  0  0  0  0  0  0  0
  9 10  2  0  0  0
 10 11  1  0  0  0
 10  1  1  0  0  0
  1  2  2  0  0  0
  2  3  1  0  0  0
  3 13  1  0  0  0
 13 14  1  0  0  0
 14 15  1  0  0  0
 15 16  2  0  0  0
 16 17  1  0  0  0
 17 18  2  0  0  0
 18 19  1  0  0  0
 19 20  2  0  0  0
 20 21  1  0  0  0
 21 22  2  0  0  0
 22 23  1  0  0  0
 23 24  2  0  0  0
  3  4  2  0  0  0
  4  5  1  0  0  0
  5  6  2  0  0  0
  6  7  1  0  0  0
  6  1  1  0  0  0
 24 15  1  0  0  0
 24 19  1  0  0  0
 11 12  1  0  0  0
  7  8  1  0  0  0
M  END
> <score>
0.107624

> <minimizedAffinity>
-8.15415

> <CNNscore>
0.7503952980

> <CNNaffinity>
5.2669095993

> <CNN_VS>
3.9522643089

$$$$
HIPS6790


 24 26  0  0  0  0  0  0  0  0999 V2000
   69.1282   77.0794   91.5257 C   0  0  0  0  0  0  0  0  0  0  0  0
   68.8984   78.2771   90.8207 C   0  0  0  0  0  0  0  0  0  0  0  0
   69.9518   78.9871   90.2352 C   0  0  0  0  0  0  0  0  0  0  0  0
   71.2617   78.4938   90.3520 C   0  0  0  0  0  0  0  0  0  0  0  0
   71.5057   77.3091   91.0467 C   0  0  0  0  0  0  0  0  0  0  0  0
   70.4517   76.5962   91.6344 C   0  0  0  0  0  0  0  0  0  0  0  0
   70.7257   75.4108   92.3160 O   0  0  0  0  0  0  0  0  0  0  0  0
   71.6076   75.1009   92.3811 H   0  0  0  0  0  0  0  0  0  0  0  0
   67.6691   75.2040   91.7226 O   0  0  0  0  0  0  0  0  0  0  0  0
   67.9808   76.3555   92.1323 C   0  0  0  0  0  0  0  0  0  0  0  0
   67.2330   76.9306   93.1562 O   0  0  0  0  0  0  0  0  0  0  0  0
   67.4510   77.7853   93.4724 H   0  0  0  0  0  0  0  0  0  0  0  0
   69.6528   80.1731   89.5487 O   0  0  0  0  0  0  0  0  0  0  0  0
   69.5443   81.4561   90.1598 C   0  0  0  0  0  0  0  0  0  0  0  0
   70.6835   82.3292   89.6930 C   0  0  0  0  0  0  0  0  0  0  0  0
   71.9441   82.1688   90.2936 C   0  0  0  0  0  0  0  0  0  0  0  0
   73.0324   82.9415   89.8899 C   0  0  0  0  0  0  0  0  0  0  0  0
   72.8881   83.8833   88.8741 C   0  0  0  0  0  0  0  0  0  0  0  0
   71.6470   84.0622   88.2480 C   0  0  0  0  0  0  0  0  0  0  0  0
   71.5116   85.0084   87.2196 C   0  0  0  0  0  0  0  0  0  0  0  0
   70.2818   85.1877   86.5858 C   0  0  0  0  0  0  0  0  0  0  0  0
   69.1784   84.4265   86.9697 C   0  0  0  0  0  0  0  0  0  0  0  0
   69.2944   83.4813   87.9915 C   0  0  0  0  0  0  0  0  0  0  0  0
   70.5280   83.2825   88.6499 C   0  0  0  0  0  0  0  0  0  0  0  0
  9 10  2  0  0  0
 10 11  1  0  0  0
 10  1  1  0  0  0
  1  2  2  0  0  0
  2  3  1  0  0  0
  3 13  1  0  0  0
 13 14  1  0  0  0
 14 15  1  0  0  0
 15 16  2  0  0  0
 16 17  1  0  0  0
 17 18  2  0  0  0
 18 19  1  0  0  0
 19 20  2  0  0  0
 20 21  1  0  0  0
 21 22  2  0  0  0
 22 23  1  0  0  0
 23 24  2  0  0  0
  3  4  2  0  0  0
  4  5  1  0  0  0
  5  6  2  0  0  0
  6  7  1  0  0  0
  6  1  1  0  0  0
 24 15  1  0  0  0
 24 19  1  0  0  0
 11 12  1  0  0  0
  7  8  1  0  0  0
M  END
> <score>
0.107624

> <minimizedAffinity>
-7.98815

> <CNNscore>
0.7006786466

> <CNNaffinity>
5.2269439697

> <CNN_VS>
3.6624081135

$$$$
HIPS6794


 25 27  0  0  0  0  0  0  0  0999 V2000
   67.3879   80.4746   91.0592 C   0  0  0  0  0  0  0  0  0  0  0  0
   68.2202   81.7175   91.0641 C   0  0  0  0  0  0  0  0  0  0  0  0
   68.3213   82.6165   92.1064 C   0  0  0  0  0  0  0  0  0  0  0  0
   69.1490   83.6215   91.6530 C   0  0  0  0  0  0  0  0  0  0  0  0
   69.5041   83.2678   90.3614 C   0  0  0  0  0  0  0  0  0  0  0  0
   68.9282   82.1315   90.0401 O   0  0  0  0  0  0  0  0  0  0  0  0
   70.3420   84.0441   89.4227 C   0  0  0  0  0  0  0  0  0  0  0  0
   69.7324   85.0791   88.6920 C   0  0  0  0  0  0  0  0  0  0  0  0
   70.4782   85.8583   87.8048 C   0  0  0  0  0  0  0  0  0  0  0  0
   71.8387   85.6069   87.6271 C   0  0  0  0  0  0  0  0  0  0  0  0
   72.4543   84.5679   88.3275 C   0  0  0  0  0  0  0  0  0  0  0  0
   71.7179   83.7785   89.2205 C   0  0  0  0  0  0  0  0  0  0  0  0
   72.5423   82.4206   89.9798 Cl  0  0  0  0  0  0  0  0  0  0  0  0
   67.9812   79.4723   90.1743 N   0  0  0  0  0  0  0  0  0  0  0  0
   67.5846   79.3567   89.2806 H   0  0  0  0  0  0  0  0  0  0  0  0
   69.9832   76.7109   91.7427 C   0  0  0  0  0  0  0  0  0  0  0  0
   71.2617   76.9784   91.2269 C   0  0  0  0  0  0  0  0  0  0  0  0
   71.4657   78.0655   90.3754 C   0  0  0  0  0  0  0  0  0  0  0  0
   70.3999   78.8964   90.0258 C   0  0  0  0  0  0  0  0  0  0  0  0
   69.1076   78.6422   90.5223 C   0  0  0  0  0  0  0  0  0  0  0  0
   68.9125   77.5511   91.3854 C   0  0  0  0  0  0  0  0  0  0  0  0
   70.4706   74.5172   92.5312 O   0  0  0  0  0  0  0  0  0  0  0  0
   69.7704   75.5594   92.6476 C   0  0  0  0  0  0  0  0  0  0  0  0
   68.7929   75.6162   93.6379 O   0  0  0  0  0  0  0  0  0  0  0  0
   68.2668   76.3857   93.7334 H   0  0  0  0  0  0  0  0  0  0  0  0
 22 23  2  0  0  0
 23 24  1  0  0  0
 23 16  1  0  0  0
 16 17  2  0  0  0
 17 18  1  0  0  0
 18 19  2  0  0  0
 19 20  1  0  0  0
 20 14  1  0  0  0
 14  1  1  0  0  0
  1  2  1  0  0  0
  2  3  2  0  0  0
  3  4  1  0  0  0
  4  5  2  0  0  0
  5  7  1  0  0  0
  7  8  2  0  0  0
  8  9  1  0  0  0
  9 10  2  0  0  0
 10 11  1  0  0  0
 11 12  2  0  0  0
 12 13  1  0  0  0
  5  6  1  0  0  0
 20 21  2  0  0  0
 21 16  1  0  0  0
  6  2  1  0  0  0
 12  7  1  0  0  0
 24 25  1  0  0  0
 14 15  1  0  0  0
M  END
> <score>
-0.493566

> <minimizedAffinity>
-6.81882

> <CNNscore>
0.8158687949

> <CNNaffinity>
5.8753147125

> <CNN_VS>
4.7934861183

$$$$
HIPS6794


 25 27  0  0  0  0  0  0  0  0999 V2000
   67.2622   79.2505   89.3269 C   0  0  0  0  0  0  0  0  0  0  0  0
   67.8130   80.6412   89.3276 C   0  0  0  0  0  0  0  0  0  0  0  0
   67.0865   81.7965   89.5333 C   0  0  0  0  0  0  0  0  0  0  0  0
   67.9863   82.8321   89.3973 C   0  0  0  0  0  0  0  0  0  0  0  0
   69.2081   82.2402   89.1210 C   0  0  0  0  0  0  0  0  0  0  0  0
   69.0677   80.9345   89.0804 O   0  0  0  0  0  0  0  0  0  0  0  0
   70.4877   82.9254   88.8399 C   0  0  0  0  0  0  0  0  0  0  0  0
   70.5979   83.6573   87.6445 C   0  0  0  0  0  0  0  0  0  0  0  0
   71.7758   84.3409   87.3350 C   0  0  0  0  0  0  0  0  0  0  0  0
   72.8621   84.2930   88.2087 C   0  0  0  0  0  0  0  0  0  0  0  0
   72.7772   83.5518   89.3887 C   0  0  0  0  0  0  0  0  0  0  0  0
   71.6016   82.8613   89.7113 C   0  0  0  0  0  0  0  0  0  0  0  0
   71.6143   81.8619   91.1609 Cl  0  0  0  0  0  0  0  0  0  0  0  0
   66.6027   78.9672   90.6015 N   0  0  0  0  0  0  0  0  0  0  0  0
   65.7124   79.3585   90.7545 H   0  0  0  0  0  0  0  0  0  0  0  0
   69.0182   76.7677   92.4511 C   0  0  0  0  0  0  0  0  0  0  0  0
   68.3305   76.5684   93.6592 C   0  0  0  0  0  0  0  0  0  0  0  0
   67.0761   77.1467   93.8608 C   0  0  0  0  0  0  0  0  0  0  0  0
   66.4938   77.9315   92.8641 C   0  0  0  0  0  0  0  0  0  0  0  0
   67.1684   78.1538   91.6489 C   0  0  0  0  0  0  0  0  0  0  0  0
   68.4266   77.5612   91.4508 C   0  0  0  0  0  0  0  0  0  0  0  0
   70.4411   74.9616   91.8307 O   0  0  0  0  0  0  0  0  0  0  0  0
   70.3466   76.1508   92.2389 C   0  0  0  0  0  0  0  0  0  0  0  0
   71.5068   76.8794   92.4888 O   0  0  0  0  0  0  0  0  0  0  0  0
   71.4483   77.7640   92.7924 H   0  0  0  0  0  0  0  0  0  0  0  0
 22 23  2  0  0  0
 23 24  1  0  0  0
 23 16  1  0  0  0
 16 17  2  0  0  0
 17 18  1  0  0  0
 18 19  2  0  0  0
 19 20  1  0  0  0
 20 14  1  0  0  0
 14  1  1  0  0  0
  1  2  1  0  0  0
  2  3  2  0  0  0
  3  4  1  0  0  0
  4  5  2  0  0  0
  5  7  1  0  0  0
  7  8  2  0  0  0
  8  9  1  0  0  0
  9 10  2  0  0  0
 10 11  1  0  0  0
 11 12  2  0  0  0
 12 13  1  0  0  0
  5  6  1  0  0  0
 20 21  2  0  0  0
 21 16  1  0  0  0
  6  2  1  0  0  0
 12  7  1  0  0  0
 24 25  1  0  0  0
 14 15  1  0  0  0
M  END
> <score>
-0.493566

> <minimizedAffinity>
-6.72886

> <CNNscore>
0.8045359254

> <CNNaffinity>
5.8610782623

> <CNN_VS>
4.7154479027

$$$$
HIPS6794


 25 27  0  0  0  0  0  0  0  0999 V2000
   66.8118   80.1663   89.3441 C   0  0  0  0  0  0  0  0  0  0  0  0
   67.3470   81.3015   88.5303 C   0  0  0  0  0  0  0  0  0  0  0  0
   67.3488   81.3756   87.1521 C   0  0  0  0  0  0  0  0  0  0  0  0
   67.9784   82.5625   86.8433 C   0  0  0  0  0  0  0  0  0  0  0  0
   68.3173   83.1399   88.0562 C   0  0  0  0  0  0  0  0  0  0  0  0
   67.9322   82.3592   89.0403 O   0  0  0  0  0  0  0  0  0  0  0  0
   69.0572   84.4024   88.2672 C   0  0  0  0  0  0  0  0  0  0  0  0
   68.4615   85.3928   89.0677 C   0  0  0  0  0  0  0  0  0  0  0  0
   69.1220   86.5978   89.3175 C   0  0  0  0  0  0  0  0  0  0  0  0
   70.3796   86.8340   88.7623 C   0  0  0  0  0  0  0  0  0  0  0  0
   70.9749   85.8704   87.9462 C   0  0  0  0  0  0  0  0  0  0  0  0
   70.3234   84.6573   87.6873 C   0  0  0  0  0  0  0  0  0  0  0  0
   71.0912   83.5432   86.5607 Cl  0  0  0  0  0  0  0  0  0  0  0  0
   67.6310   79.9715   90.5403 N   0  0  0  0  0  0  0  0  0  0  0  0
   67.3402   80.4105   91.3722 H   0  0  0  0  0  0  0  0  0  0  0  0
   69.9226   77.0557   91.1235 C   0  0  0  0  0  0  0  0  0  0  0  0
   71.1466   77.5820   90.6796 C   0  0  0  0  0  0  0  0  0  0  0  0
   71.2194   78.8907   90.1995 C   0  0  0  0  0  0  0  0  0  0  0  0
   70.0752   79.6889   90.1534 C   0  0  0  0  0  0  0  0  0  0  0  0
   68.8353   79.1800   90.5834 C   0  0  0  0  0  0  0  0  0  0  0  0
   68.7723   77.8647   91.0730 C   0  0  0  0  0  0  0  0  0  0  0  0
   70.4050   75.3586   92.7231 O   0  0  0  0  0  0  0  0  0  0  0  0
   69.8490   75.6689   91.6348 C   0  0  0  0  0  0  0  0  0  0  0  0
   69.1637   74.6917   90.9172 O   0  0  0  0  0  0  0  0  0  0  0  0
   68.7468   74.9112   90.1072 H   0  0  0  0  0  0  0  0  0  0  0  0
 22 23  2  0  0  0
 23 24  1  0  0  0
 23 16  1  0  0  0
 16 17  2  0  0  0
 17 18  1  0  0  0
 18 19  2  0  0  0
 19 20  1  0  0  0
 20 14  1  0  0  0
 14  1  1  0  0  0
  1  2  1  0  0  0
  2  3  2  0  0  0
  3  4  1  0  0  0
  4  5  2  0  0  0
  5  7  1  0  0  0
  7  8  2  0  0  0
  8  9  1  0  0  0
  9 10  2  0  0  0
 10 11  1  0  0  0
 11 12  2  0  0  0
 12 13  1  0  0  0
  5  6  1  0  0  0
 20 21  2  0  0  0
 21 16  1  0  0  0
  6  2  1  0  0  0
 12  7  1  0  0  0
 24 25  1  0  0  0
 14 15  1  0  0  0
M  END
> <score>
-0.493566

> <minimizedAffinity>
-6.77757

> <CNNscore>
0.7516096830

> <CNNaffinity>
5.8225955963

> <CNN_VS>
4.3763194084

$$$$
HIPS6795


 25 27  0  0  0  0  0  0  0  0999 V2000
   67.3043   77.0105   91.1768 C   0  0  0  0  0  0  0  0  0  0  0  0
   68.5104   77.8066   90.7865 C   0  0  0  0  0  0  0  0  0  0  0  0
   69.7943   77.3172   90.6664 C   0  0  0  0  0  0  0  0  0  0  0  0
   70.5733   78.3958   90.3056 C   0  0  0  0  0  0  0  0  0  0  0  0
   69.7129   79.4817   90.2340 C   0  0  0  0  0  0  0  0  0  0  0  0
   68.4924   79.0940   90.5316 O   0  0  0  0  0  0  0  0  0  0  0  0
   70.0614   80.8771   89.8798 C   0  0  0  0  0  0  0  0  0  0  0  0
   69.0895   81.7841   89.4157 C   0  0  0  0  0  0  0  0  0  0  0  0
   69.4456   83.0964   89.0902 C   0  0  0  0  0  0  0  0  0  0  0  0
   70.7699   83.5186   89.2235 C   0  0  0  0  0  0  0  0  0  0  0  0
   71.7440   82.6281   89.6831 C   0  0  0  0  0  0  0  0  0  0  0  0
   73.4074   83.1590   89.8513 Cl  0  0  0  0  0  0  0  0  0  0  0  0
   71.3923   81.3135   90.0096 C   0  0  0  0  0  0  0  0  0  0  0  0
   67.0100   77.1903   92.5985 N   0  0  0  0  0  0  0  0  0  0  0  0
   66.8046   78.1000   92.9138 H   0  0  0  0  0  0  0  0  0  0  0  0
   68.1885   74.2926   94.6728 C   0  0  0  0  0  0  0  0  0  0  0  0
   67.0474   74.0378   95.4523 C   0  0  0  0  0  0  0  0  0  0  0  0
   65.8968   74.8116   95.2930 C   0  0  0  0  0  0  0  0  0  0  0  0
   65.8686   75.8478   94.3579 C   0  0  0  0  0  0  0  0  0  0  0  0
   67.0009   76.1238   93.5685 C   0  0  0  0  0  0  0  0  0  0  0  0
   68.1537   75.3378   93.7326 C   0  0  0  0  0  0  0  0  0  0  0  0
   70.3251   73.5116   93.9687 O   0  0  0  0  0  0  0  0  0  0  0  0
   69.4115   73.4755   94.8370 C   0  0  0  0  0  0  0  0  0  0  0  0
   69.5650   72.6576   95.9536 O   0  0  0  0  0  0  0  0  0  0  0  0
   68.8924   72.6230   96.6050 H   0  0  0  0  0  0  0  0  0  0  0  0
 22 23  2  0  0  0
 23 24  1  0  0  0
 23 16  1  0  0  0
 16 17  2  0  0  0
 17 18  1  0  0  0
 18 19  2  0  0  0
 19 20  1  0  0  0
 20 14  1  0  0  0
 14  1  1  0  0  0
  1  2  1  0  0  0
  2  3  2  0  0  0
  3  4  1  0  0  0
  4  5  2  0  0  0
  5  7  1  0  0  0
  7  8  2  0  0  0
  8  9  1  0  0  0
  9 10  2  0  0  0
 10 11  1  0  0  0
 11 12  1  0  0  0
 11 13  2  0  0  0
  5  6  1  0  0  0
 20 21  2  0  0  0
 21 16  1  0  0  0
  6  2  1  0  0  0
 13  7  1  0  0  0
 24 25  1  0  0  0
 14 15  1  0  0  0
M  END
> <score>
-0.486695

> <minimizedAffinity>
-7.78257

> <CNNscore>
0.7565751076

> <CNNaffinity>
5.5836753845

> <CNN_VS>
4.2244696617

$$$$
HIPS6795


 25 27  0  0  0  0  0  0  0  0999 V2000
   66.9976   79.5363   89.7629 C   0  0  0  0  0  0  0  0  0  0  0  0
   67.3819   80.6004   88.7827 C   0  0  0  0  0  0  0  0  0  0  0  0
   66.7713   80.8356   87.5685 C   0  0  0  0  0  0  0  0  0  0  0  0
   67.4578   81.8886   87.0025 C   0  0  0  0  0  0  0  0  0  0  0  0
   68.4526   82.2271   87.9084 C   0  0  0  0  0  0  0  0  0  0  0  0
   68.3800   81.4351   88.9552 O   0  0  0  0  0  0  0  0  0  0  0  0
   69.4604   83.3037   87.7690 C   0  0  0  0  0  0  0  0  0  0  0  0
   69.2113   84.4495   86.9892 C   0  0  0  0  0  0  0  0  0  0  0  0
   70.1797   85.4517   86.8764 C   0  0  0  0  0  0  0  0  0  0  0  0
   71.4030   85.3243   87.5374 C   0  0  0  0  0  0  0  0  0  0  0  0
   71.6624   84.1920   88.3144 C   0  0  0  0  0  0  0  0  0  0  0  0
   73.1990   84.0326   89.1456 Cl  0  0  0  0  0  0  0  0  0  0  0  0
   70.6965   83.1861   88.4300 C   0  0  0  0  0  0  0  0  0  0  0  0
   67.6988   78.2875   89.4645 N   0  0  0  0  0  0  0  0  0  0  0  0
   67.3419   77.7213   88.7426 H   0  0  0  0  0  0  0  0  0  0  0  0
   69.8774   76.3584   91.8352 C   0  0  0  0  0  0  0  0  0  0  0  0
   71.1419   76.8922   91.5339 C   0  0  0  0  0  0  0  0  0  0  0  0
   71.2756   77.8834   90.5603 C   0  0  0  0  0  0  0  0  0  0  0  0
   70.1540   78.3535   89.8750 C   0  0  0  0  0  0  0  0  0  0  0  0
   68.8778   77.8311   90.1574 C   0  0  0  0  0  0  0  0  0  0  0  0
   68.7515   76.8363   91.1413 C   0  0  0  0  0  0  0  0  0  0  0  0
   69.0101   75.5068   93.8829 O   0  0  0  0  0  0  0  0  0  0  0  0
   69.7292   75.3074   92.8665 C   0  0  0  0  0  0  0  0  0  0  0  0
   70.3837   74.0865   92.7243 O   0  0  0  0  0  0  0  0  0  0  0  0
   70.9207   73.9275   91.9730 H   0  0  0  0  0  0  0  0  0  0  0  0
 22 23  2  0  0  0
 23 24  1  0  0  0
 23 16  1  0  0  0
 16 17  2  0  0  0
 17 18  1  0  0  0
 18 19  2  0  0  0
 19 20  1  0  0  0
 20 14  1  0  0  0
 14  1  1  0  0  0
  1  2  1  0  0  0
  2  3  2  0  0  0
  3  4  1  0  0  0
  4  5  2  0  0  0
  5  7  1  0  0  0
  7  8  2  0  0  0
  8  9  1  0  0  0
  9 10  2  0  0  0
 10 11  1  0  0  0
 11 12  1  0  0  0
 11 13  2  0  0  0
  5  6  1  0  0  0
 20 21  2  0  0  0
 21 16  1  0  0  0
  6  2  1  0  0  0
 13  7  1  0  0  0
 24 25  1  0  0  0
 14 15  1  0  0  0
M  END
> <score>
-0.486695

> <minimizedAffinity>
-7.51021

> <CNNscore>
0.7125709057

> <CNNaffinity>
5.7064085007

> <CNN_VS>
4.0662207603

$$$$
HIPS6795


 25 27  0  0  0  0  0  0  0  0999 V2000
   66.9777   79.4672   89.6191 C   0  0  0  0  0  0  0  0  0  0  0  0
   67.3931   80.6088   88.7444 C   0  0  0  0  0  0  0  0  0  0  0  0
   66.7114   81.0627   87.6346 C   0  0  0  0  0  0  0  0  0  0  0  0
   67.4600   82.1083   87.1378 C   0  0  0  0  0  0  0  0  0  0  0  0
   68.5595   82.2231   87.9760 C   0  0  0  0  0  0  0  0  0  0  0  0
   68.4886   81.3101   88.9192 O   0  0  0  0  0  0  0  0  0  0  0  0
   69.6650   83.2035   87.8717 C   0  0  0  0  0  0  0  0  0  0  0  0
   69.5856   84.3146   87.0105 C   0  0  0  0  0  0  0  0  0  0  0  0
   70.6432   85.2259   86.9330 C   0  0  0  0  0  0  0  0  0  0  0  0
   71.7880   85.0411   87.7107 C   0  0  0  0  0  0  0  0  0  0  0  0
   71.8793   83.9423   88.5695 C   0  0  0  0  0  0  0  0  0  0  0  0
   73.3173   83.7110   89.5471 Cl  0  0  0  0  0  0  0  0  0  0  0  0
   70.8234   83.0274   88.6500 C   0  0  0  0  0  0  0  0  0  0  0  0
   67.2997   78.1903   88.9820 N   0  0  0  0  0  0  0  0  0  0  0  0
   67.1116   78.0962   88.0202 H   0  0  0  0  0  0  0  0  0  0  0  0
   69.4156   76.2096   91.3670 C   0  0  0  0  0  0  0  0  0  0  0  0
   69.0211   74.8983   91.0517 C   0  0  0  0  0  0  0  0  0  0  0  0
   68.0686   74.6676   90.0578 C   0  0  0  0  0  0  0  0  0  0  0  0
   67.4972   75.7382   89.3677 C   0  0  0  0  0  0  0  0  0  0  0  0
   67.8741   77.0605   89.6690 C   0  0  0  0  0  0  0  0  0  0  0  0
   68.8362   77.2837   90.6681 C   0  0  0  0  0  0  0  0  0  0  0  0
   70.1263   76.3233   93.6369 O   0  0  0  0  0  0  0  0  0  0  0  0
   70.4251   76.4606   92.4196 C   0  0  0  0  0  0  0  0  0  0  0  0
   71.7165   76.8517   92.0752 O   0  0  0  0  0  0  0  0  0  0  0  0
   71.9495   76.9568   91.1738 H   0  0  0  0  0  0  0  0  0  0  0  0
 22 23  2  0  0  0
 23 24  1  0  0  0
 23 16  1  0  0  0
 16 17  2  0  0  0
 17 18  1  0  0  0
 18 19  2  0  0  0
 19 20  1  0  0  0
 20 14  1  0  0  0
 14  1  1  0  0  0
  1  2  1  0  0  0
  2  3  2  0  0  0
  3  4  1  0  0  0
  4  5  2  0  0  0
  5  7  1  0  0  0
  7  8  2  0  0  0
  8  9  1  0  0  0
  9 10  2  0  0  0
 10 11  1  0  0  0
 11 12  1  0  0  0
 11 13  2  0  0  0
  5  6  1  0  0  0
 20 21  2  0  0  0
 21 16  1  0  0  0
  6  2  1  0  0  0
 13  7  1  0  0  0
 24 25  1  0  0  0
 14 15  1  0  0  0
M  END
> <score>
-0.486695

> <minimizedAffinity>
-7.75932

> <CNNscore>
0.7108698487

> <CNNaffinity>
5.7121086121

> <CNN_VS>
4.0605659485

$$$$
HIPS6819


 25 27  0  0  0  0  0  0  0  0999 V2000
   68.6240   77.2521   90.9370 C   0  0  0  0  0  0  0  0  0  0  0  0
   68.7160   78.5573   90.4208 C   0  0  0  0  0  0  0  0  0  0  0  0
   68.2402   78.8595   89.1308 C   0  0  0  0  0  0  0  0  0  0  0  0
   67.6811   77.8413   88.3556 C   0  0  0  0  0  0  0  0  0  0  0  0
   67.5746   76.5444   88.8590 C   0  0  0  0  0  0  0  0  0  0  0  0
   68.0263   76.2399   90.1473 C   0  0  0  0  0  0  0  0  0  0  0  0
   67.8585   74.9315   90.6065 O   0  0  0  0  0  0  0  0  0  0  0  0
   67.4583   74.2889   90.0543 H   0  0  0  0  0  0  0  0  0  0  0  0
   69.1160   76.9933   92.3404 C   0  0  0  0  0  0  0  0  0  0  0  0
   71.5016   76.8588   92.3084 O   0  0  0  0  0  0  0  0  0  0  0  0
   70.4058   76.2363   92.3081 C   0  0  0  0  0  0  0  0  0  0  0  0
   70.3970   74.8453   92.2991 O   0  0  0  0  0  0  0  0  0  0  0  0
   69.5826   74.3819   92.2988 H   0  0  0  0  0  0  0  0  0  0  0  0
   68.2925   80.1553   88.5893 O   0  0  0  0  0  0  0  0  0  0  0  0
   68.3757   81.3614   89.3530 C   0  0  0  0  0  0  0  0  0  0  0  0
   69.0596   82.4837   88.5876 C   0  0  0  0  0  0  0  0  0  0  0  0
   68.3460   83.1594   87.5777 C   0  0  0  0  0  0  0  0  0  0  0  0
   68.9184   84.2218   86.8813 C   0  0  0  0  0  0  0  0  0  0  0  0
   70.2223   84.6213   87.1566 C   0  0  0  0  0  0  0  0  0  0  0  0
   70.9813   83.9402   88.1166 C   0  0  0  0  0  0  0  0  0  0  0  0
   72.3066   84.3328   88.3629 C   0  0  0  0  0  0  0  0  0  0  0  0
   73.0845   83.6421   89.2912 C   0  0  0  0  0  0  0  0  0  0  0  0
   72.5521   82.5508   89.9750 C   0  0  0  0  0  0  0  0  0  0  0  0
   71.2335   82.1492   89.7472 C   0  0  0  0  0  0  0  0  0  0  0  0
   70.4154   82.8462   88.8292 C   0  0  0  0  0  0  0  0  0  0  0  0
 10 11  2  0  0  0
 11 12  1  0  0  0
 11  9  1  0  0  0
  9  1  1  0  0  0
  1  2  2  0  0  0
  2  3  1  0  0  0
  3 14  1  0  0  0
 14 15  1  0  0  0
 15 16  1  0  0  0
 16 17  2  0  0  0
 17 18  1  0  0  0
 18 19  2  0  0  0
 19 20  1  0  0  0
 20 21  2  0  0  0
 21 22  1  0  0  0
 22 23  2  0  0  0
 23 24  1  0  0  0
 24 25  2  0  0  0
  3  4  2  0  0  0
  4  5  1  0  0  0
  5  6  2  0  0  0
  6  7  1  0  0  0
  6  1  1  0  0  0
 25 16  1  0  0  0
 25 20  1  0  0  0
 12 13  1  0  0  0
  7  8  1  0  0  0
M  END
> <score>
0.709324

> <minimizedAffinity>
-7.51009

> <CNNscore>
0.8167890310

> <CNNaffinity>
5.6341285706

> <CNN_VS>
4.6018943787

$$$$
HIPS6819


 25 27  0  0  0  0  0  0  0  0999 V2000
   68.6004   77.2229   90.9446 C   0  0  0  0  0  0  0  0  0  0  0  0
   68.6729   78.5583   90.5091 C   0  0  0  0  0  0  0  0  0  0  0  0
   68.2470   78.9215   89.2174 C   0  0  0  0  0  0  0  0  0  0  0  0
   67.7579   77.9343   88.3592 C   0  0  0  0  0  0  0  0  0  0  0  0
   67.6712   76.6073   88.7817 C   0  0  0  0  0  0  0  0  0  0  0  0
   68.0731   76.2413   90.0704 C   0  0  0  0  0  0  0  0  0  0  0  0
   67.9277   74.9037   90.4452 O   0  0  0  0  0  0  0  0  0  0  0  0
   67.5746   74.2829   89.8387 H   0  0  0  0  0  0  0  0  0  0  0  0
   69.0358   76.8968   92.3527 C   0  0  0  0  0  0  0  0  0  0  0  0
   70.4348   74.9620   92.2577 O   0  0  0  0  0  0  0  0  0  0  0  0
   70.3686   76.2178   92.3409 C   0  0  0  0  0  0  0  0  0  0  0  0
   71.5355   76.9726   92.4006 O   0  0  0  0  0  0  0  0  0  0  0  0
   71.4868   77.9063   92.4624 H   0  0  0  0  0  0  0  0  0  0  0  0
   68.2813   80.2480   88.7543 O   0  0  0  0  0  0  0  0  0  0  0  0
   68.3853   81.4057   89.5871 C   0  0  0  0  0  0  0  0  0  0  0  0
   69.7241   82.1106   89.4316 C   0  0  0  0  0  0  0  0  0  0  0  0
   70.7896   81.7544   90.2822 C   0  0  0  0  0  0  0  0  0  0  0  0
   72.0451   82.3433   90.1466 C   0  0  0  0  0  0  0  0  0  0  0  0
   72.2635   83.3172   89.1775 C   0  0  0  0  0  0  0  0  0  0  0  0
   71.2150   83.7353   88.3482 C   0  0  0  0  0  0  0  0  0  0  0  0
   71.4399   84.7415   87.3954 C   0  0  0  0  0  0  0  0  0  0  0  0
   70.3970   85.1913   86.5868 C   0  0  0  0  0  0  0  0  0  0  0  0
   69.1209   84.6488   86.7261 C   0  0  0  0  0  0  0  0  0  0  0  0
   68.8795   83.6428   87.6650 C   0  0  0  0  0  0  0  0  0  0  0  0
   69.9240   83.1518   88.4809 C   0  0  0  0  0  0  0  0  0  0  0  0
 10 11  2  0  0  0
 11 12  1  0  0  0
 11  9  1  0  0  0
  9  1  1  0  0  0
  1  2  2  0  0  0
  2  3  1  0  0  0
  3 14  1  0  0  0
 14 15  1  0  0  0
 15 16  1  0  0  0
 16 17  2  0  0  0
 17 18  1  0  0  0
 18 19  2  0  0  0
 19 20  1  0  0  0
 20 21  2  0  0  0
 21 22  1  0  0  0
 22 23  2  0  0  0
 23 24  1  0  0  0
 24 25  2  0  0  0
  3  4  2  0  0  0
  4  5  1  0  0  0
  5  6  2  0  0  0
  6  7  1  0  0  0
  6  1  1  0  0  0
 25 16  1  0  0  0
 25 20  1  0  0  0
 12 13  1  0  0  0
  7  8  1  0  0  0
M  END
> <score>
0.709324

> <minimizedAffinity>
-7.44209

> <CNNscore>
0.7724937797

> <CNNaffinity>
5.5687398911

> <CNN_VS>
4.3018169403

$$$$
HIPS6819


 25 27  0  0  0  0  0  0  0  0999 V2000
   67.4723   74.0744   93.8233 C   0  0  0  0  0  0  0  0  0  0  0  0
   67.4592   75.1420   92.9076 C   0  0  0  0  0  0  0  0  0  0  0  0
   66.6607   76.2789   93.1344 C   0  0  0  0  0  0  0  0  0  0  0  0
   65.8651   76.3344   94.2808 C   0  0  0  0  0  0  0  0  0  0  0  0
   65.8759   75.2868   95.2023 C   0  0  0  0  0  0  0  0  0  0  0  0
   66.6818   74.1626   94.9950 C   0  0  0  0  0  0  0  0  0  0  0  0
   66.6753   73.1646   95.9721 O   0  0  0  0  0  0  0  0  0  0  0  0
   66.1387   73.2588   96.7344 H   0  0  0  0  0  0  0  0  0  0  0  0
   68.3760   72.8969   93.5483 C   0  0  0  0  0  0  0  0  0  0  0  0
   70.7619   72.7889   93.4714 O   0  0  0  0  0  0  0  0  0  0  0  0
   69.7381   73.1430   94.1155 C   0  0  0  0  0  0  0  0  0  0  0  0
   69.8763   73.7812   95.3437 O   0  0  0  0  0  0  0  0  0  0  0  0
   69.1155   74.0447   95.8231 H   0  0  0  0  0  0  0  0  0  0  0  0
   66.6386   77.3756   92.2557 O   0  0  0  0  0  0  0  0  0  0  0  0
   67.7617   77.8531   91.5105 C   0  0  0  0  0  0  0  0  0  0  0  0
   67.4780   77.9200   90.0177 C   0  0  0  0  0  0  0  0  0  0  0  0
   67.2772   76.7221   89.3033 C   0  0  0  0  0  0  0  0  0  0  0  0
   66.9720   76.7387   87.9439 C   0  0  0  0  0  0  0  0  0  0  0  0
   66.8830   77.9459   87.2583 C   0  0  0  0  0  0  0  0  0  0  0  0
   67.1279   79.1545   87.9225 C   0  0  0  0  0  0  0  0  0  0  0  0
   67.0662   80.3640   87.2124 C   0  0  0  0  0  0  0  0  0  0  0  0
   67.3412   81.5714   87.8532 C   0  0  0  0  0  0  0  0  0  0  0  0
   67.6875   81.5832   89.2029 C   0  0  0  0  0  0  0  0  0  0  0  0
   67.7485   80.3900   89.9271 C   0  0  0  0  0  0  0  0  0  0  0  0
   67.4514   79.1545   89.3083 C   0  0  0  0  0  0  0  0  0  0  0  0
 10 11  2  0  0  0
 11 12  1  0  0  0
 11  9  1  0  0  0
  9  1  1  0  0  0
  1  2  2  0  0  0
  2  3  1  0  0  0
  3 14  1  0  0  0
 14 15  1  0  0  0
 15 16  1  0  0  0
 16 17  2  0  0  0
 17 18  1  0  0  0
 18 19  2  0  0  0
 19 20  1  0  0  0
 20 21  2  0  0  0
 21 22  1  0  0  0
 22 23  2  0  0  0
 23 24  1  0  0  0
 24 25  2  0  0  0
  3  4  2  0  0  0
  4  5  1  0  0  0
  5  6  2  0  0  0
  6  7  1  0  0  0
  6  1  1  0  0  0
 25 16  1  0  0  0
 25 20  1  0  0  0
 12 13  1  0  0  0
  7  8  1  0  0  0
M  END
> <score>
0.709324

> <minimizedAffinity>
-7.27463

> <CNNscore>
0.7433370948

> <CNNaffinity>
5.5132045746

> <CNN_VS>
4.0981693268

$$$$
HIPS6826


 27 29  0  0  0  0  0  0  0  0999 V2000
   68.6296   75.9730   91.0787 N   0  0  0  0  0  0  0  0  0  0  0  0
   69.3874   76.5902   91.1974 H   0  0  0  0  0  0  0  0  0  0  0  0
   69.9410   72.6665   92.3512 C   0  0  0  0  0  0  0  0  0  0  0  0
   69.6873   74.0457   92.2470 C   0  0  0  0  0  0  0  0  0  0  0  0
   68.8840   74.5606   91.2132 C   0  0  0  0  0  0  0  0  0  0  0  0
   68.3209   73.6744   90.2870 C   0  0  0  0  0  0  0  0  0  0  0  0
   68.5480   72.3020   90.3902 C   0  0  0  0  0  0  0  0  0  0  0  0
   69.3361   71.7838   91.4227 C   0  0  0  0  0  0  0  0  0  0  0  0
   69.4618   70.3956   91.5097 O   0  0  0  0  0  0  0  0  0  0  0  0
   69.0455   69.8468   90.8746 H   0  0  0  0  0  0  0  0  0  0  0  0
   71.8376   71.4596   93.1445 O   0  0  0  0  0  0  0  0  0  0  0  0
   70.8566   72.2020   93.4166 C   0  0  0  0  0  0  0  0  0  0  0  0
   70.6722   72.6369   94.7264 O   0  0  0  0  0  0  0  0  0  0  0  0
   69.9457   73.1892   94.9388 H   0  0  0  0  0  0  0  0  0  0  0  0
   67.3177   76.5500   90.7771 C   0  0  0  0  0  0  0  0  0  0  0  0
   67.0717   77.7920   91.6107 C   0  0  0  0  0  0  0  0  0  0  0  0
   67.0155   79.0360   90.9546 C   0  0  0  0  0  0  0  0  0  0  0  0
   66.8400   80.2171   91.6766 C   0  0  0  0  0  0  0  0  0  0  0  0
   66.7089   80.1757   93.0630 C   0  0  0  0  0  0  0  0  0  0  0  0
   66.7350   78.9513   93.7314 C   0  0  0  0  0  0  0  0  0  0  0  0
   66.8970   77.7493   93.0205 C   0  0  0  0  0  0  0  0  0  0  0  0
   66.8650   76.4798   93.7803 C   0  0  0  0  0  0  0  0  0  0  0  0
   67.9751   76.0766   94.5415 C   0  0  0  0  0  0  0  0  0  0  0  0
   67.9437   74.8696   95.2466 C   0  0  0  0  0  0  0  0  0  0  0  0
   66.8106   74.0532   95.1881 C   0  0  0  0  0  0  0  0  0  0  0  0
   65.7092   74.4397   94.4195 C   0  0  0  0  0  0  0  0  0  0  0  0
   65.7373   75.6449   93.7116 C   0  0  0  0  0  0  0  0  0  0  0  0
 11 12  2  0  0  0
 12 13  1  0  0  0
 12  3  1  0  0  0
  3  4  2  0  0  0
  4  5  1  0  0  0
  5  1  1  0  0  0
  1 15  1  0  0  0
 15 16  1  0  0  0
 16 17  2  0  0  0
 17 18  1  0  0  0
 18 19  2  0  0  0
 19 20  1  0  0  0
 20 21  2  0  0  0
 21 22  1  0  0  0
 22 23  2  0  0  0
 23 24  1  0  0  0
 24 25  2  0  0  0
 25 26  1  0  0  0
 26 27  2  0  0  0
  5  6  2  0  0  0
  6  7  1  0  0  0
  7  8  2  0  0  0
  8  9  1  0  0  0
  8  3  1  0  0  0
 21 16  1  0  0  0
 27 22  1  0  0  0
 13 14  1  0  0  0
  1  2  1  0  0  0
  9 10  1  0  0  0
M  END
> <score>
0.307615

> <minimizedAffinity>
-7.31552

> <CNNscore>
0.7324219942

> <CNNaffinity>
5.5213012695

> <CNN_VS>
4.0439224243

$$$$
HIPS6826


 27 29  0  0  0  0  0  0  0  0999 V2000
   68.2810   80.0206   89.8498 N   0  0  0  0  0  0  0  0  0  0  0  0
   67.3976   79.6241   89.6718 H   0  0  0  0  0  0  0  0  0  0  0  0
   70.1373   77.1280   91.4178 C   0  0  0  0  0  0  0  0  0  0  0  0
   69.0877   77.9652   90.9998 C   0  0  0  0  0  0  0  0  0  0  0  0
   69.3423   79.1401   90.2691 C   0  0  0  0  0  0  0  0  0  0  0  0
   70.6656   79.4636   89.9455 C   0  0  0  0  0  0  0  0  0  0  0  0
   71.7148   78.6318   90.3366 C   0  0  0  0  0  0  0  0  0  0  0  0
   71.4662   77.4569   91.0529 C   0  0  0  0  0  0  0  0  0  0  0  0
   72.5551   76.6336   91.3483 O   0  0  0  0  0  0  0  0  0  0  0  0
   73.4188   76.8881   91.0890 H   0  0  0  0  0  0  0  0  0  0  0  0
   68.8180   75.9720   93.0321 O   0  0  0  0  0  0  0  0  0  0  0  0
   69.8043   75.9498   92.2485 C   0  0  0  0  0  0  0  0  0  0  0  0
   70.5491   74.7802   92.1215 O   0  0  0  0  0  0  0  0  0  0  0  0
   71.2844   74.7536   91.5413 H   0  0  0  0  0  0  0  0  0  0  0  0
   68.4306   81.4666   89.6713 C   0  0  0  0  0  0  0  0  0  0  0  0
   68.5475   82.1648   91.0117 C   0  0  0  0  0  0  0  0  0  0  0  0
   67.5414   81.9417   91.9705 C   0  0  0  0  0  0  0  0  0  0  0  0
   67.5718   82.5952   93.2031 C   0  0  0  0  0  0  0  0  0  0  0  0
   68.6103   83.4744   93.5025 C   0  0  0  0  0  0  0  0  0  0  0  0
   69.6321   83.6902   92.5774 C   0  0  0  0  0  0  0  0  0  0  0  0
   69.6268   83.0308   91.3359 C   0  0  0  0  0  0  0  0  0  0  0  0
   70.7648   83.2619   90.4184 C   0  0  0  0  0  0  0  0  0  0  0  0
   71.9965   82.6216   90.6352 C   0  0  0  0  0  0  0  0  0  0  0  0
   73.0718   82.8541   89.7723 C   0  0  0  0  0  0  0  0  0  0  0  0
   72.9287   83.7341   88.6958 C   0  0  0  0  0  0  0  0  0  0  0  0
   71.7116   84.3875   88.4838 C   0  0  0  0  0  0  0  0  0  0  0  0
   70.6345   84.1590   89.3452 C   0  0  0  0  0  0  0  0  0  0  0  0
 11 12  2  0  0  0
 12 13  1  0  0  0
 12  3  1  0  0  0
  3  4  2  0  0  0
  4  5  1  0  0  0
  5  1  1  0  0  0
  1 15  1  0  0  0
 15 16  1  0  0  0
 16 17  2  0  0  0
 17 18  1  0  0  0
 18 19  2  0  0  0
 19 20  1  0  0  0
 20 21  2  0  0  0
 21 22  1  0  0  0
 22 23  2  0  0  0
 23 24  1  0  0  0
 24 25  2  0  0  0
 25 26  1  0  0  0
 26 27  2  0  0  0
  5  6  2  0  0  0
  6  7  1  0  0  0
  7  8  2  0  0  0
  8  9  1  0  0  0
  8  3  1  0  0  0
 21 16  1  0  0  0
 27 22  1  0  0  0
 13 14  1  0  0  0
  1  2  1  0  0  0
  9 10  1  0  0  0
M  END
> <score>
0.307615

> <minimizedAffinity>
-7.68844

> <CNNscore>
0.7186807990

> <CNNaffinity>
5.5155096054

> <CNN_VS>
3.9638907909

$$$$
HIPS6826


 27 29  0  0  0  0  0  0  0  0999 V2000
   67.7189   80.0830   89.4634 N   0  0  0  0  0  0  0  0  0  0  0  0
   66.7853   80.3046   89.2431 H   0  0  0  0  0  0  0  0  0  0  0  0
   69.4649   76.9988   90.7714 C   0  0  0  0  0  0  0  0  0  0  0  0
   69.1621   78.3476   90.5138 C   0  0  0  0  0  0  0  0  0  0  0  0
   68.0337   78.7069   89.7546 C   0  0  0  0  0  0  0  0  0  0  0  0
   67.1968   77.6969   89.2646 C   0  0  0  0  0  0  0  0  0  0  0  0
   67.4742   76.3558   89.5294 C   0  0  0  0  0  0  0  0  0  0  0  0
   68.5881   75.9938   90.2934 C   0  0  0  0  0  0  0  0  0  0  0  0
   68.7653   74.6388   90.5820 O   0  0  0  0  0  0  0  0  0  0  0  0
   68.1620   74.0055   90.2460 H   0  0  0  0  0  0  0  0  0  0  0  0
   70.7405   75.7550   92.3554 O   0  0  0  0  0  0  0  0  0  0  0  0
   70.7085   76.6895   91.5109 C   0  0  0  0  0  0  0  0  0  0  0  0
   71.8751   77.3959   91.2298 O   0  0  0  0  0  0  0  0  0  0  0  0
   71.8616   78.0925   90.6034 H   0  0  0  0  0  0  0  0  0  0  0  0
   68.6969   81.1732   89.4739 C   0  0  0  0  0  0  0  0  0  0  0  0
   68.6524   81.9231   90.7906 C   0  0  0  0  0  0  0  0  0  0  0  0
   67.6049   81.6374   91.6864 C   0  0  0  0  0  0  0  0  0  0  0  0
   67.4862   82.3311   92.8913 C   0  0  0  0  0  0  0  0  0  0  0  0
   68.4151   83.3140   93.2261 C   0  0  0  0  0  0  0  0  0  0  0  0
   69.4765   83.5951   92.3653 C   0  0  0  0  0  0  0  0  0  0  0  0
   69.6212   82.8976   91.1534 C   0  0  0  0  0  0  0  0  0  0  0  0
   70.7959   83.2050   90.3075 C   0  0  0  0  0  0  0  0  0  0  0  0
   72.0318   82.5824   90.5506 C   0  0  0  0  0  0  0  0  0  0  0  0
   73.1413   82.8869   89.7561 C   0  0  0  0  0  0  0  0  0  0  0  0
   73.0280   83.8213   88.7228 C   0  0  0  0  0  0  0  0  0  0  0  0
   71.8061   84.4572   88.4859 C   0  0  0  0  0  0  0  0  0  0  0  0
   70.6948   84.1568   89.2791 C   0  0  0  0  0  0  0  0  0  0  0  0
 11 12  2  0  0  0
 12 13  1  0  0  0
 12  3  1  0  0  0
  3  4  2  0  0  0
  4  5  1  0  0  0
  5  1  1  0  0  0
  1 15  1  0  0  0
 15 16  1  0  0  0
 16 17  2  0  0  0
 17 18  1  0  0  0
 18 19  2  0  0  0
 19 20  1  0  0  0
 20 21  2  0  0  0
 21 22  1  0  0  0
 22 23  2  0  0  0
 23 24  1  0  0  0
 24 25  2  0  0  0
 25 26  1  0  0  0
 26 27  2  0  0  0
  5  6  2  0  0  0
  6  7  1  0  0  0
  7  8  2  0  0  0
  8  9  1  0  0  0
  8  3  1  0  0  0
 21 16  1  0  0  0
 27 22  1  0  0  0
 13 14  1  0  0  0
  1  2  1  0  0  0
  9 10  1  0  0  0
M  END
> <score>
0.307615

> <minimizedAffinity>
-7.43309

> <CNNscore>
0.6361567974

> <CNNaffinity>
5.4157752991

> <CNN_VS>
3.4452822208

$$$$
HIPS6838


 21 22  0  0  0  0  0  0  0  0999 V2000
   69.3689   73.0325   91.6535 C   0  0  0  0  0  0  0  0  0  0  0  0
   68.4795   72.3813   90.7752 C   0  0  0  0  0  0  0  0  0  0  0  0
   67.7169   73.1119   89.8440 C   0  0  0  0  0  0  0  0  0  0  0  0
   67.8554   74.5001   89.7891 C   0  0  0  0  0  0  0  0  0  0  0  0
   68.7323   75.1592   90.6498 C   0  0  0  0  0  0  0  0  0  0  0  0
   69.4898   74.4390   91.5832 C   0  0  0  0  0  0  0  0  0  0  0  0
   70.3552   75.1258   92.4346 O   0  0  0  0  0  0  0  0  0  0  0  0
   70.4261   76.0584   92.3778 H   0  0  0  0  0  0  0  0  0  0  0  0
   70.7516   72.7987   93.5826 O   0  0  0  0  0  0  0  0  0  0  0  0
   70.1543   72.2304   92.6283 C   0  0  0  0  0  0  0  0  0  0  0  0
   70.2442   70.8463   92.5081 O   0  0  0  0  0  0  0  0  0  0  0  0
   69.8067   70.4076   91.8052 H   0  0  0  0  0  0  0  0  0  0  0  0
   66.8132   72.5018   88.9578 O   0  0  0  0  0  0  0  0  0  0  0  0
   66.5919   72.8960   87.6033 C   0  0  0  0  0  0  0  0  0  0  0  0
   66.8234   71.7427   86.6696 C   0  0  0  0  0  0  0  0  0  0  0  0
   67.7299   70.7262   86.9939 C   0  0  0  0  0  0  0  0  0  0  0  0
   67.9175   69.6860   86.0845 C   0  0  0  0  0  0  0  0  0  0  0  0
   67.2349   69.6797   84.9105 N   0  0  0  0  0  0  0  0  0  0  0  0
   66.3674   70.6791   84.6041 C   0  0  0  0  0  0  0  0  0  0  0  0
   65.4249   70.6474   82.9491 Br  0  0  0  0  0  0  0  0  0  0  0  0
   66.1700   71.7010   85.4771 N   0  0  0  0  0  0  0  0  0  0  0  0
  9 10  2  0  0  0
 10 11  1  0  0  0
 10  1  1  0  0  0
  1  2  2  0  0  0
  2  3  1  0  0  0
  3 13  1  0  0  0
 13 14  1  0  0  0
 14 15  1  0  0  0
 15 16  2  0  0  0
 16 17  1  0  0  0
 17 18  2  0  0  0
 18 19  2  0  0  0
 19 20  1  0  0  0
 19 21  2  0  0  0
  3  4  2  0  0  0
  4  5  1  0  0  0
  5  6  2  0  0  0
  6  7  1  0  0  0
  6  1  1  0  0  0
 21 15  2  0  0  0
 11 12  1  0  0  0
  7  8  1  0  0  0
M  END
> <score>
-0.119735

> <minimizedAffinity>
-7.38665

> <CNNscore>
0.9311462641

> <CNNaffinity>
5.2205467224

> <CNN_VS>
4.8610925674

$$$$
HIPS6838


 21 22  0  0  0  0  0  0  0  0999 V2000
   68.7219   73.8808   91.8752 C   0  0  0  0  0  0  0  0  0  0  0  0
   68.1414   72.9310   91.0107 C   0  0  0  0  0  0  0  0  0  0  0  0
   67.5876   73.3192   89.7757 C   0  0  0  0  0  0  0  0  0  0  0  0
   67.6255   74.6646   89.4046 C   0  0  0  0  0  0  0  0  0  0  0  0
   68.1978   75.6163   90.2477 C   0  0  0  0  0  0  0  0  0  0  0  0
   68.7453   75.2379   91.4809 C   0  0  0  0  0  0  0  0  0  0  0  0
   69.3067   76.2126   92.3057 O   0  0  0  0  0  0  0  0  0  0  0  0
   69.3159   77.1089   92.0325 H   0  0  0  0  0  0  0  0  0  0  0  0
   70.3910   73.9052   93.5785 O   0  0  0  0  0  0  0  0  0  0  0  0
   69.2921   73.4366   93.1744 C   0  0  0  0  0  0  0  0  0  0  0  0
   68.6285   72.5022   93.9649 O   0  0  0  0  0  0  0  0  0  0  0  0
   67.8110   72.1437   93.6801 H   0  0  0  0  0  0  0  0  0  0  0  0
   66.9922   72.4052   88.8900 O   0  0  0  0  0  0  0  0  0  0  0  0
   66.5152   72.7160   87.5805 C   0  0  0  0  0  0  0  0  0  0  0  0
   66.9888   71.6948   86.5862 C   0  0  0  0  0  0  0  0  0  0  0  0
   66.5851   71.7546   85.2470 C   0  0  0  0  0  0  0  0  0  0  0  0
   67.0429   70.7728   84.3690 C   0  0  0  0  0  0  0  0  0  0  0  0
   67.8541   69.7823   84.8218 N   0  0  0  0  0  0  0  0  0  0  0  0
   68.2280   69.7304   86.1267 C   0  0  0  0  0  0  0  0  0  0  0  0
   69.3643   68.3285   86.7363 Br  0  0  0  0  0  0  0  0  0  0  0  0
   67.7935   70.6780   86.9977 N   0  0  0  0  0  0  0  0  0  0  0  0
  9 10  2  0  0  0
 10 11  1  0  0  0
 10  1  1  0  0  0
  1  2  2  0  0  0
  2  3  1  0  0  0
  3 13  1  0  0  0
 13 14  1  0  0  0
 14 15  1  0  0  0
 15 16  2  0  0  0
 16 17  1  0  0  0
 17 18  2  0  0  0
 18 19  2  0  0  0
 19 20  1  0  0  0
 19 21  2  0  0  0
  3  4  2  0  0  0
  4  5  1  0  0  0
  5  6  2  0  0  0
  6  7  1  0  0  0
  6  1  1  0  0  0
 21 15  2  0  0  0
 11 12  1  0  0  0
  7  8  1  0  0  0
M  END
> <score>
-0.119735

> <minimizedAffinity>
-6.67119

> <CNNscore>
0.8431177139

> <CNNaffinity>
5.0309200287

> <CNN_VS>
4.2416577339

$$$$
HIPS6838


 21 22  0  0  0  0  0  0  0  0999 V2000
   68.1663   74.3684   94.6716 C   0  0  0  0  0  0  0  0  0  0  0  0
   68.1157   75.4076   93.7208 C   0  0  0  0  0  0  0  0  0  0  0  0
   66.9546   76.1884   93.5629 C   0  0  0  0  0  0  0  0  0  0  0  0
   65.8445   75.9299   94.3692 C   0  0  0  0  0  0  0  0  0  0  0  0
   65.8792   74.9067   95.3157 C   0  0  0  0  0  0  0  0  0  0  0  0
   67.0292   74.1218   95.4741 C   0  0  0  0  0  0  0  0  0  0  0  0
   67.0331   73.1020   96.4256 O   0  0  0  0  0  0  0  0  0  0  0  0
   66.2727   72.9488   96.9513 H   0  0  0  0  0  0  0  0  0  0  0  0
   70.2988   73.6122   93.9178 O   0  0  0  0  0  0  0  0  0  0  0  0
   69.4066   73.5599   94.8075 C   0  0  0  0  0  0  0  0  0  0  0  0
   69.6062   72.7361   95.9119 O   0  0  0  0  0  0  0  0  0  0  0  0
   68.9537   72.6851   96.5825 H   0  0  0  0  0  0  0  0  0  0  0  0
   66.8607   77.2270   92.6211 O   0  0  0  0  0  0  0  0  0  0  0  0
   67.1313   77.1019   91.2247 C   0  0  0  0  0  0  0  0  0  0  0  0
   68.3294   77.9219   90.8401 C   0  0  0  0  0  0  0  0  0  0  0  0
   68.1802   79.2187   90.3340 C   0  0  0  0  0  0  0  0  0  0  0  0
   69.3253   79.9309   89.9790 C   0  0  0  0  0  0  0  0  0  0  0  0
   70.5498   79.3603   90.1186 N   0  0  0  0  0  0  0  0  0  0  0  0
   70.6783   78.0966   90.5999 C   0  0  0  0  0  0  0  0  0  0  0  0
   72.4075   77.3190   90.7830 Br  0  0  0  0  0  0  0  0  0  0  0  0
   69.5750   77.3866   90.9523 N   0  0  0  0  0  0  0  0  0  0  0  0
  9 10  2  0  0  0
 10 11  1  0  0  0
 10  1  1  0  0  0
  1  2  2  0  0  0
  2  3  1  0  0  0
  3 13  1  0  0  0
 13 14  1  0  0  0
 14 15  1  0  0  0
 15 16  2  0  0  0
 16 17  1  0  0  0
 17 18  2  0  0  0
 18 19  2  0  0  0
 19 20  1  0  0  0
 19 21  2  0  0  0
  3  4  2  0  0  0
  4  5  1  0  0  0
  5  6  2  0  0  0
  6  7  1  0  0  0
  6  1  1  0  0  0
 21 15  2  0  0  0
 11 12  1  0  0  0
  7  8  1  0  0  0
M  END
> <score>
-0.119735

> <minimizedAffinity>
-6.34389

> <CNNscore>
0.8376997709

> <CNNaffinity>
5.1462144852

> <CNN_VS>
4.3109827042

$$$$
HIPS6839


 20 21  0  0  0  0  0  0  0  0999 V2000
   69.0569   74.4496   91.1325 C   0  0  0  0  0  0  0  0  0  0  0  0
   68.3596   75.4408   90.4181 C   0  0  0  0  0  0  0  0  0  0  0  0
   67.4048   75.0938   89.4440 C   0  0  0  0  0  0  0  0  0  0  0  0
   67.1447   73.7446   89.1964 C   0  0  0  0  0  0  0  0  0  0  0  0
   67.8401   72.7507   89.8849 C   0  0  0  0  0  0  0  0  0  0  0  0
   68.8111   73.0858   90.8342 C   0  0  0  0  0  0  0  0  0  0  0  0
   69.5261   72.0428   91.4272 O   0  0  0  0  0  0  0  0  0  0  0  0
   69.3319   71.1542   91.2019 H   0  0  0  0  0  0  0  0  0  0  0  0
   70.7406   75.8848   92.0219 O   0  0  0  0  0  0  0  0  0  0  0  0
   69.9988   74.8801   92.1894 C   0  0  0  0  0  0  0  0  0  0  0  0
   70.1142   74.1343   93.3597 O   0  0  0  0  0  0  0  0  0  0  0  0
   69.5673   73.3854   93.4938 H   0  0  0  0  0  0  0  0  0  0  0  0
   66.6906   76.0525   88.7062 O   0  0  0  0  0  0  0  0  0  0  0  0
   67.2609   76.9665   87.7690 C   0  0  0  0  0  0  0  0  0  0  0  0
   67.0224   78.3855   88.1964 C   0  0  0  0  0  0  0  0  0  0  0  0
   66.3498   78.7278   89.3666 C   0  0  0  0  0  0  0  0  0  0  0  0
   66.2857   80.4056   89.4636 S   0  0  0  0  0  0  0  0  0  0  0  0
   67.0970   80.7042   88.0240 C   0  0  0  0  0  0  0  0  0  0  0  0
   67.4832   82.4322   87.3186 Br  0  0  0  0  0  0  0  0  0  0  0  0
   67.4335   79.4934   87.4398 C   0  0  0  0  0  0  0  0  0  0  0  0
  9 10  2  0  0  0
 10 11  1  0  0  0
 10  1  1  0  0  0
  1  2  2  0  0  0
  2  3  1  0  0  0
  3 13  1  0  0  0
 13 14  1  0  0  0
 14 15  1  0  0  0
 15 16  2  0  0  0
 16 17  1  0  0  0
 17 18  1  0  0  0
 18 19  1  0  0  0
 18 20  2  0  0  0
  3  4  2  0  0  0
  4  5  1  0  0  0
  5  6  2  0  0  0
  6  7  1  0  0  0
  6  1  1  0  0  0
 20 15  1  0  0  0
 11 12  1  0  0  0
  7  8  1  0  0  0
M  END
> <score>
0.380265

> <minimizedAffinity>
-6.03939

> <CNNscore>
0.8419578671

> <CNNaffinity>
5.0280094147

> <CNN_VS>
4.2333722115

$$$$
HIPS6839


 20 21  0  0  0  0  0  0  0  0999 V2000
   68.1216   74.1126   94.6720 C   0  0  0  0  0  0  0  0  0  0  0  0
   68.0479   75.0464   93.6224 C   0  0  0  0  0  0  0  0  0  0  0  0
   66.9003   75.8408   93.4402 C   0  0  0  0  0  0  0  0  0  0  0  0
   65.8286   75.7009   94.3240 C   0  0  0  0  0  0  0  0  0  0  0  0
   65.8806   74.7674   95.3591 C   0  0  0  0  0  0  0  0  0  0  0  0
   67.0051   73.9536   95.5307 C   0  0  0  0  0  0  0  0  0  0  0  0
   66.9580   72.9853   96.5361 O   0  0  0  0  0  0  0  0  0  0  0  0
   66.2001   72.9137   97.0824 H   0  0  0  0  0  0  0  0  0  0  0  0
   69.5859   72.6800   95.8925 O   0  0  0  0  0  0  0  0  0  0  0  0
   69.3811   73.3562   94.8491 C   0  0  0  0  0  0  0  0  0  0  0  0
   70.3797   73.4381   93.8822 O   0  0  0  0  0  0  0  0  0  0  0  0
   70.2373   73.9384   93.1028 H   0  0  0  0  0  0  0  0  0  0  0  0
   66.7854   76.7811   92.4029 O   0  0  0  0  0  0  0  0  0  0  0  0
   67.6318   77.9165   92.2196 C   0  0  0  0  0  0  0  0  0  0  0  0
   66.9410   78.9692   91.4023 C   0  0  0  0  0  0  0  0  0  0  0  0
   65.9522   79.8058   91.9129 C   0  0  0  0  0  0  0  0  0  0  0  0
   65.4339   80.8214   90.6767 S   0  0  0  0  0  0  0  0  0  0  0  0
   66.4484   80.2007   89.4912 C   0  0  0  0  0  0  0  0  0  0  0  0
   66.5240   80.8029   87.6845 Br  0  0  0  0  0  0  0  0  0  0  0  0
   67.2129   79.1848   90.0427 C   0  0  0  0  0  0  0  0  0  0  0  0
  9 10  2  0  0  0
 10 11  1  0  0  0
 10  1  1  0  0  0
  1  2  2  0  0  0
  2  3  1  0  0  0
  3 13  1  0  0  0
 13 14  1  0  0  0
 14 15  1  0  0  0
 15 16  2  0  0  0
 16 17  1  0  0  0
 17 18  1  0  0  0
 18 19  1  0  0  0
 18 20  2  0  0  0
  3  4  2  0  0  0
  4  5  1  0  0  0
  5  6  2  0  0  0
  6  7  1  0  0  0
  6  1  1  0  0  0
 20 15  1  0  0  0
 11 12  1  0  0  0
  7  8  1  0  0  0
M  END
> <score>
0.380265

> <minimizedAffinity>
-6.10990

> <CNNscore>
0.8403187394

> <CNNaffinity>
5.0418491364

> <CNN_VS>
4.2367601395

$$$$
HIPS6839


 20 21  0  0  0  0  0  0  0  0999 V2000
   68.1316   74.2129   94.6162 C   0  0  0  0  0  0  0  0  0  0  0  0
   67.9990   75.1387   93.5653 C   0  0  0  0  0  0  0  0  0  0  0  0
   66.8670   75.9699   93.4721 C   0  0  0  0  0  0  0  0  0  0  0  0
   65.8711   75.8751   94.4459 C   0  0  0  0  0  0  0  0  0  0  0  0
   65.9808   74.9502   95.4843 C   0  0  0  0  0  0  0  0  0  0  0  0
   67.0883   74.1003   95.5691 C   0  0  0  0  0  0  0  0  0  0  0  0
   67.0957   73.1436   96.5868 O   0  0  0  0  0  0  0  0  0  0  0  0
   66.3856   73.1031   97.1968 H   0  0  0  0  0  0  0  0  0  0  0  0
   69.6170   72.6935   95.6983 O   0  0  0  0  0  0  0  0  0  0  0  0
   69.3758   73.4157   94.6943 C   0  0  0  0  0  0  0  0  0  0  0  0
   70.3224   73.5083   93.6772 O   0  0  0  0  0  0  0  0  0  0  0  0
   70.1527   74.0426   92.9265 H   0  0  0  0  0  0  0  0  0  0  0  0
   66.6946   76.9038   92.4369 O   0  0  0  0  0  0  0  0  0  0  0  0
   67.0933   76.7145   91.0788 C   0  0  0  0  0  0  0  0  0  0  0  0
   68.3469   77.4841   90.7798 C   0  0  0  0  0  0  0  0  0  0  0  0
   68.3454   78.8046   90.3383 C   0  0  0  0  0  0  0  0  0  0  0  0
   69.9412   79.2834   90.1091 S   0  0  0  0  0  0  0  0  0  0  0  0
   70.6376   77.8222   90.5562 C   0  0  0  0  0  0  0  0  0  0  0  0
   72.5088   77.4611   90.5874 Br  0  0  0  0  0  0  0  0  0  0  0  0
   69.6314   76.9310   90.8936 C   0  0  0  0  0  0  0  0  0  0  0  0
  9 10  2  0  0  0
 10 11  1  0  0  0
 10  1  1  0  0  0
  1  2  2  0  0  0
  2  3  1  0  0  0
  3 13  1  0  0  0
 13 14  1  0  0  0
 14 15  1  0  0  0
 15 16  2  0  0  0
 16 17  1  0  0  0
 17 18  1  0  0  0
 18 19  1  0  0  0
 18 20  2  0  0  0
  3  4  2  0  0  0
  4  5  1  0  0  0
  5  6  2  0  0  0
  6  7  1  0  0  0
  6  1  1  0  0  0
 20 15  1  0  0  0
 11 12  1  0  0  0
  7  8  1  0  0  0
M  END
> <score>
0.380265

> <minimizedAffinity>
-6.19326

> <CNNscore>
0.8380103707

> <CNNaffinity>
5.0876102448

> <CNN_VS>
4.2634701729

$$$$
HIPS6840


 34 36  0  0  0  0  0  0  0  0999 V2000
   69.9055   79.7606   90.1964 C   0  0  0  0  0  0  0  0  0  0  0  0
   68.6532   79.3922   90.5469 N   0  0  0  0  0  0  0  0  0  0  0  0
   68.5758   78.0710   90.8773 C   0  0  0  0  0  0  0  0  0  0  0  0
   69.7750   77.3646   90.8009 C   0  0  0  0  0  0  0  0  0  0  0  0
   70.9608   78.4415   90.2907 S   0  0  0  0  0  0  0  0  0  0  0  0
   69.7220   83.1901   88.5712 C   0  0  0  0  0  0  0  0  0  0  0  0
   70.9333   83.7579   88.9927 C   0  0  0  0  0  0  0  0  0  0  0  0
   71.8076   83.0232   89.7981 C   0  0  0  0  0  0  0  0  0  0  0  0
   71.4756   81.7209   90.1878 C   0  0  0  0  0  0  0  0  0  0  0  0
   70.2617   81.1362   89.7696 C   0  0  0  0  0  0  0  0  0  0  0  0
   69.3915   81.8837   88.9554 C   0  0  0  0  0  0  0  0  0  0  0  0
   68.5798   84.1140   87.6004 S   0  0  0  0  0  0  0  0  0  0  0  0
   67.5294   83.1772   87.0713 O   0  0  0  0  0  0  0  0  0  0  0  0
   69.2755   84.7744   86.4388 O   0  0  0  0  0  0  0  0  0  0  0  0
   67.8365   85.2891   88.5709 O   0  0  0  0  0  0  0  0  0  0  0  0
   67.3790   84.6806   89.7611 C   0  0  0  0  0  0  0  0  0  0  0  0
   66.7736   86.0287   91.8087 C   0  0  0  0  0  0  0  0  0  0  0  0
   67.9425   85.4241   90.9981 C   0  0  0  0  0  0  0  0  0  0  0  0
   68.8802   86.5667   90.5392 C   0  0  0  0  0  0  0  0  0  0  0  0
   68.7188   84.4428   91.8981 C   0  0  0  0  0  0  0  0  0  0  0  0
   67.2803   77.4301   91.2676 C   0  0  0  0  0  0  0  0  0  0  0  0
   67.1040   77.4738   92.6833 O   0  0  0  0  0  0  0  0  0  0  0  0
   67.0894   76.3576   93.5377 C   0  0  0  0  0  0  0  0  0  0  0  0
   65.9067   76.0656   94.2211 C   0  0  0  0  0  0  0  0  0  0  0  0
   65.8382   74.9803   95.0952 C   0  0  0  0  0  0  0  0  0  0  0  0
   66.9543   74.1675   95.3095 C   0  0  0  0  0  0  0  0  0  0  0  0
   66.8388   73.1449   96.2554 O   0  0  0  0  0  0  0  0  0  0  0  0
   68.1550   74.4255   94.5980 C   0  0  0  0  0  0  0  0  0  0  0  0
   68.2102   75.5279   93.7251 C   0  0  0  0  0  0  0  0  0  0  0  0
   66.0264   73.0096   96.7023 H   0  0  0  0  0  0  0  0  0  0  0  0
   69.3555   73.5720   94.7183 C   0  0  0  0  0  0  0  0  0  0  0  0
   70.2610   73.6071   93.8439 O   0  0  0  0  0  0  0  0  0  0  0  0
   69.5183   72.7627   95.8409 O   0  0  0  0  0  0  0  0  0  0  0  0
   68.8495   72.7307   96.4963 H   0  0  0  0  0  0  0  0  0  0  0  0
 17 18  1  0  0  0
 18 19  1  0  0  0
 18 20  1  0  0  0
 18 16  1  0  0  0
 16 15  1  0  0  0
 15 12  1  0  0  0
 12 13  2  0  0  0
 12 14  2  0  0  0
 12  6  1  0  0  0
  6  7  2  0  0  0
  7  8  1  0  0  0
  8  9  2  0  0  0
  9 10  1  0  0  0
 10  1  1  0  0  0
  1  2  2  0  0  0
  2  3  2  0  0  0
  3 21  1  0  0  0
 21 22  1  0  0  0
 22 23  1  0  0  0
 23 24  2  0  0  0
 24 25  1  0  0  0
 25 26  2  0  0  0
 26 27  1  0  0  0
 26 28  1  0  0  0
 28 31  1  0  0  0
 31 32  2  0  0  0
 31 33  1  0  0  0
 28 29  2  0  0  0
  3  4  2  0  0  0
  4  5  1  0  0  0
 10 11  2  0  0  0
 11  6  1  0  0  0
  5  1  1  0  0  0
 29 23  1  0  0  0
 27 30  1  0  0  0
 33 34  1  0  0  0
M  END
> <score>
0.635253

> <minimizedAffinity>
-7.92653

> <CNNscore>
0.5630125403

> <CNNaffinity>
6.4790468216

> <CNN_VS>
3.6477847099

$$$$
HIPS6840


 34 36  0  0  0  0  0  0  0  0999 V2000
   67.5107   76.9328   88.9559 C   0  0  0  0  0  0  0  0  0  0  0  0
   67.5564   78.0467   89.7200 N   0  0  0  0  0  0  0  0  0  0  0  0
   67.3515   79.1822   88.9924 C   0  0  0  0  0  0  0  0  0  0  0  0
   67.1312   78.9873   87.6299 C   0  0  0  0  0  0  0  0  0  0  0  0
   67.2094   77.3332   87.3400 S   0  0  0  0  0  0  0  0  0  0  0  0
   68.7096   74.0687   91.1460 C   0  0  0  0  0  0  0  0  0  0  0  0
   68.0977   72.9720   90.5215 C   0  0  0  0  0  0  0  0  0  0  0  0
   67.3030   73.1657   89.3885 C   0  0  0  0  0  0  0  0  0  0  0  0
   67.1139   74.4541   88.8762 C   0  0  0  0  0  0  0  0  0  0  0  0
   67.7248   75.5662   89.4927 C   0  0  0  0  0  0  0  0  0  0  0  0
   68.5262   75.3585   90.6299 C   0  0  0  0  0  0  0  0  0  0  0  0
   69.6719   73.8571   92.6054 S   0  0  0  0  0  0  0  0  0  0  0  0
   70.3302   75.1664   92.9421 O   0  0  0  0  0  0  0  0  0  0  0  0
   70.7379   72.8133   92.3974 O   0  0  0  0  0  0  0  0  0  0  0  0
   68.6596   73.4000   93.8866 O   0  0  0  0  0  0  0  0  0  0  0  0
   68.3497   74.5421   94.6582 C   0  0  0  0  0  0  0  0  0  0  0  0
   66.2734   75.0124   96.0163 C   0  0  0  0  0  0  0  0  0  0  0  0
   66.8325   74.8471   94.5849 C   0  0  0  0  0  0  0  0  0  0  0  0
   66.0967   73.6762   93.8898 C   0  0  0  0  0  0  0  0  0  0  0  0
   66.5915   76.1524   93.8013 C   0  0  0  0  0  0  0  0  0  0  0  0
   67.3898   80.5401   89.6218 C   0  0  0  0  0  0  0  0  0  0  0  0
   68.6947   81.1080   89.5134 O   0  0  0  0  0  0  0  0  0  0  0  0
   69.0442   82.1976   88.6969 C   0  0  0  0  0  0  0  0  0  0  0  0
   68.1039   82.6567   87.7716 C   0  0  0  0  0  0  0  0  0  0  0  0
   68.4012   83.7237   86.9233 C   0  0  0  0  0  0  0  0  0  0  0  0
   69.6488   84.3503   86.9781 C   0  0  0  0  0  0  0  0  0  0  0  0
   69.9071   85.3615   86.0482 O   0  0  0  0  0  0  0  0  0  0  0  0
   70.6054   83.9226   87.9354 C   0  0  0  0  0  0  0  0  0  0  0  0
   70.2929   82.8406   88.7792 C   0  0  0  0  0  0  0  0  0  0  0  0
   69.2461   85.6127   85.4335 H   0  0  0  0  0  0  0  0  0  0  0  0
   71.9196   84.5780   88.1013 C   0  0  0  0  0  0  0  0  0  0  0  0
   72.9153   83.9284   88.5164 O   0  0  0  0  0  0  0  0  0  0  0  0
   72.0761   85.9141   87.7383 O   0  0  0  0  0  0  0  0  0  0  0  0
   71.3405   86.4047   87.4285 H   0  0  0  0  0  0  0  0  0  0  0  0
 17 18  1  0  0  0
 18 19  1  0  0  0
 18 20  1  0  0  0
 18 16  1  0  0  0
 16 15  1  0  0  0
 15 12  1  0  0  0
 12 13  2  0  0  0
 12 14  2  0  0  0
 12  6  1  0  0  0
  6  7  2  0  0  0
  7  8  1  0  0  0
  8  9  2  0  0  0
  9 10  1  0  0  0
 10  1  1  0  0  0
  1  2  2  0  0  0
  2  3  2  0  0  0
  3 21  1  0  0  0
 21 22  1  0  0  0
 22 23  1  0  0  0
 23 24  2  0  0  0
 24 25  1  0  0  0
 25 26  2  0  0  0
 26 27  1  0  0  0
 26 28  1  0  0  0
 28 31  1  0  0  0
 31 32  2  0  0  0
 31 33  1  0  0  0
 28 29  2  0  0  0
  3  4  2  0  0  0
  4  5  1  0  0  0
 10 11  2  0  0  0
 11  6  1  0  0  0
  5  1  1  0  0  0
 29 23  1  0  0  0
 27 30  1  0  0  0
 33 34  1  0  0  0
M  END
> <score>
0.635253

> <minimizedAffinity>
-8.61320

> <CNNscore>
0.4403972030

> <CNNaffinity>
6.5928287506

> <CNN_VS>
2.9034633636

$$$$
HIPS6840


 34 36  0  0  0  0  0  0  0  0999 V2000
   68.3532   79.2003   89.3347 C   0  0  0  0  0  0  0  0  0  0  0  0
   68.5350   80.5238   89.1289 N   0  0  0  0  0  0  0  0  0  0  0  0
   67.5325   81.0745   88.3857 C   0  0  0  0  0  0  0  0  0  0  0  0
   66.5271   80.1932   87.9919 C   0  0  0  0  0  0  0  0  0  0  0  0
   66.9263   78.6747   88.5928 S   0  0  0  0  0  0  0  0  0  0  0  0
   69.7950   76.3461   91.3869 C   0  0  0  0  0  0  0  0  0  0  0  0
   71.1369   76.7389   91.4968 C   0  0  0  0  0  0  0  0  0  0  0  0
   71.5674   77.9315   90.9095 C   0  0  0  0  0  0  0  0  0  0  0  0
   70.6614   78.7351   90.2082 C   0  0  0  0  0  0  0  0  0  0  0  0
   69.3083   78.3537   90.0912 C   0  0  0  0  0  0  0  0  0  0  0  0
   68.8855   77.1533   90.6905 C   0  0  0  0  0  0  0  0  0  0  0  0
   69.2397   74.8223   92.0725 S   0  0  0  0  0  0  0  0  0  0  0  0
   70.2122   74.3893   93.1345 O   0  0  0  0  0  0  0  0  0  0  0  0
   69.1653   73.7539   91.0131 O   0  0  0  0  0  0  0  0  0  0  0  0
   67.7129   75.0439   92.7760 O   0  0  0  0  0  0  0  0  0  0  0  0
   67.8688   75.2129   94.1699 C   0  0  0  0  0  0  0  0  0  0  0  0
   65.7001   75.7087   95.3649 C   0  0  0  0  0  0  0  0  0  0  0  0
   66.6698   74.5878   94.9264 C   0  0  0  0  0  0  0  0  0  0  0  0
   67.1768   73.8411   96.1838 C   0  0  0  0  0  0  0  0  0  0  0  0
   65.9159   73.6072   94.0068 C   0  0  0  0  0  0  0  0  0  0  0  0
   67.5377   82.5222   88.0037 C   0  0  0  0  0  0  0  0  0  0  0  0
   68.2893   83.2879   88.9449 O   0  0  0  0  0  0  0  0  0  0  0  0
   69.3407   84.1654   88.6275 C   0  0  0  0  0  0  0  0  0  0  0  0
   70.4210   83.6635   87.8979 C   0  0  0  0  0  0  0  0  0  0  0  0
   71.5007   84.4835   87.5686 C   0  0  0  0  0  0  0  0  0  0  0  0
   71.5256   85.8221   87.9681 C   0  0  0  0  0  0  0  0  0  0  0  0
   72.6715   86.5655   87.6709 O   0  0  0  0  0  0  0  0  0  0  0  0
   70.4218   86.3610   88.6791 C   0  0  0  0  0  0  0  0  0  0  0  0
   69.3435   85.5194   89.0096 C   0  0  0  0  0  0  0  0  0  0  0  0
   73.3774   86.1695   87.1988 H   0  0  0  0  0  0  0  0  0  0  0  0
   70.3430   87.7823   89.0766 C   0  0  0  0  0  0  0  0  0  0  0  0
   69.4232   88.1890   89.8345 O   0  0  0  0  0  0  0  0  0  0  0  0
   71.3300   88.6725   88.6586 O   0  0  0  0  0  0  0  0  0  0  0  0
   72.0180   88.3782   88.0947 H   0  0  0  0  0  0  0  0  0  0  0  0
 17 18  1  0  0  0
 18 19  1  0  0  0
 18 20  1  0  0  0
 18 16  1  0  0  0
 16 15  1  0  0  0
 15 12  1  0  0  0
 12 13  2  0  0  0
 12 14  2  0  0  0
 12  6  1  0  0  0
  6  7  2  0  0  0
  7  8  1  0  0  0
  8  9  2  0  0  0
  9 10  1  0  0  0
 10  1  1  0  0  0
  1  2  2  0  0  0
  2  3  2  0  0  0
  3 21  1  0  0  0
 21 22  1  0  0  0
 22 23  1  0  0  0
 23 24  2  0  0  0
 24 25  1  0  0  0
 25 26  2  0  0  0
 26 27  1  0  0  0
 26 28  1  0  0  0
 28 31  1  0  0  0
 31 32  2  0  0  0
 31 33  1  0  0  0
 28 29  2  0  0  0
  3  4  2  0  0  0
  4  5  1  0  0  0
 10 11  2  0  0  0
 11  6  1  0  0  0
  5  1  1  0  0  0
 29 23  1  0  0  0
 27 30  1  0  0  0
 33 34  1  0  0  0
M  END
> <score>
0.635253

> <minimizedAffinity>
-7.93979

> <CNNscore>
0.4325378835

> <CNNaffinity>
6.3515424728

> <CNN_VS>
2.7472827435

$$$$
HIPS6862


 26 28  0  0  0  0  0  0  0  0999 V2000
   67.8619   78.6405   89.0283 O   0  0  0  0  0  0  0  0  0  0  0  0
   69.8488   76.6156   91.4184 C   0  0  0  0  0  0  0  0  0  0  0  0
   68.8029   77.0711   90.5931 C   0  0  0  0  0  0  0  0  0  0  0  0
   68.9609   78.1998   89.7821 C   0  0  0  0  0  0  0  0  0  0  0  0
   70.2048   78.8503   89.7447 C   0  0  0  0  0  0  0  0  0  0  0  0
   71.2534   78.4065   90.5500 C   0  0  0  0  0  0  0  0  0  0  0  0
   71.0843   77.3027   91.3960 C   0  0  0  0  0  0  0  0  0  0  0  0
   72.1421   76.8981   92.2103 O   0  0  0  0  0  0  0  0  0  0  0  0
   72.9559   77.3619   92.1862 H   0  0  0  0  0  0  0  0  0  0  0  0
   70.4604   74.5108   92.3745 O   0  0  0  0  0  0  0  0  0  0  0  0
   69.6173   75.4449   92.3023 C   0  0  0  0  0  0  0  0  0  0  0  0
   68.4578   75.3680   93.0701 O   0  0  0  0  0  0  0  0  0  0  0  0
   67.8214   76.0544   93.0276 H   0  0  0  0  0  0  0  0  0  0  0  0
   67.1784   79.8801   89.2323 C   0  0  0  0  0  0  0  0  0  0  0  0
   67.6364   80.9274   88.2104 C   0  0  0  0  0  0  0  0  0  0  0  0
   68.2190   82.0662   88.8458 O   0  0  0  0  0  0  0  0  0  0  0  0
   69.0131   83.0426   88.2185 C   0  0  0  0  0  0  0  0  0  0  0  0
   68.5123   83.8526   87.1814 C   0  0  0  0  0  0  0  0  0  0  0  0
   69.3371   84.7816   86.5450 C   0  0  0  0  0  0  0  0  0  0  0  0
   70.6708   84.9196   86.9278 C   0  0  0  0  0  0  0  0  0  0  0  0
   71.1912   84.1324   87.9635 C   0  0  0  0  0  0  0  0  0  0  0  0
   72.5385   84.2541   88.3380 C   0  0  0  0  0  0  0  0  0  0  0  0
   73.0590   83.4557   89.3587 C   0  0  0  0  0  0  0  0  0  0  0  0
   72.2408   82.5366   90.0173 C   0  0  0  0  0  0  0  0  0  0  0  0
   70.8970   82.4068   89.6584 C   0  0  0  0  0  0  0  0  0  0  0  0
   70.3558   83.1967   88.6261 C   0  0  0  0  0  0  0  0  0  0  0  0
 10 11  2  0  0  0
 11 12  1  0  0  0
 11  2  1  0  0  0
  2  3  2  0  0  0
  3  4  1  0  0  0
  4  1  1  0  0  0
  1 14  1  0  0  0
 14 15  1  0  0  0
 15 16  1  0  0  0
 16 17  1  0  0  0
 17 18  2  0  0  0
 18 19  1  0  0  0
 19 20  2  0  0  0
 20 21  1  0  0  0
 21 22  2  0  0  0
 22 23  1  0  0  0
 23 24  2  0  0  0
 24 25  1  0  0  0
 25 26  2  0  0  0
  4  5  2  0  0  0
  5  6  1  0  0  0
  6  7  2  0  0  0
  7  8  1  0  0  0
  7  2  1  0  0  0
 26 17  1  0  0  0
 26 21  1  0  0  0
 12 13  1  0  0  0
  8  9  1  0  0  0
M  END
> <score>
0.461461

> <minimizedAffinity>
-7.85261

> <CNNscore>
0.8906964660

> <CNNaffinity>
5.7372188568

> <CNN_VS>
5.1101207733

$$$$
HIPS6862


 26 28  0  0  0  0  0  0  0  0999 V2000
   67.3729   80.1068   88.6468 O   0  0  0  0  0  0  0  0  0  0  0  0
   67.4699   76.5093   89.5463 C   0  0  0  0  0  0  0  0  0  0  0  0
   67.5462   77.9131   89.6238 C   0  0  0  0  0  0  0  0  0  0  0  0
   67.2180   78.7169   88.5272 C   0  0  0  0  0  0  0  0  0  0  0  0
   66.7443   78.1140   87.3507 C   0  0  0  0  0  0  0  0  0  0  0  0
   66.6551   76.7251   87.2607 C   0  0  0  0  0  0  0  0  0  0  0  0
   67.0248   75.9156   88.3427 C   0  0  0  0  0  0  0  0  0  0  0  0
   66.9509   74.5285   88.2144 O   0  0  0  0  0  0  0  0  0  0  0  0
   66.6543   74.1474   87.4115 H   0  0  0  0  0  0  0  0  0  0  0  0
   67.4108   75.9283   91.8652 O   0  0  0  0  0  0  0  0  0  0  0  0
   67.8797   75.6951   90.7188 C   0  0  0  0  0  0  0  0  0  0  0  0
   68.7915   74.6541   90.5617 O   0  0  0  0  0  0  0  0  0  0  0  0
   69.1491   74.4681   89.7159 H   0  0  0  0  0  0  0  0  0  0  0  0
   66.7932   81.0703   87.7630 C   0  0  0  0  0  0  0  0  0  0  0  0
   67.8738   81.9809   87.1683 C   0  0  0  0  0  0  0  0  0  0  0  0
   68.2581   83.0105   88.0807 O   0  0  0  0  0  0  0  0  0  0  0  0
   69.3511   83.8817   87.9263 C   0  0  0  0  0  0  0  0  0  0  0  0
   69.2736   85.0344   87.1214 C   0  0  0  0  0  0  0  0  0  0  0  0
   70.3888   85.8559   86.9490 C   0  0  0  0  0  0  0  0  0  0  0  0
   71.5971   85.5452   87.5719 C   0  0  0  0  0  0  0  0  0  0  0  0
   71.6979   84.4091   88.3858 C   0  0  0  0  0  0  0  0  0  0  0  0
   72.9178   84.0818   88.9981 C   0  0  0  0  0  0  0  0  0  0  0  0
   73.0201   82.9393   89.7946 C   0  0  0  0  0  0  0  0  0  0  0  0
   71.9080   82.1194   89.9919 C   0  0  0  0  0  0  0  0  0  0  0  0
   70.6861   82.4342   89.3922 C   0  0  0  0  0  0  0  0  0  0  0  0
   70.5652   83.5771   88.5790 C   0  0  0  0  0  0  0  0  0  0  0  0
 10 11  2  0  0  0
 11 12  1  0  0  0
 11  2  1  0  0  0
  2  3  2  0  0  0
  3  4  1  0  0  0
  4  1  1  0  0  0
  1 14  1  0  0  0
 14 15  1  0  0  0
 15 16  1  0  0  0
 16 17  1  0  0  0
 17 18  2  0  0  0
 18 19  1  0  0  0
 19 20  2  0  0  0
 20 21  1  0  0  0
 21 22  2  0  0  0
 22 23  1  0  0  0
 23 24  2  0  0  0
 24 25  1  0  0  0
 25 26  2  0  0  0
  4  5  2  0  0  0
  5  6  1  0  0  0
  6  7  2  0  0  0
  7  8  1  0  0  0
  7  2  1  0  0  0
 26 17  1  0  0  0
 26 21  1  0  0  0
 12 13  1  0  0  0
  8  9  1  0  0  0
M  END
> <score>
0.461461

> <minimizedAffinity>
-7.18036

> <CNNscore>
0.6434499621

> <CNNaffinity>
5.3871135712

> <CNN_VS>
3.4663379192

$$$$
HIPS6862


 26 28  0  0  0  0  0  0  0  0999 V2000
   68.3391   73.1798   90.9376 O   0  0  0  0  0  0  0  0  0  0  0  0
   70.4743   70.3050   91.9055 C   0  0  0  0  0  0  0  0  0  0  0  0
   69.6658   71.1827   91.1583 C   0  0  0  0  0  0  0  0  0  0  0  0
   69.1910   72.3764   91.7116 C   0  0  0  0  0  0  0  0  0  0  0  0
   69.5805   72.7333   93.0127 C   0  0  0  0  0  0  0  0  0  0  0  0
   70.3877   71.8787   93.7631 C   0  0  0  0  0  0  0  0  0  0  0  0
   70.8288   70.6618   93.2270 C   0  0  0  0  0  0  0  0  0  0  0  0
   71.6125   69.8146   94.0104 O   0  0  0  0  0  0  0  0  0  0  0  0
   71.8406   70.0626   94.8847 H   0  0  0  0  0  0  0  0  0  0  0  0
   71.9914   68.4755   91.6407 O   0  0  0  0  0  0  0  0  0  0  0  0
   70.9106   69.0237   91.2943 C   0  0  0  0  0  0  0  0  0  0  0  0
   70.1214   68.4073   90.3263 O   0  0  0  0  0  0  0  0  0  0  0  0
   69.3151   68.8022   90.0581 H   0  0  0  0  0  0  0  0  0  0  0  0
   68.6771   74.4739   90.4312 C   0  0  0  0  0  0  0  0  0  0  0  0
   67.4218   75.3399   90.2728 C   0  0  0  0  0  0  0  0  0  0  0  0
   67.2093   76.1756   91.4114 O   0  0  0  0  0  0  0  0  0  0  0  0
   67.9171   76.1096   92.6247 C   0  0  0  0  0  0  0  0  0  0  0  0
   69.1817   76.7089   92.7799 C   0  0  0  0  0  0  0  0  0  0  0  0
   69.8821   76.5875   93.9812 C   0  0  0  0  0  0  0  0  0  0  0  0
   69.3383   75.8690   95.0453 C   0  0  0  0  0  0  0  0  0  0  0  0
   68.0774   75.2711   94.9200 C   0  0  0  0  0  0  0  0  0  0  0  0
   67.5355   74.5300   95.9817 C   0  0  0  0  0  0  0  0  0  0  0  0
   66.2862   73.9205   95.8478 C   0  0  0  0  0  0  0  0  0  0  0  0
   65.5659   74.0501   94.6595 C   0  0  0  0  0  0  0  0  0  0  0  0
   66.0903   74.7877   93.5953 C   0  0  0  0  0  0  0  0  0  0  0  0
   67.3519   75.4027   93.7080 C   0  0  0  0  0  0  0  0  0  0  0  0
 10 11  2  0  0  0
 11 12  1  0  0  0
 11  2  1  0  0  0
  2  3  2  0  0  0
  3  4  1  0  0  0
  4  1  1  0  0  0
  1 14  1  0  0  0
 14 15  1  0  0  0
 15 16  1  0  0  0
 16 17  1  0  0  0
 17 18  2  0  0  0
 18 19  1  0  0  0
 19 20  2  0  0  0
 20 21  1  0  0  0
 21 22  2  0  0  0
 22 23  1  0  0  0
 23 24  2  0  0  0
 24 25  1  0  0  0
 25 26  2  0  0  0
  4  5  2  0  0  0
  5  6  1  0  0  0
  6  7  2  0  0  0
  7  8  1  0  0  0
  7  2  1  0  0  0
 26 17  1  0  0  0
 26 21  1  0  0  0
 12 13  1  0  0  0
  8  9  1  0  0  0
M  END
> <score>
0.461461

> <minimizedAffinity>
-6.41106

> <CNNscore>
0.6419066191

> <CNNaffinity>
5.2591848373

> <CNN_VS>
3.3759055138

$$$$
HIPS6863


 24 26  0  0  0  0  0  0  0  0999 V2000
   70.2712   76.8990   92.0108 C   0  0  0  0  0  0  0  0  0  0  0  0
   69.1153   77.3776   91.3673 C   0  0  0  0  0  0  0  0  0  0  0  0
   69.2097   78.1793   90.2201 C   0  0  0  0  0  0  0  0  0  0  0  0
   70.4738   78.5116   89.7155 C   0  0  0  0  0  0  0  0  0  0  0  0
   71.6274   78.0633   90.3582 C   0  0  0  0  0  0  0  0  0  0  0  0
   71.5421   77.2767   91.5120 C   0  0  0  0  0  0  0  0  0  0  0  0
   72.7340   76.9220   92.1472 O   0  0  0  0  0  0  0  0  0  0  0  0
   73.5556   77.1912   91.7859 H   0  0  0  0  0  0  0  0  0  0  0  0
   70.1829   74.7290   92.9721 O   0  0  0  0  0  0  0  0  0  0  0  0
   70.1134   75.9747   93.1542 C   0  0  0  0  0  0  0  0  0  0  0  0
   69.9499   76.4673   94.4457 O   0  0  0  0  0  0  0  0  0  0  0  0
   69.8972   77.3913   94.5915 H   0  0  0  0  0  0  0  0  0  0  0  0
   67.9635   78.6023   89.4855 C   0  0  0  0  0  0  0  0  0  0  0  0
   67.5178   80.0224   89.8700 C   0  0  0  0  0  0  0  0  0  0  0  0
   68.0573   81.0675   88.9093 C   0  0  0  0  0  0  0  0  0  0  0  0
   67.3328   81.2875   87.7241 C   0  0  0  0  0  0  0  0  0  0  0  0
   67.7257   82.2638   86.8117 C   0  0  0  0  0  0  0  0  0  0  0  0
   68.8426   83.0535   87.0661 C   0  0  0  0  0  0  0  0  0  0  0  0
   69.5823   82.8739   88.2420 C   0  0  0  0  0  0  0  0  0  0  0  0
   70.6949   83.6925   88.4938 C   0  0  0  0  0  0  0  0  0  0  0  0
   71.4336   83.5359   89.6657 C   0  0  0  0  0  0  0  0  0  0  0  0
   71.0743   82.5601   90.5925 C   0  0  0  0  0  0  0  0  0  0  0  0
   69.9754   81.7316   90.3557 C   0  0  0  0  0  0  0  0  0  0  0  0
   69.2021   81.8735   89.1807 C   0  0  0  0  0  0  0  0  0  0  0  0
  9 10  2  0  0  0
 10 11  1  0  0  0
 10  1  1  0  0  0
  1  2  2  0  0  0
  2  3  1  0  0  0
  3 13  1  0  0  0
 13 14  1  0  0  0
 14 15  1  0  0  0
 15 16  2  0  0  0
 16 17  1  0  0  0
 17 18  2  0  0  0
 18 19  1  0  0  0
 19 20  2  0  0  0
 20 21  1  0  0  0
 21 22  2  0  0  0
 22 23  1  0  0  0
 23 24  2  0  0  0
  3  4  2  0  0  0
  4  5  1  0  0  0
  5  6  2  0  0  0
  6  7  1  0  0  0
  6  1  1  0  0  0
 24 15  1  0  0  0
 24 19  1  0  0  0
 11 12  1  0  0  0
  7  8  1  0  0  0
M  END
> <score>
-0.401787

> <minimizedAffinity>
-7.53852

> <CNNscore>
0.8614888191

> <CNNaffinity>
5.7259159088

> <CNN_VS>
4.9328126907

$$$$
HIPS6863


 24 26  0  0  0  0  0  0  0  0999 V2000
   70.8719   77.5397   90.9036 C   0  0  0  0  0  0  0  0  0  0  0  0
   70.2515   78.4925   90.0750 C   0  0  0  0  0  0  0  0  0  0  0  0
   68.8817   78.7691   90.1965 C   0  0  0  0  0  0  0  0  0  0  0  0
   68.1231   78.0804   91.1521 C   0  0  0  0  0  0  0  0  0  0  0  0
   68.7214   77.1164   91.9630 C   0  0  0  0  0  0  0  0  0  0  0  0
   70.0835   76.8230   91.8372 C   0  0  0  0  0  0  0  0  0  0  0  0
   70.6040   75.7972   92.6288 O   0  0  0  0  0  0  0  0  0  0  0  0
   70.0499   75.3464   93.2353 H   0  0  0  0  0  0  0  0  0  0  0  0
   72.9877   76.9281   91.7923 O   0  0  0  0  0  0  0  0  0  0  0  0
   72.3364   77.3612   90.8035 C   0  0  0  0  0  0  0  0  0  0  0  0
   72.9996   77.6080   89.6049 O   0  0  0  0  0  0  0  0  0  0  0  0
   72.5245   77.9299   88.8642 H   0  0  0  0  0  0  0  0  0  0  0  0
   68.2521   79.8614   89.3705 C   0  0  0  0  0  0  0  0  0  0  0  0
   68.5016   81.2561   89.9667 C   0  0  0  0  0  0  0  0  0  0  0  0
   69.1503   82.1952   88.9649 C   0  0  0  0  0  0  0  0  0  0  0  0
   68.3408   82.6854   87.9244 C   0  0  0  0  0  0  0  0  0  0  0  0
   68.8389   83.5927   86.9923 C   0  0  0  0  0  0  0  0  0  0  0  0
   70.1520   84.0433   87.0836 C   0  0  0  0  0  0  0  0  0  0  0  0
   70.9854   83.5887   88.1137 C   0  0  0  0  0  0  0  0  0  0  0  0
   72.3018   84.0685   88.2042 C   0  0  0  0  0  0  0  0  0  0  0  0
   73.1397   83.6367   89.2312 C   0  0  0  0  0  0  0  0  0  0  0  0
   72.6760   82.7200   90.1720 C   0  0  0  0  0  0  0  0  0  0  0  0
   71.3722   82.2260   90.0938 C   0  0  0  0  0  0  0  0  0  0  0  0
   70.4969   82.6530   89.0689 C   0  0  0  0  0  0  0  0  0  0  0  0
  9 10  2  0  0  0
 10 11  1  0  0  0
 10  1  1  0  0  0
  1  2  2  0  0  0
  2  3  1  0  0  0
  3 13  1  0  0  0
 13 14  1  0  0  0
 14 15  1  0  0  0
 15 16  2  0  0  0
 16 17  1  0  0  0
 17 18  2  0  0  0
 18 19  1  0  0  0
 19 20  2  0  0  0
 20 21  1  0  0  0
 21 22  2  0  0  0
 22 23  1  0  0  0
 23 24  2  0  0  0
  3  4  2  0  0  0
  4  5  1  0  0  0
  5  6  2  0  0  0
  6  7  1  0  0  0
  6  1  1  0  0  0
 24 15  1  0  0  0
 24 19  1  0  0  0
 11 12  1  0  0  0
  7  8  1  0  0  0
M  END
> <score>
-0.401787

> <minimizedAffinity>
-8.18255

> <CNNscore>
0.7322804928

> <CNNaffinity>
5.6017293930

> <CNN_VS>
4.1020369530

$$$$
HIPS6863


 24 26  0  0  0  0  0  0  0  0999 V2000
   70.6096   77.9670   90.7093 C   0  0  0  0  0  0  0  0  0  0  0  0
   70.9883   79.3085   90.5191 C   0  0  0  0  0  0  0  0  0  0  0  0
   70.0979   80.2350   89.9566 C   0  0  0  0  0  0  0  0  0  0  0  0
   68.8177   79.8135   89.5739 C   0  0  0  0  0  0  0  0  0  0  0  0
   68.4388   78.4812   89.7351 C   0  0  0  0  0  0  0  0  0  0  0  0
   69.3264   77.5473   90.2804 C   0  0  0  0  0  0  0  0  0  0  0  0
   68.9102   76.2161   90.3473 O   0  0  0  0  0  0  0  0  0  0  0  0
   68.0530   75.9779   90.0535 H   0  0  0  0  0  0  0  0  0  0  0  0
   71.1799   76.4347   92.4319 O   0  0  0  0  0  0  0  0  0  0  0  0
   71.5492   77.0575   91.3997 C   0  0  0  0  0  0  0  0  0  0  0  0
   72.8229   76.8318   90.8859 O   0  0  0  0  0  0  0  0  0  0  0  0
   73.1067   77.2897   90.1193 H   0  0  0  0  0  0  0  0  0  0  0  0
   70.4824   81.6884   89.8500 C   0  0  0  0  0  0  0  0  0  0  0  0
   69.3054   82.5679   89.3982 C   0  0  0  0  0  0  0  0  0  0  0  0
   69.7684   83.7640   88.5850 C   0  0  0  0  0  0  0  0  0  0  0  0
   70.2783   83.5097   87.2991 C   0  0  0  0  0  0  0  0  0  0  0  0
   70.6764   84.5513   86.4644 C   0  0  0  0  0  0  0  0  0  0  0  0
   70.5626   85.8720   86.8869 C   0  0  0  0  0  0  0  0  0  0  0  0
   70.0468   86.1665   88.1555 C   0  0  0  0  0  0  0  0  0  0  0  0
   69.9193   87.5052   88.5592 C   0  0  0  0  0  0  0  0  0  0  0  0
   69.3952   87.8158   89.8130 C   0  0  0  0  0  0  0  0  0  0  0  0
   68.9996   86.7968   90.6765 C   0  0  0  0  0  0  0  0  0  0  0  0
   69.1259   85.4593   90.2953 C   0  0  0  0  0  0  0  0  0  0  0  0
   69.6452   85.1145   89.0264 C   0  0  0  0  0  0  0  0  0  0  0  0
  9 10  2  0  0  0
 10 11  1  0  0  0
 10  1  1  0  0  0
  1  2  2  0  0  0
  2  3  1  0  0  0
  3 13  1  0  0  0
 13 14  1  0  0  0
 14 15  1  0  0  0
 15 16  2  0  0  0
 16 17  1  0  0  0
 17 18  2  0  0  0
 18 19  1  0  0  0
 19 20  2  0  0  0
 20 21  1  0  0  0
 21 22  2  0  0  0
 22 23  1  0  0  0
 23 24  2  0  0  0
  3  4  2  0  0  0
  4  5  1  0  0  0
  5  6  2  0  0  0
  6  7  1  0  0  0
  6  1  1  0  0  0
 24 15  1  0  0  0
 24 19  1  0  0  0
 11 12  1  0  0  0
  7  8  1  0  0  0
M  END
> <score>
-0.401787

> <minimizedAffinity>
-7.31643

> <CNNscore>
0.7299724221

> <CNNaffinity>
5.4935960770

> <CNN_VS>
4.0101737976

$$$$
HIPS6897


 30 33  0  0  0  0  0  0  0  0999 V2000
   66.4677   80.3868   92.2438 C   0  0  0  0  0  0  0  0  0  0  0  0
   67.5016   80.9699   91.7522 N   0  0  0  0  0  0  0  0  0  0  0  0
   67.1581   76.7149   92.1159 C   0  0  0  0  0  0  0  0  0  0  0  0
   67.1357   78.0708   91.8344 C   0  0  0  0  0  0  0  0  0  0  0  0
   66.4410   78.9737   92.6072 C   0  0  0  0  0  0  0  0  0  0  0  0
   65.7509   78.4915   93.6933 C   0  0  0  0  0  0  0  0  0  0  0  0
   65.7292   77.1396   94.0361 C   0  0  0  0  0  0  0  0  0  0  0  0
   66.4452   76.2873   93.2217 C   0  0  0  0  0  0  0  0  0  0  0  0
   66.4719   74.9187   93.5002 O   0  0  0  0  0  0  0  0  0  0  0  0
   66.0042   74.5817   94.2388 H   0  0  0  0  0  0  0  0  0  0  0  0
   68.9430   74.9959   91.8491 N   0  0  0  0  0  0  0  0  0  0  0  0
   67.8976   75.7677   91.2899 C   0  0  0  0  0  0  0  0  0  0  0  0
   67.6185   75.6264   90.0825 O   0  0  0  0  0  0  0  0  0  0  0  0
   69.4389   74.3579   91.2867 H   0  0  0  0  0  0  0  0  0  0  0  0
   69.1746   75.0968   92.8006 H   0  0  0  0  0  0  0  0  0  0  0  0
   67.5718   82.3131   91.3919 N   0  0  0  0  0  0  0  0  0  0  0  0
   67.2524   82.8320   90.1207 C   0  0  0  0  0  0  0  0  0  0  0  0
   66.8753   81.9563   89.2753 O   0  0  0  0  0  0  0  0  0  0  0  0
   67.8684   82.9515   92.0801 H   0  0  0  0  0  0  0  0  0  0  0  0
   67.3153   84.2219   89.7147 C   0  0  0  0  0  0  0  0  0  0  0  0
   68.4316   84.6088   88.8125 C   0  0  0  0  0  0  0  0  0  0  0  0
   69.0314   85.9324   89.1759 C   0  0  0  0  0  0  0  0  0  0  0  0
   70.3235   86.1702   88.4157 C   0  0  0  0  0  0  0  0  0  0  0  0
   71.3487   85.1057   88.6670 C   0  0  0  0  0  0  0  0  0  0  0  0
   70.7438   83.7815   88.2414 C   0  0  0  0  0  0  0  0  0  0  0  0
   70.3219   83.7968   86.7801 C   0  0  0  0  0  0  0  0  0  0  0  0
   69.3377   84.9106   86.5665 C   0  0  0  0  0  0  0  0  0  0  0  0
   69.9872   86.2142   86.9541 C   0  0  0  0  0  0  0  0  0  0  0  0
   68.0793   84.6280   87.3503 C   0  0  0  0  0  0  0  0  0  0  0  0
   69.5208   83.5518   89.0648 C   0  0  0  0  0  0  0  0  0  0  0  0
 11 12  1  0  0  0
 12 13  2  0  0  0
 12  3  1  0  0  0
  3  4  2  0  0  0
  4  5  1  0  0  0
  5  1  1  0  0  0
  1  2  2  0  0  0
  2 16  1  0  0  0
 16 17  1  0  0  0
 17 18  2  0  0  0
 17 20  1  0  0  0
 21 20  1  0  0  0
 21 22  1  0  0  0
 23 22  1  0  0  0
 23 24  1  0  0  0
 25 24  1  0  0  0
 25 26  1  0  0  0
 27 26  1  0  0  0
 27 28  1  0  0  0
 27 29  1  0  0  0
 25 30  1  0  0  0
  5  6  2  0  0  0
  6  7  1  0  0  0
  7  8  2  0  0  0
  8  9  1  0  0  0
  8  3  1  0  0  0
 29 21  1  0  0  0
 30 21  1  0  0  0
 28 23  1  0  0  0
 11 14  1  0  0  0
 11 15  1  0  0  0
 16 19  1  0  0  0
  9 10  1  0  0  0
M  END
> <score>
0.139713

> <minimizedAffinity>
-7.04106

> <CNNscore>
0.3594573140

> <CNNaffinity>
5.3855476379

> <CNN_VS>
1.9358744621

$$$$
HIPS6897


 30 33  0  0  0  0  0  0  0  0999 V2000
   69.1571   80.1871   89.8517 C   0  0  0  0  0  0  0  0  0  0  0  0
   69.9991   79.2851   90.2094 N   0  0  0  0  0  0  0  0  0  0  0  0
   69.1810   83.6090   88.3462 C   0  0  0  0  0  0  0  0  0  0  0  0
   68.8877   82.2841   88.6238 C   0  0  0  0  0  0  0  0  0  0  0  0
   69.5240   81.5807   89.6217 C   0  0  0  0  0  0  0  0  0  0  0  0
   70.4822   82.2354   90.3576 C   0  0  0  0  0  0  0  0  0  0  0  0
   70.8285   83.5678   90.1334 C   0  0  0  0  0  0  0  0  0  0  0  0
   70.1543   84.2161   89.1197 C   0  0  0  0  0  0  0  0  0  0  0  0
   70.4454   85.5522   88.8347 O   0  0  0  0  0  0  0  0  0  0  0  0
   71.0973   86.0060   89.3317 H   0  0  0  0  0  0  0  0  0  0  0  0
   69.2466   85.0160   86.2902 N   0  0  0  0  0  0  0  0  0  0  0  0
   68.5005   84.3440   87.2866 C   0  0  0  0  0  0  0  0  0  0  0  0
   67.2548   84.3895   87.2455 O   0  0  0  0  0  0  0  0  0  0  0  0
   68.7819   85.5108   85.5771 H   0  0  0  0  0  0  0  0  0  0  0  0
   70.2306   84.9890   86.3098 H   0  0  0  0  0  0  0  0  0  0  0  0
   69.6939   77.9462   90.4395 N   0  0  0  0  0  0  0  0  0  0  0  0
   70.5122   77.0332   91.1352 C   0  0  0  0  0  0  0  0  0  0  0  0
   71.6048   77.5288   91.5648 O   0  0  0  0  0  0  0  0  0  0  0  0
   68.8379   77.6101   90.0880 H   0  0  0  0  0  0  0  0  0  0  0  0
   70.2238   75.6360   91.3906 C   0  0  0  0  0  0  0  0  0  0  0  0
   69.2737   75.3365   92.4939 C   0  0  0  0  0  0  0  0  0  0  0  0
   67.8428   75.4360   92.0625 C   0  0  0  0  0  0  0  0  0  0  0  0
   66.9153   74.8702   93.1225 C   0  0  0  0  0  0  0  0  0  0  0  0
   67.2095   73.4360   93.4449 C   0  0  0  0  0  0  0  0  0  0  0  0
   68.6440   73.3640   93.9323 C   0  0  0  0  0  0  0  0  0  0  0  0
   68.8739   74.2528   95.1451 C   0  0  0  0  0  0  0  0  0  0  0  0
   68.5158   75.6672   94.7902 C   0  0  0  0  0  0  0  0  0  0  0  0
   67.0731   75.7091   94.3565 C   0  0  0  0  0  0  0  0  0  0  0  0
   69.4610   76.1748   93.7286 C   0  0  0  0  0  0  0  0  0  0  0  0
   69.5254   73.8573   92.8340 C   0  0  0  0  0  0  0  0  0  0  0  0
 11 12  1  0  0  0
 12 13  2  0  0  0
 12  3  1  0  0  0
  3  4  2  0  0  0
  4  5  1  0  0  0
  5  1  1  0  0  0
  1  2  2  0  0  0
  2 16  1  0  0  0
 16 17  1  0  0  0
 17 18  2  0  0  0
 17 20  1  0  0  0
 21 20  1  0  0  0
 21 22  1  0  0  0
 23 22  1  0  0  0
 23 24  1  0  0  0
 25 24  1  0  0  0
 25 26  1  0  0  0
 27 26  1  0  0  0
 27 28  1  0  0  0
 27 29  1  0  0  0
 25 30  1  0  0  0
  5  6  2  0  0  0
  6  7  1  0  0  0
  7  8  2  0  0  0
  8  9  1  0  0  0
  8  3  1  0  0  0
 29 21  1  0  0  0
 30 21  1  0  0  0
 28 23  1  0  0  0
 11 14  1  0  0  0
 11 15  1  0  0  0
 16 19  1  0  0  0
  9 10  1  0  0  0
M  END
> <score>
0.139713

> <minimizedAffinity>
-7.34730

> <CNNscore>
0.3137595654

> <CNNaffinity>
5.4276542664

> <CNN_VS>
1.7029784918

$$$$
HIPS6897


 30 33  0  0  0  0  0  0  0  0999 V2000
   68.6272   77.6527   91.2506 C   0  0  0  0  0  0  0  0  0  0  0  0
   68.3244   78.8550   90.9138 N   0  0  0  0  0  0  0  0  0  0  0  0
   67.2929   74.6344   93.0071 C   0  0  0  0  0  0  0  0  0  0  0  0
   68.0384   75.4782   92.2005 C   0  0  0  0  0  0  0  0  0  0  0  0
   67.7960   76.8313   92.1246 C   0  0  0  0  0  0  0  0  0  0  0  0
   66.7723   77.3435   92.8849 C   0  0  0  0  0  0  0  0  0  0  0  0
   65.9812   76.5534   93.7189 C   0  0  0  0  0  0  0  0  0  0  0  0
   66.2754   75.2062   93.7499 C   0  0  0  0  0  0  0  0  0  0  0  0
   65.5274   74.3498   94.5613 O   0  0  0  0  0  0  0  0  0  0  0  0
   64.8277   74.6908   95.0829 H   0  0  0  0  0  0  0  0  0  0  0  0
   66.9059   72.3090   92.1980 N   0  0  0  0  0  0  0  0  0  0  0  0
   67.5587   73.2025   93.0793 C   0  0  0  0  0  0  0  0  0  0  0  0
   68.3632   72.7483   93.9172 O   0  0  0  0  0  0  0  0  0  0  0  0
   67.0892   71.3432   92.2512 H   0  0  0  0  0  0  0  0  0  0  0  0
   66.2683   72.6531   91.5314 H   0  0  0  0  0  0  0  0  0  0  0  0
   69.0862   79.6735   90.0840 N   0  0  0  0  0  0  0  0  0  0  0  0
   69.2780   81.0588   90.2617 C   0  0  0  0  0  0  0  0  0  0  0  0
   68.6838   81.5453   91.2785 O   0  0  0  0  0  0  0  0  0  0  0  0
   69.5261   79.2510   89.3113 H   0  0  0  0  0  0  0  0  0  0  0  0
   70.0630   81.9371   89.4173 C   0  0  0  0  0  0  0  0  0  0  0  0
   69.3341   83.0318   88.7244 C   0  0  0  0  0  0  0  0  0  0  0  0
   69.1189   84.2250   89.6039 C   0  0  0  0  0  0  0  0  0  0  0  0
   68.6188   85.4103   88.7984 C   0  0  0  0  0  0  0  0  0  0  0  0
   69.5586   85.8019   87.6981 C   0  0  0  0  0  0  0  0  0  0  0  0
   69.7203   84.5994   86.7879 C   0  0  0  0  0  0  0  0  0  0  0  0
   68.3863   84.1340   86.2244 C   0  0  0  0  0  0  0  0  0  0  0  0
   67.4627   83.8049   87.3617 C   0  0  0  0  0  0  0  0  0  0  0  0
   67.2878   85.0334   88.2170 C   0  0  0  0  0  0  0  0  0  0  0  0
   68.0115   82.6287   88.1321 C   0  0  0  0  0  0  0  0  0  0  0  0
   70.2841   83.4827   87.6014 C   0  0  0  0  0  0  0  0  0  0  0  0
 11 12  1  0  0  0
 12 13  2  0  0  0
 12  3  1  0  0  0
  3  4  2  0  0  0
  4  5  1  0  0  0
  5  1  1  0  0  0
  1  2  2  0  0  0
  2 16  1  0  0  0
 16 17  1  0  0  0
 17 18  2  0  0  0
 17 20  1  0  0  0
 21 20  1  0  0  0
 21 22  1  0  0  0
 23 22  1  0  0  0
 23 24  1  0  0  0
 25 24  1  0  0  0
 25 26  1  0  0  0
 27 26  1  0  0  0
 27 28  1  0  0  0
 27 29  1  0  0  0
 25 30  1  0  0  0
  5  6  2  0  0  0
  6  7  1  0  0  0
  7  8  2  0  0  0
  8  9  1  0  0  0
  8  3  1  0  0  0
 29 21  1  0  0  0
 30 21  1  0  0  0
 28 23  1  0  0  0
 11 14  1  0  0  0
 11 15  1  0  0  0
 16 19  1  0  0  0
  9 10  1  0  0  0
M  END
> <score>
0.139713

> <minimizedAffinity>
-7.55969

> <CNNscore>
0.2750069201

> <CNNaffinity>
5.1856489182

> <CNN_VS>
1.4260892868

$$$$
HIPS6920


 35 38  0  0  0  0  0  0  0  0999 V2000
   67.6701   77.8083   90.2463 C   0  0  0  0  0  0  0  0  0  0  0  0
   68.8123   78.6152   90.2344 C   0  0  0  0  0  0  0  0  0  0  0  0
   68.7667   79.8481   89.6676 N   0  0  0  0  0  0  0  0  0  0  0  0
   67.6213   80.3312   89.1120 C   0  0  0  0  0  0  0  0  0  0  0  0
   66.4968   79.5636   89.1317 N   0  0  0  0  0  0  0  0  0  0  0  0
   66.4963   78.3250   89.6882 C   0  0  0  0  0  0  0  0  0  0  0  0
   67.5980   81.6808   88.4940 C   0  0  0  0  0  0  0  0  0  0  0  0
   67.6056   81.8273   87.0946 C   0  0  0  0  0  0  0  0  0  0  0  0
   67.5882   83.0978   86.5159 C   0  0  0  0  0  0  0  0  0  0  0  0
   67.5673   84.2365   87.3222 C   0  0  0  0  0  0  0  0  0  0  0  0
   67.5633   84.1197   88.7156 C   0  0  0  0  0  0  0  0  0  0  0  0
   67.5708   82.8369   89.2983 C   0  0  0  0  0  0  0  0  0  0  0  0
   67.5519   85.2990   89.4788 O   0  0  0  0  0  0  0  0  0  0  0  0
   68.7094   85.9794   89.9666 C   0  0  0  0  0  0  0  0  0  0  0  0
   69.9618   85.4292   89.3360 C   0  0  0  0  0  0  0  0  0  0  0  0
   70.5362   86.0605   88.2199 C   0  0  0  0  0  0  0  0  0  0  0  0
   71.6974   85.5428   87.6385 C   0  0  0  0  0  0  0  0  0  0  0  0
   72.2873   84.3879   88.1590 C   0  0  0  0  0  0  0  0  0  0  0  0
   71.7147   83.7452   89.2615 C   0  0  0  0  0  0  0  0  0  0  0  0
   72.4526   82.2925   89.9110 Cl  0  0  0  0  0  0  0  0  0  0  0  0
   70.5526   84.2615   89.8462 C   0  0  0  0  0  0  0  0  0  0  0  0
   67.6841   76.4608   90.9045 C   0  0  0  0  0  0  0  0  0  0  0  0
   66.8353   76.4906   92.0485 O   0  0  0  0  0  0  0  0  0  0  0  0
   68.2074   74.0632   94.5502 C   0  0  0  0  0  0  0  0  0  0  0  0
   68.1365   74.9318   93.4445 C   0  0  0  0  0  0  0  0  0  0  0  0
   66.9476   75.6230   93.1452 C   0  0  0  0  0  0  0  0  0  0  0  0
   65.8288   75.4408   93.9608 C   0  0  0  0  0  0  0  0  0  0  0  0
   65.8914   74.5990   95.0712 C   0  0  0  0  0  0  0  0  0  0  0  0
   67.0747   73.9242   95.3892 C   0  0  0  0  0  0  0  0  0  0  0  0
   67.0941   73.1608   96.5583 O   0  0  0  0  0  0  0  0  0  0  0  0
   66.3233   73.0937   97.0869 H   0  0  0  0  0  0  0  0  0  0  0  0
   69.6739   72.7606   95.8909 O   0  0  0  0  0  0  0  0  0  0  0  0
   69.4539   73.2975   94.7715 C   0  0  0  0  0  0  0  0  0  0  0  0
   70.4198   73.2126   93.7729 O   0  0  0  0  0  0  0  0  0  0  0  0
   70.2661   73.6082   92.9375 H   0  0  0  0  0  0  0  0  0  0  0  0
 32 33  2  0  0  0
 33 34  1  0  0  0
 33 24  1  0  0  0
 24 25  2  0  0  0
 25 26  1  0  0  0
 26 23  1  0  0  0
 23 22  1  0  0  0
 22  1  1  0  0  0
  1  2  2  0  0  0
  2  3  2  0  0  0
  3  4  2  0  0  0
  4  7  1  0  0  0
  7  8  2  0  0  0
  8  9  1  0  0  0
  9 10  2  0  0  0
 10 11  1  0  0  0
 11 13  1  0  0  0
 13 14  1  0  0  0
 14 15  1  0  0  0
 15 16  2  0  0  0
 16 17  1  0  0  0
 17 18  2  0  0  0
 18 19  1  0  0  0
 19 20  1  0  0  0
 19 21  2  0  0  0
 11 12  2  0  0  0
  4  5  2  0  0  0
  5  6  2  0  0  0
 26 27  2  0  0  0
 27 28  1  0  0  0
 28 29  2  0  0  0
 29 30  1  0  0  0
 29 24  1  0  0  0
  6  1  1  0  0  0
 12  7  1  0  0  0
 21 15  1  0  0  0
 34 35  1  0  0  0
 30 31  1  0  0  0
M  END
> <score>
-0.557854

> <minimizedAffinity>
-8.59735

> <CNNscore>
0.7061235309

> <CNNaffinity>
6.5115995407

> <CNN_VS>
4.5979938507

$$$$
HIPS6920


 35 38  0  0  0  0  0  0  0  0999 V2000
   67.6082   77.7872   89.7120 C   0  0  0  0  0  0  0  0  0  0  0  0
   67.2573   78.4637   88.5393 C   0  0  0  0  0  0  0  0  0  0  0  0
   67.2154   79.8207   88.5249 N   0  0  0  0  0  0  0  0  0  0  0  0
   67.5198   80.5513   89.6329 C   0  0  0  0  0  0  0  0  0  0  0  0
   67.8800   79.9067   90.7770 N   0  0  0  0  0  0  0  0  0  0  0  0
   67.9358   78.5513   90.8368 C   0  0  0  0  0  0  0  0  0  0  0  0
   67.4620   82.0342   89.5934 C   0  0  0  0  0  0  0  0  0  0  0  0
   66.9451   82.7595   90.6826 C   0  0  0  0  0  0  0  0  0  0  0  0
   66.8877   84.1539   90.6410 C   0  0  0  0  0  0  0  0  0  0  0  0
   67.3398   84.8421   89.5144 C   0  0  0  0  0  0  0  0  0  0  0  0
   67.8545   84.1460   88.4165 C   0  0  0  0  0  0  0  0  0  0  0  0
   67.9210   82.7393   88.4637 C   0  0  0  0  0  0  0  0  0  0  0  0
   68.2862   84.8885   87.3049 O   0  0  0  0  0  0  0  0  0  0  0  0
   69.4567   84.6163   86.5327 C   0  0  0  0  0  0  0  0  0  0  0  0
   70.7036   84.9164   87.3228 C   0  0  0  0  0  0  0  0  0  0  0  0
   71.2353   86.2165   87.3515 C   0  0  0  0  0  0  0  0  0  0  0  0
   72.3941   86.4871   88.0852 C   0  0  0  0  0  0  0  0  0  0  0  0
   73.0355   85.4624   88.7862 C   0  0  0  0  0  0  0  0  0  0  0  0
   72.5207   84.1624   88.7523 C   0  0  0  0  0  0  0  0  0  0  0  0
   73.3292   82.8754   89.6281 Cl  0  0  0  0  0  0  0  0  0  0  0  0
   71.3603   83.8885   88.0192 C   0  0  0  0  0  0  0  0  0  0  0  0
   67.7034   76.2909   89.7406 C   0  0  0  0  0  0  0  0  0  0  0  0
   68.6181   75.9001   90.7607 O   0  0  0  0  0  0  0  0  0  0  0  0
   69.5673   72.9233   92.8274 C   0  0  0  0  0  0  0  0  0  0  0  0
   69.3748   74.2629   92.4397 C   0  0  0  0  0  0  0  0  0  0  0  0
   68.8184   74.5783   91.1860 C   0  0  0  0  0  0  0  0  0  0  0  0
   68.4539   73.5437   90.3217 C   0  0  0  0  0  0  0  0  0  0  0  0
   68.6203   72.2119   90.7015 C   0  0  0  0  0  0  0  0  0  0  0  0
   69.1526   71.8883   91.9539 C   0  0  0  0  0  0  0  0  0  0  0  0
   69.2179   70.5379   92.3037 O   0  0  0  0  0  0  0  0  0  0  0  0
   68.9336   69.8826   91.6973 H   0  0  0  0  0  0  0  0  0  0  0  0
   71.3855   72.1381   94.1399 O   0  0  0  0  0  0  0  0  0  0  0  0
   70.2325   72.6479   94.1199 C   0  0  0  0  0  0  0  0  0  0  0  0
   69.5733   72.8904   95.3217 O   0  0  0  0  0  0  0  0  0  0  0  0
   68.7162   73.2690   95.3177 H   0  0  0  0  0  0  0  0  0  0  0  0
 32 33  2  0  0  0
 33 34  1  0  0  0
 33 24  1  0  0  0
 24 25  2  0  0  0
 25 26  1  0  0  0
 26 23  1  0  0  0
 23 22  1  0  0  0
 22  1  1  0  0  0
  1  2  2  0  0  0
  2  3  2  0  0  0
  3  4  2  0  0  0
  4  7  1  0  0  0
  7  8  2  0  0  0
  8  9  1  0  0  0
  9 10  2  0  0  0
 10 11  1  0  0  0
 11 13  1  0  0  0
 13 14  1  0  0  0
 14 15  1  0  0  0
 15 16  2  0  0  0
 16 17  1  0  0  0
 17 18  2  0  0  0
 18 19  1  0  0  0
 19 20  1  0  0  0
 19 21  2  0  0  0
 11 12  2  0  0  0
  4  5  2  0  0  0
  5  6  2  0  0  0
 26 27  2  0  0  0
 27 28  1  0  0  0
 28 29  2  0  0  0
 29 30  1  0  0  0
 29 24  1  0  0  0
  6  1  1  0  0  0
 12  7  1  0  0  0
 21 15  1  0  0  0
 34 35  1  0  0  0
 30 31  1  0  0  0
M  END
> <score>
-0.557854

> <minimizedAffinity>
-8.18026

> <CNNscore>
0.6016452909

> <CNNaffinity>
6.3320932388

> <CNN_VS>
3.8096740246

$$$$
HIPS6920


 35 38  0  0  0  0  0  0  0  0999 V2000
   66.9796   78.3199   91.8332 C   0  0  0  0  0  0  0  0  0  0  0  0
   66.5557   79.0124   92.9719 C   0  0  0  0  0  0  0  0  0  0  0  0
   66.7728   80.3488   93.0738 N   0  0  0  0  0  0  0  0  0  0  0  0
   67.3909   81.0446   92.0798 C   0  0  0  0  0  0  0  0  0  0  0  0
   67.7934   80.3866   90.9578 N   0  0  0  0  0  0  0  0  0  0  0  0
   67.5966   79.0509   90.8129 C   0  0  0  0  0  0  0  0  0  0  0  0
   67.6210   82.5048   92.2169 C   0  0  0  0  0  0  0  0  0  0  0  0
   67.8930   83.0713   93.4758 C   0  0  0  0  0  0  0  0  0  0  0  0
   68.1046   84.4455   93.6027 C   0  0  0  0  0  0  0  0  0  0  0  0
   68.0440   85.2720   92.4800 C   0  0  0  0  0  0  0  0  0  0  0  0
   67.7716   84.7358   91.2177 C   0  0  0  0  0  0  0  0  0  0  0  0
   67.5681   83.3475   91.0895 C   0  0  0  0  0  0  0  0  0  0  0  0
   67.7126   85.6150   90.1237 O   0  0  0  0  0  0  0  0  0  0  0  0
   68.7901   86.4293   89.6582 C   0  0  0  0  0  0  0  0  0  0  0  0
   69.6951   85.6499   88.7404 C   0  0  0  0  0  0  0  0  0  0  0  0
   69.4113   85.5566   87.3676 C   0  0  0  0  0  0  0  0  0  0  0  0
   70.2546   84.8295   86.5223 C   0  0  0  0  0  0  0  0  0  0  0  0
   71.3797   84.1830   87.0410 C   0  0  0  0  0  0  0  0  0  0  0  0
   71.6625   84.2594   88.4087 C   0  0  0  0  0  0  0  0  0  0  0  0
   73.0719   83.4432   89.0601 Cl  0  0  0  0  0  0  0  0  0  0  0  0
   70.8205   84.9871   89.2574 C   0  0  0  0  0  0  0  0  0  0  0  0
   66.7127   76.8523   91.6788 C   0  0  0  0  0  0  0  0  0  0  0  0
   66.1546   76.3487   92.8891 O   0  0  0  0  0  0  0  0  0  0  0  0
   68.5015   73.7460   94.2124 C   0  0  0  0  0  0  0  0  0  0  0  0
   67.8900   74.6555   93.3289 C   0  0  0  0  0  0  0  0  0  0  0  0
   66.7952   75.4376   93.7421 C   0  0  0  0  0  0  0  0  0  0  0  0
   66.3162   75.3051   95.0471 C   0  0  0  0  0  0  0  0  0  0  0  0
   66.9256   74.4227   95.9390 C   0  0  0  0  0  0  0  0  0  0  0  0
   68.0274   73.6568   95.5443 C   0  0  0  0  0  0  0  0  0  0  0  0
   68.6402   72.8535   96.5083 O   0  0  0  0  0  0  0  0  0  0  0  0
   68.2960   72.8216   97.3791 H   0  0  0  0  0  0  0  0  0  0  0  0
   69.6450   71.6715   94.0287 O   0  0  0  0  0  0  0  0  0  0  0  0
   69.5944   72.8885   93.7031 C   0  0  0  0  0  0  0  0  0  0  0  0
   70.6066   73.4257   92.9130 O   0  0  0  0  0  0  0  0  0  0  0  0
   70.5784   74.3290   92.6656 H   0  0  0  0  0  0  0  0  0  0  0  0
 32 33  2  0  0  0
 33 34  1  0  0  0
 33 24  1  0  0  0
 24 25  2  0  0  0
 25 26  1  0  0  0
 26 23  1  0  0  0
 23 22  1  0  0  0
 22  1  1  0  0  0
  1  2  2  0  0  0
  2  3  2  0  0  0
  3  4  2  0  0  0
  4  7  1  0  0  0
  7  8  2  0  0  0
  8  9  1  0  0  0
  9 10  2  0  0  0
 10 11  1  0  0  0
 11 13  1  0  0  0
 13 14  1  0  0  0
 14 15  1  0  0  0
 15 16  2  0  0  0
 16 17  1  0  0  0
 17 18  2  0  0  0
 18 19  1  0  0  0
 19 20  1  0  0  0
 19 21  2  0  0  0
 11 12  2  0  0  0
  4  5  2  0  0  0
  5  6  2  0  0  0
 26 27  2  0  0  0
 27 28  1  0  0  0
 28 29  2  0  0  0
 29 30  1  0  0  0
 29 24  1  0  0  0
  6  1  1  0  0  0
 12  7  1  0  0  0
 21 15  1  0  0  0
 34 35  1  0  0  0
 30 31  1  0  0  0
M  END
> <score>
-0.557854

> <minimizedAffinity>
-7.64574

> <CNNscore>
0.5887218118

> <CNNaffinity>
6.3200988770

> <CNN_VS>
3.7207801342

$$$$
HIPS6933


 36 40  0  0  0  0  0  0  0  0999 V2000
   69.8350   72.7827   95.0148 N   0  0  0  0  0  0  0  0  0  0  0  0
   69.1631   73.5794   95.7932 C   0  0  0  0  0  0  0  0  0  0  0  0
   67.8734   74.1772   95.4050 C   0  0  0  0  0  0  0  0  0  0  0  0
   66.6132   73.6541   95.6689 C   0  0  0  0  0  0  0  0  0  0  0  0
   65.6546   74.4478   95.1379 N   0  0  0  0  0  0  0  0  0  0  0  0
   66.3005   75.4747   94.5555 C   0  0  0  0  0  0  0  0  0  0  0  0
   65.7343   76.5497   93.8721 C   0  0  0  0  0  0  0  0  0  0  0  0
   66.6043   77.5353   93.3434 C   0  0  0  0  0  0  0  0  0  0  0  0
   67.9980   77.4217   93.5494 C   0  0  0  0  0  0  0  0  0  0  0  0
   68.5375   76.3254   94.2424 C   0  0  0  0  0  0  0  0  0  0  0  0
   67.6555   75.3543   94.7134 C   0  0  0  0  0  0  0  0  0  0  0  0
   64.6813   74.3033   95.1710 H   0  0  0  0  0  0  0  0  0  0  0  0
   66.1344   78.6328   92.6102 O   0  0  0  0  0  0  0  0  0  0  0  0
   66.7767   79.9028   92.5555 C   0  0  0  0  0  0  0  0  0  0  0  0
   66.9765   80.2832   91.1187 C   0  0  0  0  0  0  0  0  0  0  0  0
   65.9215   80.1396   90.2035 C   0  0  0  0  0  0  0  0  0  0  0  0
   66.0773   80.5526   88.8773 C   0  0  0  0  0  0  0  0  0  0  0  0
   67.2846   81.1198   88.4592 C   0  0  0  0  0  0  0  0  0  0  0  0
   68.3362   81.2741   89.3667 C   0  0  0  0  0  0  0  0  0  0  0  0
   68.1830   80.8643   90.6946 C   0  0  0  0  0  0  0  0  0  0  0  0
   70.4722   73.9431   92.5644 O   0  0  0  0  0  0  0  0  0  0  0  0
   69.7072   72.9408   92.5580 C   0  0  0  0  0  0  0  0  0  0  0  0
   69.3470   72.3055   93.7851 N   0  0  0  0  0  0  0  0  0  0  0  0
   68.7493   71.5233   93.7701 H   0  0  0  0  0  0  0  0  0  0  0  0
   69.1772   72.4118   91.2634 C   0  0  0  0  0  0  0  0  0  0  0  0
   67.8691   72.9377   91.0396 O   0  0  0  0  0  0  0  0  0  0  0  0
   67.4845   73.4904   89.8136 C   0  0  0  0  0  0  0  0  0  0  0  0
   66.8569   72.6604   88.8767 C   0  0  0  0  0  0  0  0  0  0  0  0
   66.4635   73.1586   87.6347 C   0  0  0  0  0  0  0  0  0  0  0  0
   66.6987   74.4939   87.3073 C   0  0  0  0  0  0  0  0  0  0  0  0
   67.3165   75.3492   88.2326 C   0  0  0  0  0  0  0  0  0  0  0  0
   67.5454   76.6957   87.9079 C   0  0  0  0  0  0  0  0  0  0  0  0
   68.1395   77.5513   88.8376 C   0  0  0  0  0  0  0  0  0  0  0  0
   68.4945   77.0759   90.1012 C   0  0  0  0  0  0  0  0  0  0  0  0
   68.2729   75.7384   90.4395 C   0  0  0  0  0  0  0  0  0  0  0  0
   67.7027   74.8531   89.5062 C   0  0  0  0  0  0  0  0  0  0  0  0
 21 22  2  0  0  0
 22 25  1  0  0  0
 25 26  1  0  0  0
 26 27  1  0  0  0
 27 28  2  0  0  0
 28 29  1  0  0  0
 29 30  2  0  0  0
 30 31  1  0  0  0
 31 32  2  0  0  0
 32 33  1  0  0  0
 33 34  2  0  0  0
 34 35  1  0  0  0
 35 36  2  0  0  0
 22 23  1  0  0  0
 23  1  1  0  0  0
  1  2  2  0  0  0
  2  3  1  0  0  0
  3  4  2  0  0  0
  4  5  1  0  0  0
  5  6  1  0  0  0
  6  7  2  0  0  0
  7  8  1  0  0  0
  8 13  1  0  0  0
 13 14  1  0  0  0
 14 15  1  0  0  0
 15 16  2  0  0  0
 16 17  1  0  0  0
 17 18  2  0  0  0
 18 19  1  0  0  0
 19 20  2  0  0  0
  8  9  2  0  0  0
  9 10  1  0  0  0
 10 11  2  0  0  0
 36 27  1  0  0  0
 11  3  1  0  0  0
 36 31  1  0  0  0
 11  6  1  0  0  0
 20 15  1  0  0  0
 23 24  1  0  0  0
  5 12  1  0  0  0
M  END
> <score>
0.769153

> <minimizedAffinity>
-8.84783

> <CNNscore>
0.5803030133

> <CNNaffinity>
7.3174715042

> <CNN_VS>
4.2463507652

$$$$
HIPS6933


 36 40  0  0  0  0  0  0  0  0999 V2000
   67.0685   74.3891   88.8760 N   0  0  0  0  0  0  0  0  0  0  0  0
   66.6570   74.9248   87.7644 C   0  0  0  0  0  0  0  0  0  0  0  0
   67.0501   76.2785   87.3350 C   0  0  0  0  0  0  0  0  0  0  0  0
   67.7331   76.6045   86.1694 C   0  0  0  0  0  0  0  0  0  0  0  0
   67.9565   77.9378   86.1132 N   0  0  0  0  0  0  0  0  0  0  0  0
   67.4057   78.4559   87.2263 C   0  0  0  0  0  0  0  0  0  0  0  0
   67.3854   79.7948   87.6139 C   0  0  0  0  0  0  0  0  0  0  0  0
   66.7349   80.1267   88.8281 C   0  0  0  0  0  0  0  0  0  0  0  0
   66.1045   79.1126   89.5843 C   0  0  0  0  0  0  0  0  0  0  0  0
   66.1432   77.7720   89.1666 C   0  0  0  0  0  0  0  0  0  0  0  0
   66.8267   77.4763   87.9883 C   0  0  0  0  0  0  0  0  0  0  0  0
   68.4268   78.4295   85.4017 H   0  0  0  0  0  0  0  0  0  0  0  0
   66.6927   81.4377   89.3205 O   0  0  0  0  0  0  0  0  0  0  0  0
   67.4777   82.5150   88.8190 C   0  0  0  0  0  0  0  0  0  0  0  0
   68.7165   82.6416   89.6546 C   0  0  0  0  0  0  0  0  0  0  0  0
   68.6264   83.1183   90.9722 C   0  0  0  0  0  0  0  0  0  0  0  0
   69.7654   83.1778   91.7801 C   0  0  0  0  0  0  0  0  0  0  0  0
   70.9998   82.7532   91.2801 C   0  0  0  0  0  0  0  0  0  0  0  0
   71.0957   82.2692   89.9725 C   0  0  0  0  0  0  0  0  0  0  0  0
   69.9580   82.2060   89.1624 C   0  0  0  0  0  0  0  0  0  0  0  0
   68.4866   72.9791   90.8147 O   0  0  0  0  0  0  0  0  0  0  0  0
   68.7242   74.2116   90.6938 C   0  0  0  0  0  0  0  0  0  0  0  0
   68.0268   74.9841   89.7161 N   0  0  0  0  0  0  0  0  0  0  0  0
   68.2193   75.9457   89.6289 H   0  0  0  0  0  0  0  0  0  0  0  0
   69.7410   74.8677   91.5727 C   0  0  0  0  0  0  0  0  0  0  0  0
   69.1512   75.9995   92.2119 O   0  0  0  0  0  0  0  0  0  0  0  0
   68.0334   75.8899   93.0457 C   0  0  0  0  0  0  0  0  0  0  0  0
   67.7827   74.6592   93.6648 C   0  0  0  0  0  0  0  0  0  0  0  0
   66.6756   74.4932   94.4968 C   0  0  0  0  0  0  0  0  0  0  0  0
   65.7971   75.5540   94.7166 C   0  0  0  0  0  0  0  0  0  0  0  0
   66.0316   76.8006   94.1163 C   0  0  0  0  0  0  0  0  0  0  0  0
   65.1533   77.8719   94.3441 C   0  0  0  0  0  0  0  0  0  0  0  0
   65.3998   79.1180   93.7646 C   0  0  0  0  0  0  0  0  0  0  0  0
   66.5303   79.3095   92.9683 C   0  0  0  0  0  0  0  0  0  0  0  0
   67.4142   78.2532   92.7324 C   0  0  0  0  0  0  0  0  0  0  0  0
   67.1673   76.9820   93.2830 C   0  0  0  0  0  0  0  0  0  0  0  0
 21 22  2  0  0  0
 22 25  1  0  0  0
 25 26  1  0  0  0
 26 27  1  0  0  0
 27 28  2  0  0  0
 28 29  1  0  0  0
 29 30  2  0  0  0
 30 31  1  0  0  0
 31 32  2  0  0  0
 32 33  1  0  0  0
 33 34  2  0  0  0
 34 35  1  0  0  0
 35 36  2  0  0  0
 22 23  1  0  0  0
 23  1  1  0  0  0
  1  2  2  0  0  0
  2  3  1  0  0  0
  3  4  2  0  0  0
  4  5  1  0  0  0
  5  6  1  0  0  0
  6  7  2  0  0  0
  7  8  1  0  0  0
  8 13  1  0  0  0
 13 14  1  0  0  0
 14 15  1  0  0  0
 15 16  2  0  0  0
 16 17  1  0  0  0
 17 18  2  0  0  0
 18 19  1  0  0  0
 19 20  2  0  0  0
  8  9  2  0  0  0
  9 10  1  0  0  0
 10 11  2  0  0  0
 36 27  1  0  0  0
 11  3  1  0  0  0
 36 31  1  0  0  0
 11  6  1  0  0  0
 20 15  1  0  0  0
 23 24  1  0  0  0
  5 12  1  0  0  0
M  END
> <score>
0.769153

> <minimizedAffinity>
-7.65724

> <CNNscore>
0.5084188581

> <CNNaffinity>
7.2533082962

> <CNN_VS>
3.6877186298

$$$$
HIPS6933


 36 40  0  0  0  0  0  0  0  0999 V2000
   67.5021   74.8898   89.5507 N   0  0  0  0  0  0  0  0  0  0  0  0
   66.9419   75.2012   88.4187 C   0  0  0  0  0  0  0  0  0  0  0  0
   67.1484   76.5002   87.7545 C   0  0  0  0  0  0  0  0  0  0  0  0
   67.6193   76.6961   86.4618 C   0  0  0  0  0  0  0  0  0  0  0  0
   67.7158   78.0185   86.1923 N   0  0  0  0  0  0  0  0  0  0  0  0
   67.2944   78.6568   87.2995 C   0  0  0  0  0  0  0  0  0  0  0  0
   67.2165   80.0338   87.5022 C   0  0  0  0  0  0  0  0  0  0  0  0
   66.7279   80.4967   88.7491 C   0  0  0  0  0  0  0  0  0  0  0  0
   66.3072   79.5652   89.7254 C   0  0  0  0  0  0  0  0  0  0  0  0
   66.3989   78.1833   89.4904 C   0  0  0  0  0  0  0  0  0  0  0  0
   66.9221   77.7636   88.2685 C   0  0  0  0  0  0  0  0  0  0  0  0
   68.0307   78.4305   85.3554 H   0  0  0  0  0  0  0  0  0  0  0  0
   66.6465   81.8600   89.0617 O   0  0  0  0  0  0  0  0  0  0  0  0
   67.6755   82.6041   89.7066 C   0  0  0  0  0  0  0  0  0  0  0  0
   68.5107   83.2819   88.6616 C   0  0  0  0  0  0  0  0  0  0  0  0
   69.8773   82.9789   88.5528 C   0  0  0  0  0  0  0  0  0  0  0  0
   70.6492   83.5559   87.5404 C   0  0  0  0  0  0  0  0  0  0  0  0
   70.0590   84.4321   86.6250 C   0  0  0  0  0  0  0  0  0  0  0  0
   68.6973   84.7318   86.7216 C   0  0  0  0  0  0  0  0  0  0  0  0
   67.9217   84.1544   87.7315 C   0  0  0  0  0  0  0  0  0  0  0  0
   69.3069   73.9177   91.4362 O   0  0  0  0  0  0  0  0  0  0  0  0
   69.3595   75.1450   91.1514 C   0  0  0  0  0  0  0  0  0  0  0  0
   68.4584   75.6979   90.1915 N   0  0  0  0  0  0  0  0  0  0  0  0
   68.5073   76.6571   89.9754 H   0  0  0  0  0  0  0  0  0  0  0  0
   70.3694   76.0251   91.8162 C   0  0  0  0  0  0  0  0  0  0  0  0
   69.9225   76.3432   93.1341 O   0  0  0  0  0  0  0  0  0  0  0  0
   68.5698   76.5210   93.4430 C   0  0  0  0  0  0  0  0  0  0  0  0
   67.9002   77.6207   92.8926 C   0  0  0  0  0  0  0  0  0  0  0  0
   66.5542   77.8503   93.1775 C   0  0  0  0  0  0  0  0  0  0  0  0
   65.8586   76.9872   94.0240 C   0  0  0  0  0  0  0  0  0  0  0  0
   66.5039   75.8720   94.5801 C   0  0  0  0  0  0  0  0  0  0  0  0
   65.8023   74.9972   95.4250 C   0  0  0  0  0  0  0  0  0  0  0  0
   66.4389   73.8755   95.9597 C   0  0  0  0  0  0  0  0  0  0  0  0
   67.7724   73.6091   95.6439 C   0  0  0  0  0  0  0  0  0  0  0  0
   68.4840   74.4700   94.8042 C   0  0  0  0  0  0  0  0  0  0  0  0
   67.8691   75.6217   94.2793 C   0  0  0  0  0  0  0  0  0  0  0  0
 21 22  2  0  0  0
 22 25  1  0  0  0
 25 26  1  0  0  0
 26 27  1  0  0  0
 27 28  2  0  0  0
 28 29  1  0  0  0
 29 30  2  0  0  0
 30 31  1  0  0  0
 31 32  2  0  0  0
 32 33  1  0  0  0
 33 34  2  0  0  0
 34 35  1  0  0  0
 35 36  2  0  0  0
 22 23  1  0  0  0
 23  1  1  0  0  0
  1  2  2  0  0  0
  2  3  1  0  0  0
  3  4  2  0  0  0
  4  5  1  0  0  0
  5  6  1  0  0  0
  6  7  2  0  0  0
  7  8  1  0  0  0
  8 13  1  0  0  0
 13 14  1  0  0  0
 14 15  1  0  0  0
 15 16  2  0  0  0
 16 17  1  0  0  0
 17 18  2  0  0  0
 18 19  1  0  0  0
 19 20  2  0  0  0
  8  9  2  0  0  0
  9 10  1  0  0  0
 10 11  2  0  0  0
 36 27  1  0  0  0
 11  3  1  0  0  0
 36 31  1  0  0  0
 11  6  1  0  0  0
 20 15  1  0  0  0
 23 24  1  0  0  0
  5 12  1  0  0  0
M  END
> <score>
0.769153

> <minimizedAffinity>
-8.58557

> <CNNscore>
0.4948227704

> <CNNaffinity>
6.9643573761

> <CNN_VS>
3.4461226463

$$$$
HIPS6968


 25 27  0  0  0  0  0  0  0  0999 V2000
   71.0864   80.9465   89.8030 O   0  0  0  0  0  0  0  0  0  0  0  0
   70.0843   77.0420   91.0802 C   0  0  0  0  0  0  0  0  0  0  0  0
   69.0773   77.9127   90.6287 C   0  0  0  0  0  0  0  0  0  0  0  0
   69.3878   79.2055   90.2028 C   0  0  0  0  0  0  0  0  0  0  0  0
   70.7175   79.6583   90.2238 C   0  0  0  0  0  0  0  0  0  0  0  0
   71.7208   78.8016   90.6852 C   0  0  0  0  0  0  0  0  0  0  0  0
   71.4196   77.5104   91.1353 C   0  0  0  0  0  0  0  0  0  0  0  0
   72.4632   76.7450   91.6597 O   0  0  0  0  0  0  0  0  0  0  0  0
   73.3340   77.0904   91.6786 H   0  0  0  0  0  0  0  0  0  0  0  0
   70.4345   75.0003   92.2421 O   0  0  0  0  0  0  0  0  0  0  0  0
   69.7138   75.6567   91.4426 C   0  0  0  0  0  0  0  0  0  0  0  0
   68.5406   75.0866   90.9570 O   0  0  0  0  0  0  0  0  0  0  0  0
   67.9979   75.5661   90.3624 H   0  0  0  0  0  0  0  0  0  0  0  0
   71.5884   81.9796   90.6520 C   0  0  0  0  0  0  0  0  0  0  0  0
   70.5542   83.0551   90.8595 C   0  0  0  0  0  0  0  0  0  0  0  0
   70.0478   83.7735   89.7667 C   0  0  0  0  0  0  0  0  0  0  0  0
   69.0999   84.7783   89.9653 C   0  0  0  0  0  0  0  0  0  0  0  0
   68.6545   85.0806   91.2541 C   0  0  0  0  0  0  0  0  0  0  0  0
   69.1576   84.3804   92.3659 C   0  0  0  0  0  0  0  0  0  0  0  0
   70.1171   83.3720   92.1560 C   0  0  0  0  0  0  0  0  0  0  0  0
   68.6840   84.6992   93.7369 C   0  0  0  0  0  0  0  0  0  0  0  0
   68.0639   83.7618   94.5856 C   0  0  0  0  0  0  0  0  0  0  0  0
   67.7018   84.2776   95.8214 C   0  0  0  0  0  0  0  0  0  0  0  0
   68.1494   85.8944   95.8647 S   0  0  0  0  0  0  0  0  0  0  0  0
   68.8038   85.9613   94.3193 C   0  0  0  0  0  0  0  0  0  0  0  0
 10 11  2  0  0  0
 11 12  1  0  0  0
 11  2  1  0  0  0
  2  3  2  0  0  0
  3  4  1  0  0  0
  4  5  2  0  0  0
  5  1  1  0  0  0
  1 14  1  0  0  0
 14 15  1  0  0  0
 15 16  2  0  0  0
 16 17  1  0  0  0
 17 18  2  0  0  0
 18 19  1  0  0  0
 19 21  1  0  0  0
 21 22  1  0  0  0
 22 23  2  0  0  0
 23 24  1  0  0  0
 24 25  1  0  0  0
 19 20  2  0  0  0
  5  6  1  0  0  0
  6  7  2  0  0  0
  7  8  1  0  0  0
  7  2  1  0  0  0
 20 15  1  0  0  0
 25 21  2  0  0  0
 12 13  1  0  0  0
  8  9  1  0  0  0
M  END
> <score>
-0.059906

> <minimizedAffinity>
-6.27294

> <CNNscore>
0.7391464114

> <CNNaffinity>
5.3327836990

> <CNN_VS>
3.9417078495

$$$$
HIPS6968


 25 27  0  0  0  0  0  0  0  0999 V2000
   66.4676   80.0075   90.4395 O   0  0  0  0  0  0  0  0  0  0  0  0
   69.4178   77.2422   91.6764 C   0  0  0  0  0  0  0  0  0  0  0  0
   69.5918   77.9680   90.4852 C   0  0  0  0  0  0  0  0  0  0  0  0
   68.6295   78.8856   90.0598 C   0  0  0  0  0  0  0  0  0  0  0  0
   67.4653   79.0944   90.8181 C   0  0  0  0  0  0  0  0  0  0  0  0
   67.2806   78.3649   91.9959 C   0  0  0  0  0  0  0  0  0  0  0  0
   68.2280   77.4262   92.4221 C   0  0  0  0  0  0  0  0  0  0  0  0
   67.9330   76.6770   93.5629 O   0  0  0  0  0  0  0  0  0  0  0  0
   67.1346   76.8285   94.0294 H   0  0  0  0  0  0  0  0  0  0  0  0
   71.7034   76.7283   92.0682 O   0  0  0  0  0  0  0  0  0  0  0  0
   70.5040   76.3437   92.1243 C   0  0  0  0  0  0  0  0  0  0  0  0
   70.2130   75.0954   92.6666 O   0  0  0  0  0  0  0  0  0  0  0  0
   69.3249   74.8002   92.7130 H   0  0  0  0  0  0  0  0  0  0  0  0
   66.1300   81.2012   91.1475 C   0  0  0  0  0  0  0  0  0  0  0  0
   67.3590   82.0263   91.4271 C   0  0  0  0  0  0  0  0  0  0  0  0
   67.6279   82.4818   92.7259 C   0  0  0  0  0  0  0  0  0  0  0  0
   68.7605   83.2575   92.9776 C   0  0  0  0  0  0  0  0  0  0  0  0
   69.6299   83.5918   91.9368 C   0  0  0  0  0  0  0  0  0  0  0  0
   69.3732   83.1553   90.6241 C   0  0  0  0  0  0  0  0  0  0  0  0
   68.2257   82.3775   90.3793 C   0  0  0  0  0  0  0  0  0  0  0  0
   70.2972   83.5083   89.5164 C   0  0  0  0  0  0  0  0  0  0  0  0
   71.6982   83.5516   89.6533 C   0  0  0  0  0  0  0  0  0  0  0  0
   72.3648   83.9060   88.4894 C   0  0  0  0  0  0  0  0  0  0  0  0
   71.2202   84.1656   87.2899 S   0  0  0  0  0  0  0  0  0  0  0  0
   69.8681   83.8355   88.2299 C   0  0  0  0  0  0  0  0  0  0  0  0
 10 11  2  0  0  0
 11 12  1  0  0  0
 11  2  1  0  0  0
  2  3  2  0  0  0
  3  4  1  0  0  0
  4  5  2  0  0  0
  5  1  1  0  0  0
  1 14  1  0  0  0
 14 15  1  0  0  0
 15 16  2  0  0  0
 16 17  1  0  0  0
 17 18  2  0  0  0
 18 19  1  0  0  0
 19 21  1  0  0  0
 21 22  1  0  0  0
 22 23  2  0  0  0
 23 24  1  0  0  0
 24 25  1  0  0  0
 19 20  2  0  0  0
  5  6  1  0  0  0
  6  7  2  0  0  0
  7  8  1  0  0  0
  7  2  1  0  0  0
 20 15  1  0  0  0
 25 21  2  0  0  0
 12 13  1  0  0  0
  8  9  1  0  0  0
M  END
> <score>
-0.059906

> <minimizedAffinity>
-6.22130

> <CNNscore>
0.7295868397

> <CNNaffinity>
5.6411495209

> <CNN_VS>
4.1157083511

$$$$
HIPS6968


 25 27  0  0  0  0  0  0  0  0999 V2000
   67.5662   78.9193   90.1653 O   0  0  0  0  0  0  0  0  0  0  0  0
   68.6988   76.6107   93.5221 C   0  0  0  0  0  0  0  0  0  0  0  0
   67.4853   77.3199   93.5354 C   0  0  0  0  0  0  0  0  0  0  0  0
   67.0935   78.0876   92.4371 C   0  0  0  0  0  0  0  0  0  0  0  0
   67.9132   78.1661   91.2988 C   0  0  0  0  0  0  0  0  0  0  0  0
   69.1276   77.4743   91.2859 C   0  0  0  0  0  0  0  0  0  0  0  0
   69.5419   76.7185   92.3893 C   0  0  0  0  0  0  0  0  0  0  0  0
   70.8049   76.1255   92.3336 O   0  0  0  0  0  0  0  0  0  0  0  0
   71.3332   76.2197   91.5656 H   0  0  0  0  0  0  0  0  0  0  0  0
   68.2654   74.7934   94.9887 O   0  0  0  0  0  0  0  0  0  0  0  0
   69.0284   75.7475   94.6771 C   0  0  0  0  0  0  0  0  0  0  0  0
   70.2077   75.9386   95.3912 O   0  0  0  0  0  0  0  0  0  0  0  0
   70.7816   76.6447   95.1675 H   0  0  0  0  0  0  0  0  0  0  0  0
   66.8650   80.1635   90.1844 C   0  0  0  0  0  0  0  0  0  0  0  0
   67.7127   81.2492   90.7942 C   0  0  0  0  0  0  0  0  0  0  0  0
   67.3206   81.8693   91.9894 C   0  0  0  0  0  0  0  0  0  0  0  0
   68.1022   82.8841   92.5434 C   0  0  0  0  0  0  0  0  0  0  0  0
   69.2761   83.2946   91.9076 C   0  0  0  0  0  0  0  0  0  0  0  0
   69.6824   82.6944   90.7017 C   0  0  0  0  0  0  0  0  0  0  0  0
   68.8848   81.6750   90.1481 C   0  0  0  0  0  0  0  0  0  0  0  0
   70.9311   83.1283   90.0251 C   0  0  0  0  0  0  0  0  0  0  0  0
   72.2073   82.6275   90.3474 C   0  0  0  0  0  0  0  0  0  0  0  0
   73.2323   83.1740   89.5890 C   0  0  0  0  0  0  0  0  0  0  0  0
   72.5593   84.2773   88.5184 S   0  0  0  0  0  0  0  0  0  0  0  0
   70.9639   84.0785   89.0041 C   0  0  0  0  0  0  0  0  0  0  0  0
 10 11  2  0  0  0
 11 12  1  0  0  0
 11  2  1  0  0  0
  2  3  2  0  0  0
  3  4  1  0  0  0
  4  5  2  0  0  0
  5  1  1  0  0  0
  1 14  1  0  0  0
 14 15  1  0  0  0
 15 16  2  0  0  0
 16 17  1  0  0  0
 17 18  2  0  0  0
 18 19  1  0  0  0
 19 21  1  0  0  0
 21 22  1  0  0  0
 22 23  2  0  0  0
 23 24  1  0  0  0
 24 25  1  0  0  0
 19 20  2  0  0  0
  5  6  1  0  0  0
  6  7  2  0  0  0
  7  8  1  0  0  0
  7  2  1  0  0  0
 20 15  1  0  0  0
 25 21  2  0  0  0
 12 13  1  0  0  0
  8  9  1  0  0  0
M  END
> <score>
-0.059906

> <minimizedAffinity>
-6.86222

> <CNNscore>
0.6550847292

> <CNNaffinity>
5.4250745773

> <CNN_VS>
3.5538835526

$$$$
HIPS6969


 27 29  0  0  0  0  0  0  0  0999 V2000
   68.3582   79.1673   89.3360 C   0  0  0  0  0  0  0  0  0  0  0  0
   68.1246   80.5278   89.6017 C   0  0  0  0  0  0  0  0  0  0  0  0
   67.3056   81.2941   88.7654 C   0  0  0  0  0  0  0  0  0  0  0  0
   66.7172   80.6895   87.6394 C   0  0  0  0  0  0  0  0  0  0  0  0
   66.9402   79.3379   87.3696 C   0  0  0  0  0  0  0  0  0  0  0  0
   67.7521   78.5698   88.2142 C   0  0  0  0  0  0  0  0  0  0  0  0
   67.9546   77.2169   87.9430 O   0  0  0  0  0  0  0  0  0  0  0  0
   67.5494   76.8231   87.1955 H   0  0  0  0  0  0  0  0  0  0  0  0
   69.2547   78.3683   90.2523 C   0  0  0  0  0  0  0  0  0  0  0  0
   70.6881   78.9229   90.3289 C   0  0  0  0  0  0  0  0  0  0  0  0
   71.7742   77.8326   90.3621 C   0  0  0  0  0  0  0  0  0  0  0  0
   72.6817   77.4981   92.5532 O   0  0  0  0  0  0  0  0  0  0  0  0
   71.8416   77.1340   91.6871 C   0  0  0  0  0  0  0  0  0  0  0  0
   70.9943   76.0635   91.9521 O   0  0  0  0  0  0  0  0  0  0  0  0
   70.3688   75.7909   91.3099 H   0  0  0  0  0  0  0  0  0  0  0  0
   67.1050   82.6467   89.0896 O   0  0  0  0  0  0  0  0  0  0  0  0
   67.9987   83.4454   89.8689 C   0  0  0  0  0  0  0  0  0  0  0  0
   69.0971   84.0632   89.0198 C   0  0  0  0  0  0  0  0  0  0  0  0
   68.7354   84.9307   87.9705 C   0  0  0  0  0  0  0  0  0  0  0  0
   69.7037   85.5509   87.1841 C   0  0  0  0  0  0  0  0  0  0  0  0
   71.0543   85.3016   87.4064 C   0  0  0  0  0  0  0  0  0  0  0  0
   71.4509   84.4002   88.4022 C   0  0  0  0  0  0  0  0  0  0  0  0
   72.8153   84.1288   88.5912 C   0  0  0  0  0  0  0  0  0  0  0  0
   73.2227   83.2081   89.5555 C   0  0  0  0  0  0  0  0  0  0  0  0
   72.2754   82.5433   90.3317 C   0  0  0  0  0  0  0  0  0  0  0  0
   70.9135   82.8038   90.1611 C   0  0  0  0  0  0  0  0  0  0  0  0
   70.4738   83.7509   89.2083 C   0  0  0  0  0  0  0  0  0  0  0  0
 12 13  2  0  0  0
 13 14  1  0  0  0
 13 11  1  0  0  0
 11 10  1  0  0  0
 10  9  1  0  0  0
  9  1  1  0  0  0
  1  2  2  0  0  0
  2  3  1  0  0  0
  3 16  1  0  0  0
 16 17  1  0  0  0
 17 18  1  0  0  0
 18 19  2  0  0  0
 19 20  1  0  0  0
 20 21  2  0  0  0
 21 22  1  0  0  0
 22 23  2  0  0  0
 23 24  1  0  0  0
 24 25  2  0  0  0
 25 26  1  0  0  0
 26 27  2  0  0  0
  3  4  2  0  0  0
  4  5  1  0  0  0
  5  6  2  0  0  0
  6  7  1  0  0  0
  6  1  1  0  0  0
 27 18  1  0  0  0
 27 22  1  0  0  0
 14 15  1  0  0  0
  7  8  1  0  0  0
M  END
> <score>
0.804191

> <minimizedAffinity>
-7.85745

> <CNNscore>
0.8037313819

> <CNNaffinity>
6.1258974075

> <CNN_VS>
4.9235758781

$$$$
HIPS6969


 27 29  0  0  0  0  0  0  0  0999 V2000
   68.0130   77.1351   89.4018 C   0  0  0  0  0  0  0  0  0  0  0  0
   68.1687   78.5276   89.2896 C   0  0  0  0  0  0  0  0  0  0  0  0
   67.5886   79.2337   88.2301 C   0  0  0  0  0  0  0  0  0  0  0  0
   66.8469   78.5318   87.2623 C   0  0  0  0  0  0  0  0  0  0  0  0
   66.6834   77.1492   87.3674 C   0  0  0  0  0  0  0  0  0  0  0  0
   67.2562   76.4458   88.4348 C   0  0  0  0  0  0  0  0  0  0  0  0
   67.0726   75.0671   88.5377 O   0  0  0  0  0  0  0  0  0  0  0  0
   66.5684   74.6121   87.8922 H   0  0  0  0  0  0  0  0  0  0  0  0
   68.6590   76.3993   90.5520 C   0  0  0  0  0  0  0  0  0  0  0  0
   67.8610   76.5087   91.8632 C   0  0  0  0  0  0  0  0  0  0  0  0
   68.7426   76.6774   93.1138 C   0  0  0  0  0  0  0  0  0  0  0  0
   71.1103   76.7014   92.7538 O   0  0  0  0  0  0  0  0  0  0  0  0
   70.0775   76.0108   92.9653 C   0  0  0  0  0  0  0  0  0  0  0  0
   70.1736   74.6250   93.0333 O   0  0  0  0  0  0  0  0  0  0  0  0
   69.4072   74.1094   93.1904 H   0  0  0  0  0  0  0  0  0  0  0  0
   67.7743   80.6257   88.1786 O   0  0  0  0  0  0  0  0  0  0  0  0
   68.0458   81.4600   89.3073 C   0  0  0  0  0  0  0  0  0  0  0  0
   69.4210   82.1012   89.2231 C   0  0  0  0  0  0  0  0  0  0  0  0
   70.4383   81.6376   90.0801 C   0  0  0  0  0  0  0  0  0  0  0  0
   71.7257   82.1666   90.0200 C   0  0  0  0  0  0  0  0  0  0  0  0
   72.0241   83.1880   89.1237 C   0  0  0  0  0  0  0  0  0  0  0  0
   71.0246   83.7151   88.2963 C   0  0  0  0  0  0  0  0  0  0  0  0
   71.3299   84.7712   87.4231 C   0  0  0  0  0  0  0  0  0  0  0  0
   70.3372   85.3286   86.6186 C   0  0  0  0  0  0  0  0  0  0  0  0
   69.0315   84.8462   86.6841 C   0  0  0  0  0  0  0  0  0  0  0  0
   68.7098   83.7927   87.5436 C   0  0  0  0  0  0  0  0  0  0  0  0
   69.7019   83.1923   88.3519 C   0  0  0  0  0  0  0  0  0  0  0  0
 12 13  2  0  0  0
 13 14  1  0  0  0
 13 11  1  0  0  0
 11 10  1  0  0  0
 10  9  1  0  0  0
  9  1  1  0  0  0
  1  2  2  0  0  0
  2  3  1  0  0  0
  3 16  1  0  0  0
 16 17  1  0  0  0
 17 18  1  0  0  0
 18 19  2  0  0  0
 19 20  1  0  0  0
 20 21  2  0  0  0
 21 22  1  0  0  0
 22 23  2  0  0  0
 23 24  1  0  0  0
 24 25  2  0  0  0
 25 26  1  0  0  0
 26 27  2  0  0  0
  3  4  2  0  0  0
  4  5  1  0  0  0
  5  6  2  0  0  0
  6  7  1  0  0  0
  6  1  1  0  0  0
 27 18  1  0  0  0
 27 22  1  0  0  0
 14 15  1  0  0  0
  7  8  1  0  0  0
M  END
> <score>
0.804191

> <minimizedAffinity>
-7.44858

> <CNNscore>
0.7800289989

> <CNNaffinity>
5.9960536957

> <CNN_VS>
4.6770958900

$$$$
HIPS6969


 27 29  0  0  0  0  0  0  0  0999 V2000
   69.1269   77.0606   91.4276 C   0  0  0  0  0  0  0  0  0  0  0  0
   68.8369   78.2755   90.7826 C   0  0  0  0  0  0  0  0  0  0  0  0
   69.8562   79.0565   90.2270 C   0  0  0  0  0  0  0  0  0  0  0  0
   71.1891   78.6172   90.3264 C   0  0  0  0  0  0  0  0  0  0  0  0
   71.4864   77.4100   90.9618 C   0  0  0  0  0  0  0  0  0  0  0  0
   70.4634   76.6244   91.5081 C   0  0  0  0  0  0  0  0  0  0  0  0
   70.7713   75.4128   92.1263 O   0  0  0  0  0  0  0  0  0  0  0  0
   71.6619   75.1261   92.1778 H   0  0  0  0  0  0  0  0  0  0  0  0
   68.0058   76.2438   92.0258 C   0  0  0  0  0  0  0  0  0  0  0  0
   67.6698   76.6476   93.4723 C   0  0  0  0  0  0  0  0  0  0  0  0
   67.7987   75.4947   94.4840 C   0  0  0  0  0  0  0  0  0  0  0  0
   69.6274   74.0875   95.1258 O   0  0  0  0  0  0  0  0  0  0  0  0
   69.2190   75.2588   94.9029 C   0  0  0  0  0  0  0  0  0  0  0  0
   70.0814   76.3365   95.0731 O   0  0  0  0  0  0  0  0  0  0  0  0
   69.7801   77.2083   94.9081 H   0  0  0  0  0  0  0  0  0  0  0  0
   69.5005   80.2567   89.5884 O   0  0  0  0  0  0  0  0  0  0  0  0
   69.5225   81.5493   90.1988 C   0  0  0  0  0  0  0  0  0  0  0  0
   70.6765   82.3981   89.6918 C   0  0  0  0  0  0  0  0  0  0  0  0
   71.9369   82.2652   90.3069 C   0  0  0  0  0  0  0  0  0  0  0  0
   73.0364   82.9937   89.8584 C   0  0  0  0  0  0  0  0  0  0  0  0
   72.9013   83.8916   88.8043 C   0  0  0  0  0  0  0  0  0  0  0  0
   71.6514   84.0941   88.2057 C   0  0  0  0  0  0  0  0  0  0  0  0
   71.5210   85.0307   87.1680 C   0  0  0  0  0  0  0  0  0  0  0  0
   70.2764   85.2677   86.5861 C   0  0  0  0  0  0  0  0  0  0  0  0
   69.1510   84.5820   87.0392 C   0  0  0  0  0  0  0  0  0  0  0  0
   69.2622   83.6430   88.0676 C   0  0  0  0  0  0  0  0  0  0  0  0
   70.5160   83.3647   88.6581 C   0  0  0  0  0  0  0  0  0  0  0  0
 12 13  2  0  0  0
 13 14  1  0  0  0
 13 11  1  0  0  0
 11 10  1  0  0  0
 10  9  1  0  0  0
  9  1  1  0  0  0
  1  2  2  0  0  0
  2  3  1  0  0  0
  3 16  1  0  0  0
 16 17  1  0  0  0
 17 18  1  0  0  0
 18 19  2  0  0  0
 19 20  1  0  0  0
 20 21  2  0  0  0
 21 22  1  0  0  0
 22 23  2  0  0  0
 23 24  1  0  0  0
 24 25  2  0  0  0
 25 26  1  0  0  0
 26 27  2  0  0  0
  3  4  2  0  0  0
  4  5  1  0  0  0
  5  6  2  0  0  0
  6  7  1  0  0  0
  6  1  1  0  0  0
 27 18  1  0  0  0
 27 22  1  0  0  0
 14 15  1  0  0  0
  7  8  1  0  0  0
M  END
> <score>
0.804191

> <minimizedAffinity>
-8.40930

> <CNNscore>
0.7436264753

> <CNNaffinity>
5.7348117828

> <CNN_VS>
4.2645578384

$$$$
HIPS6978


 35 40  0  0  0  0  0  0  0  0999 V2000
   67.5946   74.9643   89.2485 C   0  0  0  0  0  0  0  0  0  0  0  0
   66.7760   74.0337   88.5411 C   0  0  0  0  0  0  0  0  0  0  0  0
   67.0214   72.8070   88.9633 N   0  0  0  0  0  0  0  0  0  0  0  0
   67.9563   72.8095   89.9191 C   0  0  0  0  0  0  0  0  0  0  0  0
   68.5302   71.7770   90.6501 C   0  0  0  0  0  0  0  0  0  0  0  0
   69.4865   72.0418   91.5913 C   0  0  0  0  0  0  0  0  0  0  0  0
   69.8416   73.3466   91.7725 C   0  0  0  0  0  0  0  0  0  0  0  0
   69.2617   74.3804   91.0351 C   0  0  0  0  0  0  0  0  0  0  0  0
   68.2996   74.1467   90.0837 C   0  0  0  0  0  0  0  0  0  0  0  0
   66.5758   71.9988   88.6203 H   0  0  0  0  0  0  0  0  0  0  0  0
   67.1939   77.3007   89.6666 N   0  0  0  0  0  0  0  0  0  0  0  0
   67.5231   76.3646   88.9797 C   0  0  0  0  0  0  0  0  0  0  0  0
   68.8722   77.4547   91.7534 O   0  0  0  0  0  0  0  0  0  0  0  0
   67.6630   77.5365   92.0453 C   0  0  0  0  0  0  0  0  0  0  0  0
   66.7785   77.4497   90.8942 N   0  0  0  0  0  0  0  0  0  0  0  0
   65.8082   77.5068   91.0508 H   0  0  0  0  0  0  0  0  0  0  0  0
   67.1247   77.7044   93.3967 C   0  0  0  0  0  0  0  0  0  0  0  0
   66.9862   76.3991   94.1085 C   0  0  0  0  0  0  0  0  0  0  0  0
   68.2417   75.9432   94.7891 C   0  0  0  0  0  0  0  0  0  0  0  0
   68.0317   74.5606   95.3786 C   0  0  0  0  0  0  0  0  0  0  0  0
   67.7255   73.6136   94.2653 C   0  0  0  0  0  0  0  0  0  0  0  0
   66.4212   74.0494   93.6273 C   0  0  0  0  0  0  0  0  0  0  0  0
   65.2974   74.1090   94.6089 C   0  0  0  0  0  0  0  0  0  0  0  0
   65.6539   75.1095   95.7065 C   0  0  0  0  0  0  0  0  0  0  0  0
   66.9221   74.6689   96.3841 C   0  0  0  0  0  0  0  0  0  0  0  0
   65.7892   76.4531   95.0221 C   0  0  0  0  0  0  0  0  0  0  0  0
   66.6387   75.3838   93.0050 C   0  0  0  0  0  0  0  0  0  0  0  0
   70.0719   71.0191   92.3327 O   0  0  0  0  0  0  0  0  0  0  0  0
   70.6042   69.8675   91.7254 C   0  0  0  0  0  0  0  0  0  0  0  0
   72.0531   69.7904   92.0001 C   0  0  0  0  0  0  0  0  0  0  0  0
   72.6172   70.6827   92.8788 C   0  0  0  0  0  0  0  0  0  0  0  0
   73.9881   70.6267   93.1532 C   0  0  0  0  0  0  0  0  0  0  0  0
   74.7350   69.6583   92.5182 C   0  0  0  0  0  0  0  0  0  0  0  0
   74.1719   68.7607   91.6354 C   0  0  0  0  0  0  0  0  0  0  0  0
   72.8007   68.8258   91.3685 C   0  0  0  0  0  0  0  0  0  0  0  0
 13 14  2  0  0  0
 14 17  1  0  0  0
 18 17  1  0  0  0
 18 19  1  0  0  0
 20 19  1  0  0  0
 20 21  1  0  0  0
 22 21  1  0  0  0
 22 23  1  0  0  0
 24 23  1  0  0  0
 24 25  1  0  0  0
 24 26  1  0  0  0
 22 27  1  0  0  0
 14 15  1  0  0  0
 15 11  1  0  0  0
 11 12  2  0  0  0
 12  1  1  0  0  0
  1  2  2  0  0  0
  2  3  1  0  0  0
  3  4  1  0  0  0
  4  5  2  0  0  0
  5  6  1  0  0  0
  6 28  1  0  0  0
 28 29  1  0  0  0
 29 30  1  0  0  0
 30 31  2  0  0  0
 31 32  1  0  0  0
 32 33  2  0  0  0
 33 34  1  0  0  0
 34 35  2  0  0  0
  6  7  2  0  0  0
  7  8  1  0  0  0
  8  9  2  0  0  0
 26 18  1  0  0  0
  9  1  1  0  0  0
 27 18  1  0  0  0
  9  4  1  0  0  0
 25 20  1  0  0  0
 35 30  1  0  0  0
 15 16  1  0  0  0
  3 10  1  0  0  0
M  END
> <score>
0.877782

> <minimizedAffinity>
-8.22866

> <CNNscore>
0.4476665556

> <CNNaffinity>
6.5955848694

> <CNN_VS>
2.9526226521

$$$$
HIPS6978


 35 40  0  0  0  0  0  0  0  0999 V2000
   67.5373   76.8597   88.1606 C   0  0  0  0  0  0  0  0  0  0  0  0
   66.7467   75.7816   87.6615 C   0  0  0  0  0  0  0  0  0  0  0  0
   66.9034   74.7169   88.4265 N   0  0  0  0  0  0  0  0  0  0  0  0
   67.7497   74.9709   89.4299 C   0  0  0  0  0  0  0  0  0  0  0  0
   68.2141   74.1736   90.4684 C   0  0  0  0  0  0  0  0  0  0  0  0
   69.0937   74.6751   91.3877 C   0  0  0  0  0  0  0  0  0  0  0  0
   69.4848   75.9734   91.2361 C   0  0  0  0  0  0  0  0  0  0  0  0
   69.0151   76.7702   90.1905 C   0  0  0  0  0  0  0  0  0  0  0  0
   68.1318   76.2959   89.2523 C   0  0  0  0  0  0  0  0  0  0  0  0
   66.4570   73.8521   88.2779 H   0  0  0  0  0  0  0  0  0  0  0  0
   67.5537   79.2571   87.9456 N   0  0  0  0  0  0  0  0  0  0  0  0
   67.5473   78.1311   87.5113 C   0  0  0  0  0  0  0  0  0  0  0  0
   65.3301   80.2098   89.1046 O   0  0  0  0  0  0  0  0  0  0  0  0
   66.3662   80.3172   89.7894 C   0  0  0  0  0  0  0  0  0  0  0  0
   67.5543   79.7926   89.1351 N   0  0  0  0  0  0  0  0  0  0  0  0
   68.4102   79.8447   89.6188 H   0  0  0  0  0  0  0  0  0  0  0  0
   66.4424   80.9050   91.1285 C   0  0  0  0  0  0  0  0  0  0  0  0
   66.2331   79.8849   92.1986 C   0  0  0  0  0  0  0  0  0  0  0  0
   64.8017   79.7284   92.6158 C   0  0  0  0  0  0  0  0  0  0  0  0
   64.7108   78.7614   93.7818 C   0  0  0  0  0  0  0  0  0  0  0  0
   65.4791   79.3305   94.9289 C   0  0  0  0  0  0  0  0  0  0  0  0
   66.9346   79.4237   94.5152 C   0  0  0  0  0  0  0  0  0  0  0  0
   67.4938   78.1050   94.0932 C   0  0  0  0  0  0  0  0  0  0  0  0
   66.6880   77.5855   92.9041 C   0  0  0  0  0  0  0  0  0  0  0  0
   65.2468   77.4412   93.3086 C   0  0  0  0  0  0  0  0  0  0  0  0
   66.8881   78.5909   91.7900 C   0  0  0  0  0  0  0  0  0  0  0  0
   67.0333   80.4093   93.4044 C   0  0  0  0  0  0  0  0  0  0  0  0
   69.5690   73.8900   92.4346 O   0  0  0  0  0  0  0  0  0  0  0  0
   68.7679   72.9200   93.0635 C   0  0  0  0  0  0  0  0  0  0  0  0
   67.8250   73.5825   93.9868 C   0  0  0  0  0  0  0  0  0  0  0  0
   68.3162   74.2449   95.0852 C   0  0  0  0  0  0  0  0  0  0  0  0
   67.4401   74.8795   95.9724 C   0  0  0  0  0  0  0  0  0  0  0  0
   66.0899   74.8143   95.7045 C   0  0  0  0  0  0  0  0  0  0  0  0
   65.5932   74.1502   94.6026 C   0  0  0  0  0  0  0  0  0  0  0  0
   66.4780   73.5194   93.7224 C   0  0  0  0  0  0  0  0  0  0  0  0
 13 14  2  0  0  0
 14 17  1  0  0  0
 18 17  1  0  0  0
 18 19  1  0  0  0
 20 19  1  0  0  0
 20 21  1  0  0  0
 22 21  1  0  0  0
 22 23  1  0  0  0
 24 23  1  0  0  0
 24 25  1  0  0  0
 24 26  1  0  0  0
 22 27  1  0  0  0
 14 15  1  0  0  0
 15 11  1  0  0  0
 11 12  2  0  0  0
 12  1  1  0  0  0
  1  2  2  0  0  0
  2  3  1  0  0  0
  3  4  1  0  0  0
  4  5  2  0  0  0
  5  6  1  0  0  0
  6 28  1  0  0  0
 28 29  1  0  0  0
 29 30  1  0  0  0
 30 31  2  0  0  0
 31 32  1  0  0  0
 32 33  2  0  0  0
 33 34  1  0  0  0
 34 35  2  0  0  0
  6  7  2  0  0  0
  7  8  1  0  0  0
  8  9  2  0  0  0
 26 18  1  0  0  0
  9  1  1  0  0  0
 27 18  1  0  0  0
  9  4  1  0  0  0
 25 20  1  0  0  0
 35 30  1  0  0  0
 15 16  1  0  0  0
  3 10  1  0  0  0
M  END
> <score>
0.877782

> <minimizedAffinity>
-6.36834

> <CNNscore>
0.3476023376

> <CNNaffinity>
7.1067581177

> <CNN_VS>
2.4703257084

$$$$
HIPS6978


 35 40  0  0  0  0  0  0  0  0999 V2000
   71.5042   84.4747   88.5941 C   0  0  0  0  0  0  0  0  0  0  0  0
   72.8553   84.2656   89.0032 C   0  0  0  0  0  0  0  0  0  0  0  0
   72.9744   83.0810   89.5740 N   0  0  0  0  0  0  0  0  0  0  0  0
   71.8004   82.4415   89.5951 C   0  0  0  0  0  0  0  0  0  0  0  0
   71.4397   81.1923   90.0842 C   0  0  0  0  0  0  0  0  0  0  0  0
   70.1476   80.7552   89.9850 C   0  0  0  0  0  0  0  0  0  0  0  0
   69.2478   81.5924   89.3925 C   0  0  0  0  0  0  0  0  0  0  0  0
   69.6156   82.8468   88.9026 C   0  0  0  0  0  0  0  0  0  0  0  0
   70.9042   83.3135   88.9874 C   0  0  0  0  0  0  0  0  0  0  0  0
   73.8148   82.7174   89.9357 H   0  0  0  0  0  0  0  0  0  0  0  0
   70.2272   86.4744   88.1889 N   0  0  0  0  0  0  0  0  0  0  0  0
   71.1067   85.6839   87.9477 C   0  0  0  0  0  0  0  0  0  0  0  0
   70.3780   88.2113   90.2274 O   0  0  0  0  0  0  0  0  0  0  0  0
   69.3486   87.5085   90.2119 C   0  0  0  0  0  0  0  0  0  0  0  0
   69.2954   86.5773   89.0961 N   0  0  0  0  0  0  0  0  0  0  0  0
   68.5093   85.9894   89.0209 H   0  0  0  0  0  0  0  0  0  0  0  0
   68.2637   87.5689   91.1936 C   0  0  0  0  0  0  0  0  0  0  0  0
   68.2660   86.3838   92.1018 C   0  0  0  0  0  0  0  0  0  0  0  0
   69.0506   85.2191   91.5771 C   0  0  0  0  0  0  0  0  0  0  0  0
   68.8936   84.0332   92.5111 C   0  0  0  0  0  0  0  0  0  0  0  0
   67.4503   83.6522   92.5527 C   0  0  0  0  0  0  0  0  0  0  0  0
   66.6776   84.8147   93.1441 C   0  0  0  0  0  0  0  0  0  0  0  0
   67.1730   85.1989   94.4994 C   0  0  0  0  0  0  0  0  0  0  0  0
   68.6420   85.6031   94.3911 C   0  0  0  0  0  0  0  0  0  0  0  0
   69.4346   84.4456   93.8495 C   0  0  0  0  0  0  0  0  0  0  0  0
   68.6782   86.8157   93.4853 C   0  0  0  0  0  0  0  0  0  0  0  0
   66.7887   85.9641   92.2052 C   0  0  0  0  0  0  0  0  0  0  0  0
   69.7691   79.5063   90.4699 O   0  0  0  0  0  0  0  0  0  0  0  0
   68.5230   78.9319   90.1607 C   0  0  0  0  0  0  0  0  0  0  0  0
   67.6856   78.8872   91.3762 C   0  0  0  0  0  0  0  0  0  0  0  0
   67.6273   77.7261   92.1076 C   0  0  0  0  0  0  0  0  0  0  0  0
   66.8401   77.6625   93.2626 C   0  0  0  0  0  0  0  0  0  0  0  0
   66.1392   78.7907   93.6295 C   0  0  0  0  0  0  0  0  0  0  0  0
   66.1954   79.9583   92.8975 C   0  0  0  0  0  0  0  0  0  0  0  0
   66.9854   80.0106   91.7448 C   0  0  0  0  0  0  0  0  0  0  0  0
 13 14  2  0  0  0
 14 17  1  0  0  0
 18 17  1  0  0  0
 18 19  1  0  0  0
 20 19  1  0  0  0
 20 21  1  0  0  0
 22 21  1  0  0  0
 22 23  1  0  0  0
 24 23  1  0  0  0
 24 25  1  0  0  0
 24 26  1  0  0  0
 22 27  1  0  0  0
 14 15  1  0  0  0
 15 11  1  0  0  0
 11 12  2  0  0  0
 12  1  1  0  0  0
  1  2  2  0  0  0
  2  3  1  0  0  0
  3  4  1  0  0  0
  4  5  2  0  0  0
  5  6  1  0  0  0
  6 28  1  0  0  0
 28 29  1  0  0  0
 29 30  1  0  0  0
 30 31  2  0  0  0
 31 32  1  0  0  0
 32 33  2  0  0  0
 33 34  1  0  0  0
 34 35  2  0  0  0
  6  7  2  0  0  0
  7  8  1  0  0  0
  8  9  2  0  0  0
 26 18  1  0  0  0
  9  1  1  0  0  0
 27 18  1  0  0  0
  9  4  1  0  0  0
 25 20  1  0  0  0
 35 30  1  0  0  0
 15 16  1  0  0  0
  3 10  1  0  0  0
M  END
> <score>
0.877782

> <minimizedAffinity>
-7.20935

> <CNNscore>
0.2621986866

> <CNNaffinity>
6.8172788620

> <CNN_VS>
1.7874815464

$$$$
HIPS6980


 33 36  0  0  0  0  0  0  0  0999 V2000
   67.0568   79.6818   90.5145 C   0  0  0  0  0  0  0  0  0  0  0  0
   66.1600   79.8492   89.4479 C   0  0  0  0  0  0  0  0  0  0  0  0
   66.4649   80.7157   88.3955 C   0  0  0  0  0  0  0  0  0  0  0  0
   67.6675   81.4249   88.3951 C   0  0  0  0  0  0  0  0  0  0  0  0
   68.5789   81.2709   89.4531 C   0  0  0  0  0  0  0  0  0  0  0  0
   68.2592   80.4120   90.5203 C   0  0  0  0  0  0  0  0  0  0  0  0
   69.8777   81.9783   89.4299 C   0  0  0  0  0  0  0  0  0  0  0  0
   70.9229   81.5876   90.2797 C   0  0  0  0  0  0  0  0  0  0  0  0
   72.1385   82.2775   90.2644 C   0  0  0  0  0  0  0  0  0  0  0  0
   72.3176   83.3677   89.4077 C   0  0  0  0  0  0  0  0  0  0  0  0
   71.2909   83.7633   88.5451 C   0  0  0  0  0  0  0  0  0  0  0  0
   70.0679   83.0699   88.5666 C   0  0  0  0  0  0  0  0  0  0  0  0
   71.4951   84.8732   87.7119 O   0  0  0  0  0  0  0  0  0  0  0  0
   71.5585   86.2060   88.1520 C   0  0  0  0  0  0  0  0  0  0  0  0
   70.4067   86.9160   88.5349 C   0  0  0  0  0  0  0  0  0  0  0  0
   70.5249   88.2467   88.9422 C   0  0  0  0  0  0  0  0  0  0  0  0
   71.7444   88.8505   88.9628 N   0  0  0  0  0  0  0  0  0  0  0  0
   72.8731   88.1885   88.5904 C   0  0  0  0  0  0  0  0  0  0  0  0
   72.7970   86.8586   88.1686 C   0  0  0  0  0  0  0  0  0  0  0  0
   66.6717   78.7737   91.6587 C   0  0  0  0  0  0  0  0  0  0  0  0
   67.5548   77.6589   91.8055 O   0  0  0  0  0  0  0  0  0  0  0  0
   68.4131   74.6969   93.8628 C   0  0  0  0  0  0  0  0  0  0  0  0
   68.4798   75.7394   92.9203 C   0  0  0  0  0  0  0  0  0  0  0  0
   67.4080   76.6198   92.7384 C   0  0  0  0  0  0  0  0  0  0  0  0
   66.2385   76.4415   93.4955 C   0  0  0  0  0  0  0  0  0  0  0  0
   66.1410   75.3814   94.3991 C   0  0  0  0  0  0  0  0  0  0  0  0
   67.2084   74.4944   94.5756 C   0  0  0  0  0  0  0  0  0  0  0  0
   67.0219   73.4112   95.4367 O   0  0  0  0  0  0  0  0  0  0  0  0
   66.2096   73.3095   95.8925 H   0  0  0  0  0  0  0  0  0  0  0  0
   70.3441   73.4981   93.1625 O   0  0  0  0  0  0  0  0  0  0  0  0
   69.6281   73.8938   94.1237 C   0  0  0  0  0  0  0  0  0  0  0  0
   70.0277   73.6220   95.4305 O   0  0  0  0  0  0  0  0  0  0  0  0
   69.5029   73.9116   96.1507 H   0  0  0  0  0  0  0  0  0  0  0  0
 30 31  2  0  0  0
 31 32  1  0  0  0
 31 22  1  0  0  0
 22 23  2  0  0  0
 23 24  1  0  0  0
 24 21  1  0  0  0
 21 20  1  0  0  0
 20  1  1  0  0  0
  1  2  2  0  0  0
  2  3  1  0  0  0
  3  4  2  0  0  0
  4  5  1  0  0  0
  5  7  1  0  0  0
  7  8  2  0  0  0
  8  9  1  0  0  0
  9 10  2  0  0  0
 10 11  1  0  0  0
 11 13  1  0  0  0
 13 14  1  0  0  0
 14 15  2  0  0  0
 15 16  1  0  0  0
 16 17  2  0  0  0
 17 18  2  0  0  0
 18 19  2  0  0  0
 11 12  2  0  0  0
  5  6  2  0  0  0
 24 25  2  0  0  0
 25 26  1  0  0  0
 26 27  2  0  0  0
 27 28  1  0  0  0
 27 22  1  0  0  0
  6  1  1  0  0  0
 12  7  1  0  0  0
 19 14  1  0  0  0
 32 33  1  0  0  0
 28 29  1  0  0  0
M  END
> <score>
0.540856

> <minimizedAffinity>
-8.71770

> <CNNscore>
0.6240411997

> <CNNaffinity>
6.0857276917

> <CNN_VS>
3.7977447510

$$$$
HIPS6980


 33 36  0  0  0  0  0  0  0  0999 V2000
   68.7777   78.3455   90.6100 C   0  0  0  0  0  0  0  0  0  0  0  0
   69.7662   77.3586   90.7476 C   0  0  0  0  0  0  0  0  0  0  0  0
   71.1147   77.6773   90.5709 C   0  0  0  0  0  0  0  0  0  0  0  0
   71.4924   78.9837   90.2549 C   0  0  0  0  0  0  0  0  0  0  0  0
   70.5184   79.9861   90.1134 C   0  0  0  0  0  0  0  0  0  0  0  0
   69.1602   79.6567   90.2732 C   0  0  0  0  0  0  0  0  0  0  0  0
   70.9179   81.3824   89.8326 C   0  0  0  0  0  0  0  0  0  0  0  0
   72.2521   81.7900   89.9772 C   0  0  0  0  0  0  0  0  0  0  0  0
   72.6139   83.1174   89.7302 C   0  0  0  0  0  0  0  0  0  0  0  0
   71.6460   84.0500   89.3455 C   0  0  0  0  0  0  0  0  0  0  0  0
   70.3136   83.6586   89.1845 C   0  0  0  0  0  0  0  0  0  0  0  0
   69.9526   82.3235   89.4385 C   0  0  0  0  0  0  0  0  0  0  0  0
   69.3633   84.6225   88.8166 O   0  0  0  0  0  0  0  0  0  0  0  0
   69.3531   85.9527   89.2690 C   0  0  0  0  0  0  0  0  0  0  0  0
   69.8565   87.0062   88.4853 C   0  0  0  0  0  0  0  0  0  0  0  0
   69.8431   88.3069   88.9941 C   0  0  0  0  0  0  0  0  0  0  0  0
   69.3513   88.5494   90.2396 N   0  0  0  0  0  0  0  0  0  0  0  0
   68.8653   87.5473   91.0210 C   0  0  0  0  0  0  0  0  0  0  0  0
   68.8683   86.2310   90.5526 C   0  0  0  0  0  0  0  0  0  0  0  0
   67.3265   77.9536   90.7605 C   0  0  0  0  0  0  0  0  0  0  0  0
   66.8831   77.9733   92.1196 O   0  0  0  0  0  0  0  0  0  0  0  0
   67.8361   74.7482   93.6793 C   0  0  0  0  0  0  0  0  0  0  0  0
   67.8082   75.8711   92.8321 C   0  0  0  0  0  0  0  0  0  0  0  0
   66.8317   76.8623   92.9767 C   0  0  0  0  0  0  0  0  0  0  0  0
   65.8506   76.7179   93.9712 C   0  0  0  0  0  0  0  0  0  0  0  0
   65.8378   75.5844   94.7867 C   0  0  0  0  0  0  0  0  0  0  0  0
   66.8081   74.5876   94.6373 C   0  0  0  0  0  0  0  0  0  0  0  0
   66.6970   73.4440   95.4306 O   0  0  0  0  0  0  0  0  0  0  0  0
   66.0023   73.3728   96.0553 H   0  0  0  0  0  0  0  0  0  0  0  0
   70.1544   74.2568   93.4780 O   0  0  0  0  0  0  0  0  0  0  0  0
   68.9778   73.8119   93.5836 C   0  0  0  0  0  0  0  0  0  0  0  0
   68.7728   72.4367   93.6736 O   0  0  0  0  0  0  0  0  0  0  0  0
   67.9031   72.0969   93.7522 H   0  0  0  0  0  0  0  0  0  0  0  0
 30 31  2  0  0  0
 31 32  1  0  0  0
 31 22  1  0  0  0
 22 23  2  0  0  0
 23 24  1  0  0  0
 24 21  1  0  0  0
 21 20  1  0  0  0
 20  1  1  0  0  0
  1  2  2  0  0  0
  2  3  1  0  0  0
  3  4  2  0  0  0
  4  5  1  0  0  0
  5  7  1  0  0  0
  7  8  2  0  0  0
  8  9  1  0  0  0
  9 10  2  0  0  0
 10 11  1  0  0  0
 11 13  1  0  0  0
 13 14  1  0  0  0
 14 15  2  0  0  0
 15 16  1  0  0  0
 16 17  2  0  0  0
 17 18  2  0  0  0
 18 19  2  0  0  0
 11 12  2  0  0  0
  5  6  2  0  0  0
 24 25  2  0  0  0
 25 26  1  0  0  0
 26 27  2  0  0  0
 27 28  1  0  0  0
 27 22  1  0  0  0
  6  1  1  0  0  0
 12  7  1  0  0  0
 19 14  1  0  0  0
 32 33  1  0  0  0
 28 29  1  0  0  0
M  END
> <score>
0.540856

> <minimizedAffinity>
-8.75269

> <CNNscore>
0.6078379154

> <CNNaffinity>
6.1764087677

> <CNN_VS>
3.7542555332

$$$$
HIPS6980


 33 36  0  0  0  0  0  0  0  0999 V2000
   67.8690   79.0333   90.6428 C   0  0  0  0  0  0  0  0  0  0  0  0
   67.0035   79.2018   91.7348 C   0  0  0  0  0  0  0  0  0  0  0  0
   66.3651   80.4254   91.9504 C   0  0  0  0  0  0  0  0  0  0  0  0
   66.5826   81.4945   91.0793 C   0  0  0  0  0  0  0  0  0  0  0  0
   67.4446   81.3462   89.9800 C   0  0  0  0  0  0  0  0  0  0  0  0
   68.1005   80.1182   89.7776 C   0  0  0  0  0  0  0  0  0  0  0  0
   67.6356   82.4587   89.0241 C   0  0  0  0  0  0  0  0  0  0  0  0
   67.4433   82.2638   87.6485 C   0  0  0  0  0  0  0  0  0  0  0  0
   67.6480   83.3171   86.7525 C   0  0  0  0  0  0  0  0  0  0  0  0
   68.0543   84.5700   87.2211 C   0  0  0  0  0  0  0  0  0  0  0  0
   68.2387   84.7855   88.5901 C   0  0  0  0  0  0  0  0  0  0  0  0
   68.0365   83.7224   89.4880 C   0  0  0  0  0  0  0  0  0  0  0  0
   68.6656   86.0485   89.0264 O   0  0  0  0  0  0  0  0  0  0  0  0
   69.9591   86.5657   88.8432 C   0  0  0  0  0  0  0  0  0  0  0  0
   70.2554   87.9207   89.0745 C   0  0  0  0  0  0  0  0  0  0  0  0
   71.5536   88.3864   88.8539 C   0  0  0  0  0  0  0  0  0  0  0  0
   72.5204   87.5355   88.4141 N   0  0  0  0  0  0  0  0  0  0  0  0
   72.2584   86.2220   88.1757 C   0  0  0  0  0  0  0  0  0  0  0  0
   70.9707   85.7181   88.3760 C   0  0  0  0  0  0  0  0  0  0  0  0
   68.5792   77.7113   90.4692 C   0  0  0  0  0  0  0  0  0  0  0  0
   67.6919   76.5916   90.5252 O   0  0  0  0  0  0  0  0  0  0  0  0
   69.3105   73.6056   92.0106 C   0  0  0  0  0  0  0  0  0  0  0  0
   68.9119   74.9328   91.7673 C   0  0  0  0  0  0  0  0  0  0  0  0
   68.0792   75.2519   90.6896 C   0  0  0  0  0  0  0  0  0  0  0  0
   67.6552   74.2296   89.8249 C   0  0  0  0  0  0  0  0  0  0  0  0
   68.0832   72.9158   90.0266 C   0  0  0  0  0  0  0  0  0  0  0  0
   68.9236   72.5964   91.0985 C   0  0  0  0  0  0  0  0  0  0  0  0
   69.3778   71.2802   91.2025 O   0  0  0  0  0  0  0  0  0  0  0  0
   69.0998   70.6380   90.5793 H   0  0  0  0  0  0  0  0  0  0  0  0
   70.9739   72.4307   93.2392 O   0  0  0  0  0  0  0  0  0  0  0  0
   70.0617   73.3032   93.2490 C   0  0  0  0  0  0  0  0  0  0  0  0
   69.8149   74.0207   94.4176 O   0  0  0  0  0  0  0  0  0  0  0  0
   69.1399   74.6703   94.4347 H   0  0  0  0  0  0  0  0  0  0  0  0
 30 31  2  0  0  0
 31 32  1  0  0  0
 31 22  1  0  0  0
 22 23  2  0  0  0
 23 24  1  0  0  0
 24 21  1  0  0  0
 21 20  1  0  0  0
 20  1  1  0  0  0
  1  2  2  0  0  0
  2  3  1  0  0  0
  3  4  2  0  0  0
  4  5  1  0  0  0
  5  7  1  0  0  0
  7  8  2  0  0  0
  8  9  1  0  0  0
  9 10  2  0  0  0
 10 11  1  0  0  0
 11 13  1  0  0  0
 13 14  1  0  0  0
 14 15  2  0  0  0
 15 16  1  0  0  0
 16 17  2  0  0  0
 17 18  2  0  0  0
 18 19  2  0  0  0
 11 12  2  0  0  0
  5  6  2  0  0  0
 24 25  2  0  0  0
 25 26  1  0  0  0
 26 27  2  0  0  0
 27 28  1  0  0  0
 27 22  1  0  0  0
  6  1  1  0  0  0
 12  7  1  0  0  0
 19 14  1  0  0  0
 32 33  1  0  0  0
 28 29  1  0  0  0
M  END
> <score>
0.540856

> <minimizedAffinity>
-7.92645

> <CNNscore>
0.5314044356

> <CNNaffinity>
5.9973964691

> <CNN_VS>
3.1870431900

$$$$
HIPS6981


 34 37  0  0  0  0  0  0  0  0999 V2000
   66.0651   79.3761   93.3718 C   0  0  0  0  0  0  0  0  0  0  0  0
   66.7156   80.3433   94.1516 C   0  0  0  0  0  0  0  0  0  0  0  0
   67.4524   81.3600   93.5417 C   0  0  0  0  0  0  0  0  0  0  0  0
   67.5522   81.4185   92.1501 C   0  0  0  0  0  0  0  0  0  0  0  0
   66.9187   80.4519   91.3494 C   0  0  0  0  0  0  0  0  0  0  0  0
   66.1880   79.4233   91.9728 C   0  0  0  0  0  0  0  0  0  0  0  0
   67.0056   80.5229   89.8680 C   0  0  0  0  0  0  0  0  0  0  0  0
   66.8935   79.3581   89.0874 C   0  0  0  0  0  0  0  0  0  0  0  0
   66.9722   79.4295   87.6949 C   0  0  0  0  0  0  0  0  0  0  0  0
   67.1538   80.6616   87.0646 C   0  0  0  0  0  0  0  0  0  0  0  0
   67.2488   81.8353   87.8188 C   0  0  0  0  0  0  0  0  0  0  0  0
   67.1938   81.7596   89.2225 C   0  0  0  0  0  0  0  0  0  0  0  0
   67.4416   83.0528   87.1478 O   0  0  0  0  0  0  0  0  0  0  0  0
   68.5723   83.8745   87.2651 C   0  0  0  0  0  0  0  0  0  0  0  0
   69.8361   83.3200   87.0255 C   0  0  0  0  0  0  0  0  0  0  0  0
   70.9853   84.1103   87.1243 C   0  0  0  0  0  0  0  0  0  0  0  0
   70.8765   85.4660   87.4492 C   0  0  0  0  0  0  0  0  0  0  0  0
   71.9908   86.2317   87.5453 F   0  0  0  0  0  0  0  0  0  0  0  0
   69.6179   86.0318   87.6720 C   0  0  0  0  0  0  0  0  0  0  0  0
   68.4675   85.2431   87.5733 C   0  0  0  0  0  0  0  0  0  0  0  0
   65.2885   78.2681   94.0378 C   0  0  0  0  0  0  0  0  0  0  0  0
   65.5943   76.9960   93.4650 O   0  0  0  0  0  0  0  0  0  0  0  0
   68.4692   74.7233   94.0354 C   0  0  0  0  0  0  0  0  0  0  0  0
   67.6304   75.7165   93.4954 C   0  0  0  0  0  0  0  0  0  0  0  0
   66.3857   76.0035   94.0663 C   0  0  0  0  0  0  0  0  0  0  0  0
   65.9727   75.2942   95.2071 C   0  0  0  0  0  0  0  0  0  0  0  0
   66.7906   74.3047   95.7523 C   0  0  0  0  0  0  0  0  0  0  0  0
   68.0358   74.0122   95.1783 C   0  0  0  0  0  0  0  0  0  0  0  0
   68.8349   73.0202   95.7474 O   0  0  0  0  0  0  0  0  0  0  0  0
   68.5371   72.5558   96.5047 H   0  0  0  0  0  0  0  0  0  0  0  0
   70.3887   75.3540   92.7553 O   0  0  0  0  0  0  0  0  0  0  0  0
   69.7795   74.4517   93.3905 C   0  0  0  0  0  0  0  0  0  0  0  0
   70.3536   73.1861   93.4822 O   0  0  0  0  0  0  0  0  0  0  0  0
   69.9132   72.5047   93.9509 H   0  0  0  0  0  0  0  0  0  0  0  0
 31 32  2  0  0  0
 32 33  1  0  0  0
 32 23  1  0  0  0
 23 24  2  0  0  0
 24 25  1  0  0  0
 25 22  1  0  0  0
 22 21  1  0  0  0
 21  1  1  0  0  0
  1  2  2  0  0  0
  2  3  1  0  0  0
  3  4  2  0  0  0
  4  5  1  0  0  0
  5  7  1  0  0  0
  7  8  2  0  0  0
  8  9  1  0  0  0
  9 10  2  0  0  0
 10 11  1  0  0  0
 11 13  1  0  0  0
 13 14  1  0  0  0
 14 15  2  0  0  0
 15 16  1  0  0  0
 16 17  2  0  0  0
 17 18  1  0  0  0
 17 19  1  0  0  0
 19 20  2  0  0  0
 11 12  2  0  0  0
  5  6  2  0  0  0
 25 26  2  0  0  0
 26 27  1  0  0  0
 27 28  2  0  0  0
 28 29  1  0  0  0
 28 23  1  0  0  0
  6  1  1  0  0  0
 12  7  1  0  0  0
 20 14  1  0  0  0
 33 34  1  0  0  0
 29 30  1  0  0  0
M  END
> <score>
-0.839276

> <minimizedAffinity>
-8.83734

> <CNNscore>
0.6533502340

> <CNNaffinity>
6.3826446533

> <CNN_VS>
4.1701025963

$$$$
HIPS6981


 34 37  0  0  0  0  0  0  0  0999 V2000
   66.8830   78.9090   91.9006 C   0  0  0  0  0  0  0  0  0  0  0  0
   65.8120   79.6622   92.4027 C   0  0  0  0  0  0  0  0  0  0  0  0
   65.1073   79.2226   93.5247 C   0  0  0  0  0  0  0  0  0  0  0  0
   65.4600   78.0260   94.1524 C   0  0  0  0  0  0  0  0  0  0  0  0
   66.5221   77.2486   93.6581 C   0  0  0  0  0  0  0  0  0  0  0  0
   67.2195   77.6931   92.5194 C   0  0  0  0  0  0  0  0  0  0  0  0
   66.9132   75.9856   94.3355 C   0  0  0  0  0  0  0  0  0  0  0  0
   66.0109   75.3190   95.1840 C   0  0  0  0  0  0  0  0  0  0  0  0
   66.3811   74.1301   95.8162 C   0  0  0  0  0  0  0  0  0  0  0  0
   67.6494   73.5874   95.6032 C   0  0  0  0  0  0  0  0  0  0  0  0
   68.5565   74.2223   94.7490 C   0  0  0  0  0  0  0  0  0  0  0  0
   68.1915   75.4325   94.1317 C   0  0  0  0  0  0  0  0  0  0  0  0
   69.8254   73.6501   94.5694 O   0  0  0  0  0  0  0  0  0  0  0  0
   70.1155   72.5656   93.7287 C   0  0  0  0  0  0  0  0  0  0  0  0
   71.1028   71.6532   94.1220 C   0  0  0  0  0  0  0  0  0  0  0  0
   71.4131   70.5551   93.3140 C   0  0  0  0  0  0  0  0  0  0  0  0
   70.7264   70.3540   92.1127 C   0  0  0  0  0  0  0  0  0  0  0  0
   71.0277   69.2896   91.3294 F   0  0  0  0  0  0  0  0  0  0  0  0
   69.7270   71.2495   91.7213 C   0  0  0  0  0  0  0  0  0  0  0  0
   69.4151   72.3480   92.5282 C   0  0  0  0  0  0  0  0  0  0  0  0
   67.6264   79.3790   90.6754 C   0  0  0  0  0  0  0  0  0  0  0  0
   66.8878   79.1169   89.4814 O   0  0  0  0  0  0  0  0  0  0  0  0
   67.1684   76.8124   86.5889 C   0  0  0  0  0  0  0  0  0  0  0  0
   67.1446   77.9770   87.3794 C   0  0  0  0  0  0  0  0  0  0  0  0
   66.9138   77.9132   88.7579 C   0  0  0  0  0  0  0  0  0  0  0  0
   66.7145   76.6611   89.3642 C   0  0  0  0  0  0  0  0  0  0  0  0
   66.7315   75.4981   88.5946 C   0  0  0  0  0  0  0  0  0  0  0  0
   66.9574   75.5607   87.2123 C   0  0  0  0  0  0  0  0  0  0  0  0
   66.9733   74.3809   86.4679 O   0  0  0  0  0  0  0  0  0  0  0  0
   66.8322   73.5574   86.8921 H   0  0  0  0  0  0  0  0  0  0  0  0
   68.3362   77.6655   84.6838 O   0  0  0  0  0  0  0  0  0  0  0  0
   67.4124   76.9323   85.1286 C   0  0  0  0  0  0  0  0  0  0  0  0
   66.6161   76.2292   84.2278 O   0  0  0  0  0  0  0  0  0  0  0  0
   65.9254   75.6800   84.5428 H   0  0  0  0  0  0  0  0  0  0  0  0
 31 32  2  0  0  0
 32 33  1  0  0  0
 32 23  1  0  0  0
 23 24  2  0  0  0
 24 25  1  0  0  0
 25 22  1  0  0  0
 22 21  1  0  0  0
 21  1  1  0  0  0
  1  2  2  0  0  0
  2  3  1  0  0  0
  3  4  2  0  0  0
  4  5  1  0  0  0
  5  7  1  0  0  0
  7  8  2  0  0  0
  8  9  1  0  0  0
  9 10  2  0  0  0
 10 11  1  0  0  0
 11 13  1  0  0  0
 13 14  1  0  0  0
 14 15  2  0  0  0
 15 16  1  0  0  0
 16 17  2  0  0  0
 17 18  1  0  0  0
 17 19  1  0  0  0
 19 20  2  0  0  0
 11 12  2  0  0  0
  5  6  2  0  0  0
 25 26  2  0  0  0
 26 27  1  0  0  0
 27 28  2  0  0  0
 28 29  1  0  0  0
 28 23  1  0  0  0
  6  1  1  0  0  0
 12  7  1  0  0  0
 20 14  1  0  0  0
 33 34  1  0  0  0
 29 30  1  0  0  0
M  END
> <score>
-0.839276

> <minimizedAffinity>
-8.94038

> <CNNscore>
0.5596333742

> <CNNaffinity>
6.4661188126

> <CNN_VS>
3.6186559200

$$$$
HIPS6981


 34 37  0  0  0  0  0  0  0  0999 V2000
   68.3006   74.1542   94.1493 C   0  0  0  0  0  0  0  0  0  0  0  0
   67.1728   73.6093   94.7798 C   0  0  0  0  0  0  0  0  0  0  0  0
   65.9807   74.3334   94.8385 C   0  0  0  0  0  0  0  0  0  0  0  0
   65.9039   75.6087   94.2748 C   0  0  0  0  0  0  0  0  0  0  0  0
   67.0262   76.1795   93.6491 C   0  0  0  0  0  0  0  0  0  0  0  0
   68.2274   75.4477   93.6050 C   0  0  0  0  0  0  0  0  0  0  0  0
   66.9422   77.5275   93.0303 C   0  0  0  0  0  0  0  0  0  0  0  0
   66.0051   78.4698   93.4911 C   0  0  0  0  0  0  0  0  0  0  0  0
   65.9317   79.7372   92.9091 C   0  0  0  0  0  0  0  0  0  0  0  0
   66.7962   80.0831   91.8692 C   0  0  0  0  0  0  0  0  0  0  0  0
   67.7488   79.1694   91.4073 C   0  0  0  0  0  0  0  0  0  0  0  0
   67.8058   77.8847   91.9777 C   0  0  0  0  0  0  0  0  0  0  0  0
   68.5925   79.5520   90.3530 O   0  0  0  0  0  0  0  0  0  0  0  0
   68.2824   80.5016   89.3685 C   0  0  0  0  0  0  0  0  0  0  0  0
   68.9165   81.7497   89.4124 C   0  0  0  0  0  0  0  0  0  0  0  0
   68.6392   82.7184   88.4430 C   0  0  0  0  0  0  0  0  0  0  0  0
   67.7356   82.4389   87.4131 C   0  0  0  0  0  0  0  0  0  0  0  0
   67.4667   83.3783   86.4736 F   0  0  0  0  0  0  0  0  0  0  0  0
   67.1120   81.1894   87.3511 C   0  0  0  0  0  0  0  0  0  0  0  0
   67.3884   80.2195   88.3195 C   0  0  0  0  0  0  0  0  0  0  0  0
   69.5914   73.3754   94.1081 C   0  0  0  0  0  0  0  0  0  0  0  0
   69.3552   71.9785   93.9273 O   0  0  0  0  0  0  0  0  0  0  0  0
   72.3317   70.2179   92.5868 C   0  0  0  0  0  0  0  0  0  0  0  0
   71.4984   71.0428   93.3657 C   0  0  0  0  0  0  0  0  0  0  0  0
   70.1231   71.1224   93.1208 C   0  0  0  0  0  0  0  0  0  0  0  0
   69.5638   70.3543   92.0853 C   0  0  0  0  0  0  0  0  0  0  0  0
   70.3763   69.5347   91.3021 C   0  0  0  0  0  0  0  0  0  0  0  0
   71.7553   69.4579   91.5428 C   0  0  0  0  0  0  0  0  0  0  0  0
   72.5432   68.6263   90.7464 O   0  0  0  0  0  0  0  0  0  0  0  0
   72.1499   68.1275   90.0576 H   0  0  0  0  0  0  0  0  0  0  0  0
   74.3835   69.0706   93.0283 O   0  0  0  0  0  0  0  0  0  0  0  0
   73.7866   70.1713   92.8826 C   0  0  0  0  0  0  0  0  0  0  0  0
   74.5128   71.3537   93.0024 O   0  0  0  0  0  0  0  0  0  0  0  0
   74.0835   72.1798   92.8969 H   0  0  0  0  0  0  0  0  0  0  0  0
 31 32  2  0  0  0
 32 33  1  0  0  0
 32 23  1  0  0  0
 23 24  2  0  0  0
 24 25  1  0  0  0
 25 22  1  0  0  0
 22 21  1  0  0  0
 21  1  1  0  0  0
  1  2  2  0  0  0
  2  3  1  0  0  0
  3  4  2  0  0  0
  4  5  1  0  0  0
  5  7  1  0  0  0
  7  8  2  0  0  0
  8  9  1  0  0  0
  9 10  2  0  0  0
 10 11  1  0  0  0
 11 13  1  0  0  0
 13 14  1  0  0  0
 14 15  2  0  0  0
 15 16  1  0  0  0
 16 17  2  0  0  0
 17 18  1  0  0  0
 17 19  1  0  0  0
 19 20  2  0  0  0
 11 12  2  0  0  0
  5  6  2  0  0  0
 25 26  2  0  0  0
 26 27  1  0  0  0
 27 28  2  0  0  0
 28 29  1  0  0  0
 28 23  1  0  0  0
  6  1  1  0  0  0
 12  7  1  0  0  0
 20 14  1  0  0  0
 33 34  1  0  0  0
 29 30  1  0  0  0
M  END
> <score>
-0.839276

> <minimizedAffinity>
-8.86450

> <CNNscore>
0.5565002561

> <CNNaffinity>
5.9264574051

> <CNN_VS>
3.2980749607

$$$$
HIPS6982


 33 36  0  0  0  0  0  0  0  0999 V2000
   66.8866   78.9911   90.5116 C   0  0  0  0  0  0  0  0  0  0  0  0
   66.7564   78.0261   89.5094 C   0  0  0  0  0  0  0  0  0  0  0  0
   66.8507   78.3810   88.1835 C   0  0  0  0  0  0  0  0  0  0  0  0
   67.0763   79.7047   87.8404 C   0  0  0  0  0  0  0  0  0  0  0  0
   67.2102   80.6837   88.8010 C   0  0  0  0  0  0  0  0  0  0  0  0
   67.1083   80.2803   90.1205 C   0  0  0  0  0  0  0  0  0  0  0  0
   67.4485   82.0652   88.4005 C   0  0  0  0  0  0  0  0  0  0  0  0
   67.4821   82.4230   87.0686 C   0  0  0  0  0  0  0  0  0  0  0  0
   67.6991   83.7113   86.6490 C   0  0  0  0  0  0  0  0  0  0  0  0
   67.8970   84.7253   87.5579 C   0  0  0  0  0  0  0  0  0  0  0  0
   67.8723   84.4115   88.8989 C   0  0  0  0  0  0  0  0  0  0  0  0
   67.6485   83.0892   89.2985 C   0  0  0  0  0  0  0  0  0  0  0  0
   68.0881   85.4763   89.9229 C   0  0  0  0  0  0  0  0  0  0  0  0
   67.8205   84.9943   91.2116 N   0  0  0  0  0  0  0  0  0  0  0  0
   66.6197   85.3873   91.8164 C   0  0  0  0  0  0  0  0  0  0  0  0
   66.7679   86.3582   92.9561 C   0  0  0  0  0  0  0  0  0  0  0  0
   68.0882   86.7537   93.1486 O   0  0  0  0  0  0  0  0  0  0  0  0
   68.8516   85.6298   93.3452 C   0  0  0  0  0  0  0  0  0  0  0  0
   68.9295   84.7958   92.0933 C   0  0  0  0  0  0  0  0  0  0  0  0
   66.8201   78.6081   91.9361 C   0  0  0  0  0  0  0  0  0  0  0  0
   66.6610   77.2802   92.1155 O   0  0  0  0  0  0  0  0  0  0  0  0
   67.8795   74.4251   93.8811 C   0  0  0  0  0  0  0  0  0  0  0  0
   67.7631   75.4122   92.9572 C   0  0  0  0  0  0  0  0  0  0  0  0
   66.7097   76.3420   93.0544 C   0  0  0  0  0  0  0  0  0  0  0  0
   65.8298   76.2063   94.1006 C   0  0  0  0  0  0  0  0  0  0  0  0
   65.9826   75.1935   95.0140 C   0  0  0  0  0  0  0  0  0  0  0  0
   67.0083   74.2881   94.9190 C   0  0  0  0  0  0  0  0  0  0  0  0
   67.1638   73.2607   95.8450 O   0  0  0  0  0  0  0  0  0  0  0  0
   66.5590   73.1750   96.5556 H   0  0  0  0  0  0  0  0  0  0  0  0
   68.7855   72.2327   93.6592 O   0  0  0  0  0  0  0  0  0  0  0  0
   68.9841   73.4747   93.7565 C   0  0  0  0  0  0  0  0  0  0  0  0
   70.2914   73.9002   93.7405 O   0  0  0  0  0  0  0  0  0  0  0  0
   70.4877   74.8137   93.8102 H   0  0  0  0  0  0  0  0  0  0  0  0
 30 31  2  0  0  0
 31 32  1  0  0  0
 31 22  1  0  0  0
 22 23  2  0  0  0
 23 24  1  0  0  0
 24 21  1  0  0  0
 21 20  1  0  0  0
 20  1  1  0  0  0
  1  2  2  0  0  0
  2  3  1  0  0  0
  3  4  2  0  0  0
  4  5  1  0  0  0
  5  7  1  0  0  0
  7  8  2  0  0  0
  8  9  1  0  0  0
  9 10  2  0  0  0
 10 11  1  0  0  0
 11 13  1  0  0  0
 13 14  1  0  0  0
 14 15  1  0  0  0
 15 16  1  0  0  0
 16 17  1  0  0  0
 17 18  1  0  0  0
 18 19  1  0  0  0
 11 12  2  0  0  0
  5  6  2  0  0  0
 24 25  2  0  0  0
 25 26  1  0  0  0
 26 27  2  0  0  0
 27 28  1  0  0  0
 27 22  1  0  0  0
  6  1  1  0  0  0
 12  7  1  0  0  0
 19 14  1  0  0  0
 32 33  1  0  0  0
 28 29  1  0  0  0
M  END
> <score>
0.61493

> <minimizedAffinity>
-7.65141

> <CNNscore>
0.5525928140

> <CNNaffinity>
5.8297109604

> <CNN_VS>
3.2214562893

$$$$
HIPS6982


 33 36  0  0  0  0  0  0  0  0999 V2000
   67.5900   77.6794   89.8255 C   0  0  0  0  0  0  0  0  0  0  0  0
   66.6377   77.8958   88.8261 C   0  0  0  0  0  0  0  0  0  0  0  0
   66.5910   79.0965   88.1560 C   0  0  0  0  0  0  0  0  0  0  0  0
   67.4948   80.0975   88.4750 C   0  0  0  0  0  0  0  0  0  0  0  0
   68.4480   79.9204   89.4543 C   0  0  0  0  0  0  0  0  0  0  0  0
   68.4572   78.6973   90.1010 C   0  0  0  0  0  0  0  0  0  0  0  0
   69.3826   80.9968   89.7603 C   0  0  0  0  0  0  0  0  0  0  0  0
   70.6737   80.7237   90.1620 C   0  0  0  0  0  0  0  0  0  0  0  0
   71.5857   81.7060   90.4554 C   0  0  0  0  0  0  0  0  0  0  0  0
   71.2453   83.0359   90.3599 C   0  0  0  0  0  0  0  0  0  0  0  0
   69.9650   83.3532   89.9630 C   0  0  0  0  0  0  0  0  0  0  0  0
   69.0557   82.3309   89.6697 C   0  0  0  0  0  0  0  0  0  0  0  0
   69.5466   84.7819   89.8505 C   0  0  0  0  0  0  0  0  0  0  0  0
   69.8481   85.2943   88.5812 N   0  0  0  0  0  0  0  0  0  0  0  0
   69.7082   84.4356   87.4834 C   0  0  0  0  0  0  0  0  0  0  0  0
   70.9999   83.9905   86.8534 C   0  0  0  0  0  0  0  0  0  0  0  0
   72.1153   84.4597   87.5407 O   0  0  0  0  0  0  0  0  0  0  0  0
   72.0365   85.8285   87.6091 C   0  0  0  0  0  0  0  0  0  0  0  0
   70.8925   86.2673   88.4853 C   0  0  0  0  0  0  0  0  0  0  0  0
   67.6649   76.3799   90.5228 C   0  0  0  0  0  0  0  0  0  0  0  0
   67.1062   76.4104   91.7507 O   0  0  0  0  0  0  0  0  0  0  0  0
   68.1063   74.1262   94.3073 C   0  0  0  0  0  0  0  0  0  0  0  0
   68.1166   74.8717   93.1734 C   0  0  0  0  0  0  0  0  0  0  0  0
   67.0246   75.7102   92.8763 C   0  0  0  0  0  0  0  0  0  0  0  0
   65.9772   75.7372   93.7649 C   0  0  0  0  0  0  0  0  0  0  0  0
   66.0057   74.9675   94.9007 C   0  0  0  0  0  0  0  0  0  0  0  0
   67.0690   74.1510   95.1895 C   0  0  0  0  0  0  0  0  0  0  0  0
   67.0984   73.3700   96.3413 O   0  0  0  0  0  0  0  0  0  0  0  0
   66.3798   73.3941   96.9421 H   0  0  0  0  0  0  0  0  0  0  0  0
   70.1112   73.5674   95.4667 O   0  0  0  0  0  0  0  0  0  0  0  0
   69.2543   73.2659   94.5913 C   0  0  0  0  0  0  0  0  0  0  0  0
   69.4464   72.0867   93.9109 O   0  0  0  0  0  0  0  0  0  0  0  0
   68.8358   71.8214   93.2516 H   0  0  0  0  0  0  0  0  0  0  0  0
 30 31  2  0  0  0
 31 32  1  0  0  0
 31 22  1  0  0  0
 22 23  2  0  0  0
 23 24  1  0  0  0
 24 21  1  0  0  0
 21 20  1  0  0  0
 20  1  1  0  0  0
  1  2  2  0  0  0
  2  3  1  0  0  0
  3  4  2  0  0  0
  4  5  1  0  0  0
  5  7  1  0  0  0
  7  8  2  0  0  0
  8  9  1  0  0  0
  9 10  2  0  0  0
 10 11  1  0  0  0
 11 13  1  0  0  0
 13 14  1  0  0  0
 14 15  1  0  0  0
 15 16  1  0  0  0
 16 17  1  0  0  0
 17 18  1  0  0  0
 18 19  1  0  0  0
 11 12  2  0  0  0
  5  6  2  0  0  0
 24 25  2  0  0  0
 25 26  1  0  0  0
 26 27  2  0  0  0
 27 28  1  0  0  0
 27 22  1  0  0  0
  6  1  1  0  0  0
 12  7  1  0  0  0
 19 14  1  0  0  0
 32 33  1  0  0  0
 28 29  1  0  0  0
M  END
> <score>
0.61493

> <minimizedAffinity>
-8.43523

> <CNNscore>
0.5374214053

> <CNNaffinity>
5.8348550797

> <CNN_VS>
3.1357760429

$$$$
HIPS6982


 33 36  0  0  0  0  0  0  0  0999 V2000
   69.0477   78.5198   90.5229 C   0  0  0  0  0  0  0  0  0  0  0  0
   70.1425   77.6521   90.4953 C   0  0  0  0  0  0  0  0  0  0  0  0
   71.4111   78.1371   90.2749 C   0  0  0  0  0  0  0  0  0  0  0  0
   71.6033   79.4956   90.0789 C   0  0  0  0  0  0  0  0  0  0  0  0
   70.5480   80.3815   90.0995 C   0  0  0  0  0  0  0  0  0  0  0  0
   69.2912   79.8486   90.3247 C   0  0  0  0  0  0  0  0  0  0  0  0
   70.7906   81.8039   89.8907 C   0  0  0  0  0  0  0  0  0  0  0  0
   72.0521   82.2722   89.5868 C   0  0  0  0  0  0  0  0  0  0  0  0
   72.3228   83.6012   89.3787 C   0  0  0  0  0  0  0  0  0  0  0  0
   71.3264   84.5462   89.4660 C   0  0  0  0  0  0  0  0  0  0  0  0
   70.0514   84.1215   89.7685 C   0  0  0  0  0  0  0  0  0  0  0  0
   69.8038   82.7599   89.9754 C   0  0  0  0  0  0  0  0  0  0  0  0
   68.9381   85.1100   89.8803 C   0  0  0  0  0  0  0  0  0  0  0  0
   68.4128   85.4185   88.6180 N   0  0  0  0  0  0  0  0  0  0  0  0
   67.3224   84.6645   88.1654 C   0  0  0  0  0  0  0  0  0  0  0  0
   67.6290   83.7103   87.0434 C   0  0  0  0  0  0  0  0  0  0  0  0
   68.9806   83.6968   86.7120 O   0  0  0  0  0  0  0  0  0  0  0  0
   69.3613   84.9780   86.3986 C   0  0  0  0  0  0  0  0  0  0  0  0
   69.3211   85.8722   87.6101 C   0  0  0  0  0  0  0  0  0  0  0  0
   67.6896   78.0070   90.7933 C   0  0  0  0  0  0  0  0  0  0  0  0
   67.6951   76.8044   91.4053 O   0  0  0  0  0  0  0  0  0  0  0  0
   69.2397   74.1427   93.2172 C   0  0  0  0  0  0  0  0  0  0  0  0
   68.6870   74.8578   92.2050 C   0  0  0  0  0  0  0  0  0  0  0  0
   68.2221   76.1658   92.4437 C   0  0  0  0  0  0  0  0  0  0  0  0
   68.3516   76.6696   93.7152 C   0  0  0  0  0  0  0  0  0  0  0  0
   68.9165   75.9134   94.7113 C   0  0  0  0  0  0  0  0  0  0  0  0
   69.3689   74.6398   94.4786 C   0  0  0  0  0  0  0  0  0  0  0  0
   69.9418   73.8723   95.4885 O   0  0  0  0  0  0  0  0  0  0  0  0
   70.0262   74.2234   96.3531 H   0  0  0  0  0  0  0  0  0  0  0  0
   70.7856   72.5750   92.3066 O   0  0  0  0  0  0  0  0  0  0  0  0
   69.7156   72.7878   92.9402 C   0  0  0  0  0  0  0  0  0  0  0  0
   69.0110   71.6852   93.3622 O   0  0  0  0  0  0  0  0  0  0  0  0
   68.2103   71.7942   93.8365 H   0  0  0  0  0  0  0  0  0  0  0  0
 30 31  2  0  0  0
 31 32  1  0  0  0
 31 22  1  0  0  0
 22 23  2  0  0  0
 23 24  1  0  0  0
 24 21  1  0  0  0
 21 20  1  0  0  0
 20  1  1  0  0  0
  1  2  2  0  0  0
  2  3  1  0  0  0
  3  4  2  0  0  0
  4  5  1  0  0  0
  5  7  1  0  0  0
  7  8  2  0  0  0
  8  9  1  0  0  0
  9 10  2  0  0  0
 10 11  1  0  0  0
 11 13  1  0  0  0
 13 14  1  0  0  0
 14 15  1  0  0  0
 15 16  1  0  0  0
 16 17  1  0  0  0
 17 18  1  0  0  0
 18 19  1  0  0  0
 11 12  2  0  0  0
  5  6  2  0  0  0
 24 25  2  0  0  0
 25 26  1  0  0  0
 26 27  2  0  0  0
 27 28  1  0  0  0
 27 22  1  0  0  0
  6  1  1  0  0  0
 12  7  1  0  0  0
 19 14  1  0  0  0
 32 33  1  0  0  0
 28 29  1  0  0  0
M  END
> <score>
0.61493

> <minimizedAffinity>
-8.09298

> <CNNscore>
0.5111265182

> <CNNaffinity>
5.8629922867

> <CNN_VS>
2.9967308044

$$$$
HIPS6983


 32 35  0  0  0  0  0  0  0  0999 V2000
   65.7001   79.5208   92.6740 C   0  0  0  0  0  0  0  0  0  0  0  0
   64.6030   79.9843   91.9785 C   0  0  0  0  0  0  0  0  0  0  0  0
   64.7877   80.7362   90.8139 C   0  0  0  0  0  0  0  0  0  0  0  0
   66.0672   81.0018   90.3801 C   0  0  0  0  0  0  0  0  0  0  0  0
   67.1850   80.5504   91.0567 C   0  0  0  0  0  0  0  0  0  0  0  0
   66.9435   79.8081   92.2075 C   0  0  0  0  0  0  0  0  0  0  0  0
   68.5487   80.8271   90.6041 C   0  0  0  0  0  0  0  0  0  0  0  0
   69.5129   79.8129   90.6177 C   0  0  0  0  0  0  0  0  0  0  0  0
   70.8009   80.0688   90.1916 C   0  0  0  0  0  0  0  0  0  0  0  0
   71.1040   81.3425   89.7570 C   0  0  0  0  0  0  0  0  0  0  0  0
   70.1571   82.3645   89.7366 C   0  0  0  0  0  0  0  0  0  0  0  0
   68.8650   82.0969   90.1669 C   0  0  0  0  0  0  0  0  0  0  0  0
   70.4992   83.7201   89.2686 C   0  0  0  0  0  0  0  0  0  0  0  0
   71.4721   83.7159   88.2056 N   0  0  0  0  0  0  0  0  0  0  0  0
   70.7707   83.8331   86.9422 C   0  0  0  0  0  0  0  0  0  0  0  0
   70.5246   85.3360   86.7936 C   0  0  0  0  0  0  0  0  0  0  0  0
   71.4761   85.9903   87.7920 C   0  0  0  0  0  0  0  0  0  0  0  0
   72.3452   84.8457   88.2025 C   0  0  0  0  0  0  0  0  0  0  0  0
   65.4651   78.7164   93.9205 C   0  0  0  0  0  0  0  0  0  0  0  0
   65.4216   77.3761   93.5394 O   0  0  0  0  0  0  0  0  0  0  0  0
   68.3678   75.1516   93.8908 C   0  0  0  0  0  0  0  0  0  0  0  0
   67.5408   76.1754   93.4551 C   0  0  0  0  0  0  0  0  0  0  0  0
   66.2760   76.3849   93.9334 C   0  0  0  0  0  0  0  0  0  0  0  0
   65.8144   75.5043   94.9158 C   0  0  0  0  0  0  0  0  0  0  0  0
   66.6027   74.4662   95.3837 C   0  0  0  0  0  0  0  0  0  0  0  0
   67.8691   74.3082   94.8610 C   0  0  0  0  0  0  0  0  0  0  0  0
   68.6523   73.2653   95.3356 O   0  0  0  0  0  0  0  0  0  0  0  0
   68.3170   72.6901   95.9948 H   0  0  0  0  0  0  0  0  0  0  0  0
   70.1796   73.8377   93.1636 O   0  0  0  0  0  0  0  0  0  0  0  0
   69.7056   74.9865   93.3372 C   0  0  0  0  0  0  0  0  0  0  0  0
   70.4729   76.0775   92.9953 O   0  0  0  0  0  0  0  0  0  0  0  0
   70.1367   76.9435   93.1174 H   0  0  0  0  0  0  0  0  0  0  0  0
 29 30  2  0  0  0
 30 31  1  0  0  0
 30 21  1  0  0  0
 21 22  2  0  0  0
 22 23  1  0  0  0
 23 20  1  0  0  0
 20 19  1  0  0  0
 19  1  1  0  0  0
  1  2  2  0  0  0
  2  3  1  0  0  0
  3  4  2  0  0  0
  4  5  1  0  0  0
  5  7  1  0  0  0
  7  8  2  0  0  0
  8  9  1  0  0  0
  9 10  2  0  0  0
 10 11  1  0  0  0
 11 13  1  0  0  0
 13 14  1  0  0  0
 14 15  1  0  0  0
 15 16  1  0  0  0
 16 17  1  0  0  0
 17 18  1  0  0  0
 11 12  2  0  0  0
  5  6  2  0  0  0
 23 24  2  0  0  0
 24 25  1  0  0  0
 25 26  2  0  0  0
 26 27  1  0  0  0
 26 21  1  0  0  0
  6  1  1  0  0  0
 12  7  1  0  0  0
 18 14  1  0  0  0
 31 32  1  0  0  0
 27 28  1  0  0  0
M  END
> <score>
0.527388

> <minimizedAffinity>
-8.18738

> <CNNscore>
0.6920315623

> <CNNaffinity>
6.0524187088

> <CNN_VS>
4.1884646416

$$$$
HIPS6983


 32 35  0  0  0  0  0  0  0  0999 V2000
   68.9258   77.9817   90.5901 C   0  0  0  0  0  0  0  0  0  0  0  0
   70.1216   77.2948   90.5663 C   0  0  0  0  0  0  0  0  0  0  0  0
   71.3209   77.9965   90.4078 C   0  0  0  0  0  0  0  0  0  0  0  0
   71.2869   79.3668   90.2777 C   0  0  0  0  0  0  0  0  0  0  0  0
   70.1036   80.0813   90.2980 C   0  0  0  0  0  0  0  0  0  0  0  0
   68.9419   79.3339   90.4581 C   0  0  0  0  0  0  0  0  0  0  0  0
   70.0565   81.5373   90.1608 C   0  0  0  0  0  0  0  0  0  0  0  0
   70.9793   82.1959   89.3403 C   0  0  0  0  0  0  0  0  0  0  0  0
   70.9391   83.5695   89.2073 C   0  0  0  0  0  0  0  0  0  0  0  0
   69.9707   84.2646   89.9017 C   0  0  0  0  0  0  0  0  0  0  0  0
   69.0440   83.6258   90.7230 C   0  0  0  0  0  0  0  0  0  0  0  0
   69.0928   82.2446   90.8498 C   0  0  0  0  0  0  0  0  0  0  0  0
   68.0159   84.3854   91.4576 C   0  0  0  0  0  0  0  0  0  0  0  0
   68.5772   85.3111   92.4087 N   0  0  0  0  0  0  0  0  0  0  0  0
   67.4938   86.0660   93.0075 C   0  0  0  0  0  0  0  0  0  0  0  0
   66.9720   85.1490   94.1156 C   0  0  0  0  0  0  0  0  0  0  0  0
   68.0768   84.1162   94.3234 C   0  0  0  0  0  0  0  0  0  0  0  0
   69.2059   84.6923   93.5315 C   0  0  0  0  0  0  0  0  0  0  0  0
   67.6570   77.1965   90.7621 C   0  0  0  0  0  0  0  0  0  0  0  0
   67.2830   77.3128   92.1000 O   0  0  0  0  0  0  0  0  0  0  0  0
   68.2022   74.4738   94.3018 C   0  0  0  0  0  0  0  0  0  0  0  0
   68.2870   75.4745   93.3460 C   0  0  0  0  0  0  0  0  0  0  0  0
   67.2525   76.3129   93.0312 C   0  0  0  0  0  0  0  0  0  0  0  0
   66.0533   76.1307   93.7257 C   0  0  0  0  0  0  0  0  0  0  0  0
   65.9190   75.1452   94.6895 C   0  0  0  0  0  0  0  0  0  0  0  0
   66.9993   74.3321   94.9608 C   0  0  0  0  0  0  0  0  0  0  0  0
   66.8560   73.3472   95.9280 O   0  0  0  0  0  0  0  0  0  0  0  0
   66.0402   73.2476   96.3781 H   0  0  0  0  0  0  0  0  0  0  0  0
   69.4342   73.0304   95.6932 O   0  0  0  0  0  0  0  0  0  0  0  0
   69.3450   73.6158   94.5870 C   0  0  0  0  0  0  0  0  0  0  0  0
   70.3437   73.4299   93.6575 O   0  0  0  0  0  0  0  0  0  0  0  0
   70.2952   73.8584   92.8256 H   0  0  0  0  0  0  0  0  0  0  0  0
 29 30  2  0  0  0
 30 31  1  0  0  0
 30 21  1  0  0  0
 21 22  2  0  0  0
 22 23  1  0  0  0
 23 20  1  0  0  0
 20 19  1  0  0  0
 19  1  1  0  0  0
  1  2  2  0  0  0
  2  3  1  0  0  0
  3  4  2  0  0  0
  4  5  1  0  0  0
  5  7  1  0  0  0
  7  8  2  0  0  0
  8  9  1  0  0  0
  9 10  2  0  0  0
 10 11  1  0  0  0
 11 13  1  0  0  0
 13 14  1  0  0  0
 14 15  1  0  0  0
 15 16  1  0  0  0
 16 17  1  0  0  0
 17 18  1  0  0  0
 11 12  2  0  0  0
  5  6  2  0  0  0
 23 24  2  0  0  0
 24 25  1  0  0  0
 25 26  2  0  0  0
 26 27  1  0  0  0
 26 21  1  0  0  0
  6  1  1  0  0  0
 12  7  1  0  0  0
 18 14  1  0  0  0
 31 32  1  0  0  0
 27 28  1  0  0  0
M  END
> <score>
0.527388

> <minimizedAffinity>
-7.98693

> <CNNscore>
0.4948246777

> <CNNaffinity>
5.8652114868

> <CNN_VS>
2.9022514820

$$$$
HIPS6983


 32 35  0  0  0  0  0  0  0  0999 V2000
   66.9498   79.2311   90.9024 C   0  0  0  0  0  0  0  0  0  0  0  0
   66.2443   79.0049   89.7391 C   0  0  0  0  0  0  0  0  0  0  0  0
   66.6848   79.5734   88.5397 C   0  0  0  0  0  0  0  0  0  0  0  0
   67.8201   80.3525   88.5412 C   0  0  0  0  0  0  0  0  0  0  0  0
   68.5470   80.5963   89.6916 C   0  0  0  0  0  0  0  0  0  0  0  0
   68.0644   80.0069   90.8549 C   0  0  0  0  0  0  0  0  0  0  0  0
   69.7545   81.4225   89.7039 C   0  0  0  0  0  0  0  0  0  0  0  0
   70.9274   80.9438   90.2986 C   0  0  0  0  0  0  0  0  0  0  0  0
   72.0695   81.7194   90.3127 C   0  0  0  0  0  0  0  0  0  0  0  0
   72.0181   82.9680   89.7284 C   0  0  0  0  0  0  0  0  0  0  0  0
   70.8594   83.4609   89.1318 C   0  0  0  0  0  0  0  0  0  0  0  0
   69.7167   82.6733   89.1228 C   0  0  0  0  0  0  0  0  0  0  0  0
   70.8231   84.7982   88.5120 C   0  0  0  0  0  0  0  0  0  0  0  0
   69.4844   85.3113   88.3668 N   0  0  0  0  0  0  0  0  0  0  0  0
   69.0789   85.8973   89.6294 C   0  0  0  0  0  0  0  0  0  0  0  0
   69.6861   87.3014   89.5976 C   0  0  0  0  0  0  0  0  0  0  0  0
   70.0408   87.5428   88.1326 C   0  0  0  0  0  0  0  0  0  0  0  0
   69.3671   86.3977   87.4478 C   0  0  0  0  0  0  0  0  0  0  0  0
   66.4484   78.6051   92.1723 C   0  0  0  0  0  0  0  0  0  0  0  0
   67.4901   77.8344   92.6866 O   0  0  0  0  0  0  0  0  0  0  0  0
   68.2027   74.6160   94.3855 C   0  0  0  0  0  0  0  0  0  0  0  0
   68.3741   75.7751   93.6444 C   0  0  0  0  0  0  0  0  0  0  0  0
   67.3748   76.6796   93.4082 C   0  0  0  0  0  0  0  0  0  0  0  0
   66.1200   76.3970   93.9552 C   0  0  0  0  0  0  0  0  0  0  0  0
   65.8987   75.2524   94.7028 C   0  0  0  0  0  0  0  0  0  0  0  0
   66.9474   74.3799   94.9049 C   0  0  0  0  0  0  0  0  0  0  0  0
   66.7168   73.2354   95.6552 O   0  0  0  0  0  0  0  0  0  0  0  0
   65.8652   73.0713   96.0099 H   0  0  0  0  0  0  0  0  0  0  0  0
   69.4040   73.0551   95.6731 O   0  0  0  0  0  0  0  0  0  0  0  0
   69.3122   73.6955   94.5979 C   0  0  0  0  0  0  0  0  0  0  0  0
   70.2762   73.5094   93.6325 O   0  0  0  0  0  0  0  0  0  0  0  0
   70.2251   73.9784   92.8229 H   0  0  0  0  0  0  0  0  0  0  0  0
 29 30  2  0  0  0
 30 31  1  0  0  0
 30 21  1  0  0  0
 21 22  2  0  0  0
 22 23  1  0  0  0
 23 20  1  0  0  0
 20 19  1  0  0  0
 19  1  1  0  0  0
  1  2  2  0  0  0
  2  3  1  0  0  0
  3  4  2  0  0  0
  4  5  1  0  0  0
  5  7  1  0  0  0
  7  8  2  0  0  0
  8  9  1  0  0  0
  9 10  2  0  0  0
 10 11  1  0  0  0
 11 13  1  0  0  0
 13 14  1  0  0  0
 14 15  1  0  0  0
 15 16  1  0  0  0
 16 17  1  0  0  0
 17 18  1  0  0  0
 11 12  2  0  0  0
  5  6  2  0  0  0
 23 24  2  0  0  0
 24 25  1  0  0  0
 25 26  2  0  0  0
 26 27  1  0  0  0
 26 21  1  0  0  0
  6  1  1  0  0  0
 12  7  1  0  0  0
 18 14  1  0  0  0
 31 32  1  0  0  0
 27 28  1  0  0  0
M  END
> <score>
0.527388

> <minimizedAffinity>
-8.24587

> <CNNscore>
0.4872277379

> <CNNaffinity>
5.7892084122

> <CNN_VS>
2.8206629753

$$$$
HIPS6984


 33 36  0  0  0  0  0  0  0  0999 V2000
   66.8452   75.8563   87.9848 C   0  0  0  0  0  0  0  0  0  0  0  0
   67.2041   76.0149   86.6776 C   0  0  0  0  0  0  0  0  0  0  0  0
   67.4496   77.2930   86.1640 C   0  0  0  0  0  0  0  0  0  0  0  0
   67.3207   78.3691   87.0010 C   0  0  0  0  0  0  0  0  0  0  0  0
   66.9568   78.2363   88.3343 C   0  0  0  0  0  0  0  0  0  0  0  0
   66.7190   76.9748   88.8246 C   0  0  0  0  0  0  0  0  0  0  0  0
   66.8380   79.4483   89.1731 C   0  0  0  0  0  0  0  0  0  0  0  0
   66.2924   79.3501   90.4364 C   0  0  0  0  0  0  0  0  0  0  0  0
   66.1967   80.4965   91.1868 C   0  0  0  0  0  0  0  0  0  0  0  0
   66.6268   81.7390   90.7208 C   0  0  0  0  0  0  0  0  0  0  0  0
   67.1734   81.8499   89.4612 C   0  0  0  0  0  0  0  0  0  0  0  0
   67.2632   80.6718   88.7101 C   0  0  0  0  0  0  0  0  0  0  0  0
   67.6212   83.0281   88.9229 O   0  0  0  0  0  0  0  0  0  0  0  0
   68.3910   83.2255   87.7903 C   0  0  0  0  0  0  0  0  0  0  0  0
   67.9819   84.5153   87.1026 C   0  0  0  0  0  0  0  0  0  0  0  0
   69.1057   85.5116   87.0168 C   0  0  0  0  0  0  0  0  0  0  0  0
   70.3733   84.9361   86.4476 C   0  0  0  0  0  0  0  0  0  0  0  0
   70.7588   83.6504   87.1025 C   0  0  0  0  0  0  0  0  0  0  0  0
   69.8418   83.3727   88.2518 C   0  0  0  0  0  0  0  0  0  0  0  0
   66.5867   74.5321   88.5861 C   0  0  0  0  0  0  0  0  0  0  0  0
   67.6721   73.9186   89.0835 O   0  0  0  0  0  0  0  0  0  0  0  0
   69.5663   74.8026   92.1498 C   0  0  0  0  0  0  0  0  0  0  0  0
   68.8772   74.9350   90.9426 C   0  0  0  0  0  0  0  0  0  0  0  0
   68.3479   73.8769   90.2451 C   0  0  0  0  0  0  0  0  0  0  0  0
   68.5547   72.6032   90.8503 C   0  0  0  0  0  0  0  0  0  0  0  0
   69.2271   72.4786   92.0269 C   0  0  0  0  0  0  0  0  0  0  0  0
   69.7447   73.5591   92.7011 C   0  0  0  0  0  0  0  0  0  0  0  0
   70.4166   73.3792   93.8882 O   0  0  0  0  0  0  0  0  0  0  0  0
   70.5229   72.5174   94.2404 H   0  0  0  0  0  0  0  0  0  0  0  0
   69.5215   76.4119   93.8341 O   0  0  0  0  0  0  0  0  0  0  0  0
   70.0900   75.9748   92.8158 C   0  0  0  0  0  0  0  0  0  0  0  0
   71.2103   76.5948   92.3180 O   0  0  0  0  0  0  0  0  0  0  0  0
   71.6305   76.2579   91.5513 H   0  0  0  0  0  0  0  0  0  0  0  0
 30 31  2  0  0  0
 31 32  1  0  0  0
 31 22  1  0  0  0
 22 23  2  0  0  0
 23 24  1  0  0  0
 24 21  1  0  0  0
 21 20  1  0  0  0
 20  1  1  0  0  0
  1  2  2  0  0  0
  2  3  1  0  0  0
  3  4  2  0  0  0
  4  5  1  0  0  0
  5  7  1  0  0  0
  7  8  2  0  0  0
  8  9  1  0  0  0
  9 10  2  0  0  0
 10 11  1  0  0  0
 11 13  1  0  0  0
 13 14  1  0  0  0
 14 15  1  0  0  0
 15 16  1  0  0  0
 16 17  1  0  0  0
 17 18  1  0  0  0
 18 19  1  0  0  0
 11 12  2  0  0  0
  5  6  2  0  0  0
 24 25  2  0  0  0
 25 26  1  0  0  0
 26 27  2  0  0  0
 27 28  1  0  0  0
 27 22  1  0  0  0
  6  1  1  0  0  0
 12  7  1  0  0  0
 19 14  1  0  0  0
 32 33  1  0  0  0
 28 29  1  0  0  0
M  END
> <score>
-0.786406

> <minimizedAffinity>
-9.00173

> <CNNscore>
0.6293609738

> <CNNaffinity>
6.3910446167

> <CNN_VS>
4.0222740173

$$$$
HIPS6984


 33 36  0  0  0  0  0  0  0  0999 V2000
   70.3120   78.6296   90.4919 C   0  0  0  0  0  0  0  0  0  0  0  0
   68.9544   78.7292   90.3946 C   0  0  0  0  0  0  0  0  0  0  0  0
   68.3604   79.9448   90.0384 C   0  0  0  0  0  0  0  0  0  0  0  0
   69.1711   81.0209   89.7932 C   0  0  0  0  0  0  0  0  0  0  0  0
   70.5546   80.9474   89.8853 C   0  0  0  0  0  0  0  0  0  0  0  0
   71.1236   79.7468   90.2360 C   0  0  0  0  0  0  0  0  0  0  0  0
   71.3606   82.1552   89.6057 C   0  0  0  0  0  0  0  0  0  0  0  0
   72.6659   82.2189   90.0476 C   0  0  0  0  0  0  0  0  0  0  0  0
   73.3842   83.3564   89.7708 C   0  0  0  0  0  0  0  0  0  0  0  0
   72.8454   84.4340   89.0677 C   0  0  0  0  0  0  0  0  0  0  0  0
   71.5432   84.3824   88.6211 C   0  0  0  0  0  0  0  0  0  0  0  0
   70.8258   83.2158   88.9120 C   0  0  0  0  0  0  0  0  0  0  0  0
   70.9331   85.3926   87.9243 O   0  0  0  0  0  0  0  0  0  0  0  0
   69.5866   85.5744   87.6635 C   0  0  0  0  0  0  0  0  0  0  0  0
   69.1999   84.8402   86.3926 C   0  0  0  0  0  0  0  0  0  0  0  0
   68.1520   83.7861   86.6245 C   0  0  0  0  0  0  0  0  0  0  0  0
   66.9543   84.2896   87.3821 C   0  0  0  0  0  0  0  0  0  0  0  0
   67.3356   85.0396   88.6160 C   0  0  0  0  0  0  0  0  0  0  0  0
   68.8142   84.9497   88.8267 C   0  0  0  0  0  0  0  0  0  0  0  0
   70.9960   77.3703   90.8503 C   0  0  0  0  0  0  0  0  0  0  0  0
   70.4669   76.7217   91.8997 O   0  0  0  0  0  0  0  0  0  0  0  0
   68.4333   74.0361   93.4565 C   0  0  0  0  0  0  0  0  0  0  0  0
   69.3037   75.1195   93.3215 C   0  0  0  0  0  0  0  0  0  0  0  0
   69.6428   75.6814   92.1150 C   0  0  0  0  0  0  0  0  0  0  0  0
   69.0325   75.0691   90.9819 C   0  0  0  0  0  0  0  0  0  0  0  0
   68.1848   74.0131   91.1179 C   0  0  0  0  0  0  0  0  0  0  0  0
   67.8652   73.4739   92.3414 C   0  0  0  0  0  0  0  0  0  0  0  0
   67.0021   72.4057   92.4246 O   0  0  0  0  0  0  0  0  0  0  0  0
   66.6294   72.0427   91.6453 H   0  0  0  0  0  0  0  0  0  0  0  0
   66.9514   73.4654   95.1614 O   0  0  0  0  0  0  0  0  0  0  0  0
   68.1327   73.5090   94.7694 C   0  0  0  0  0  0  0  0  0  0  0  0
   69.1543   73.0616   95.5715 O   0  0  0  0  0  0  0  0  0  0  0  0
   70.0396   73.0988   95.2670 H   0  0  0  0  0  0  0  0  0  0  0  0
 30 31  2  0  0  0
 31 32  1  0  0  0
 31 22  1  0  0  0
 22 23  2  0  0  0
 23 24  1  0  0  0
 24 21  1  0  0  0
 21 20  1  0  0  0
 20  1  1  0  0  0
  1  2  2  0  0  0
  2  3  1  0  0  0
  3  4  2  0  0  0
  4  5  1  0  0  0
  5  7  1  0  0  0
  7  8  2  0  0  0
  8  9  1  0  0  0
  9 10  2  0  0  0
 10 11  1  0  0  0
 11 13  1  0  0  0
 13 14  1  0  0  0
 14 15  1  0  0  0
 15 16  1  0  0  0
 16 17  1  0  0  0
 17 18  1  0  0  0
 18 19  1  0  0  0
 11 12  2  0  0  0
  5  6  2  0  0  0
 24 25  2  0  0  0
 25 26  1  0  0  0
 26 27  2  0  0  0
 27 28  1  0  0  0
 27 22  1  0  0  0
  6  1  1  0  0  0
 12  7  1  0  0  0
 19 14  1  0  0  0
 32 33  1  0  0  0
 28 29  1  0  0  0
M  END
> <score>
-0.786406

> <minimizedAffinity>
-9.27712

> <CNNscore>
0.5672656894

> <CNNaffinity>
6.1370515823

> <CNN_VS>
3.4813387394

$$$$
HIPS6984


 33 36  0  0  0  0  0  0  0  0999 V2000
   67.4265   78.0323   90.5619 C   0  0  0  0  0  0  0  0  0  0  0  0
   66.8047   77.1264   89.7522 C   0  0  0  0  0  0  0  0  0  0  0  0
   66.4436   77.4786   88.4472 C   0  0  0  0  0  0  0  0  0  0  0  0
   66.7281   78.7446   88.0098 C   0  0  0  0  0  0  0  0  0  0  0  0
   67.3592   79.6857   88.8124 C   0  0  0  0  0  0  0  0  0  0  0  0
   67.7081   79.3254   90.0917 C   0  0  0  0  0  0  0  0  0  0  0  0
   67.6307   81.0328   88.2662 C   0  0  0  0  0  0  0  0  0  0  0  0
   67.4205   81.2776   86.9249 C   0  0  0  0  0  0  0  0  0  0  0  0
   67.6844   82.5399   86.4521 C   0  0  0  0  0  0  0  0  0  0  0  0
   68.1511   83.5678   87.2715 C   0  0  0  0  0  0  0  0  0  0  0  0
   68.3649   83.3358   88.6125 C   0  0  0  0  0  0  0  0  0  0  0  0
   68.0909   82.0439   89.0772 C   0  0  0  0  0  0  0  0  0  0  0  0
   68.8212   84.2849   89.4895 O   0  0  0  0  0  0  0  0  0  0  0  0
   70.0435   84.9331   89.5054 C   0  0  0  0  0  0  0  0  0  0  0  0
   71.1409   83.9832   89.0614 C   0  0  0  0  0  0  0  0  0  0  0  0
   71.8548   84.4552   87.8243 C   0  0  0  0  0  0  0  0  0  0  0  0
   72.3315   85.8787   87.9150 C   0  0  0  0  0  0  0  0  0  0  0  0
   71.2605   86.8087   88.3825 C   0  0  0  0  0  0  0  0  0  0  0  0
   69.9619   86.0731   88.4888 C   0  0  0  0  0  0  0  0  0  0  0  0
   67.8432   77.7141   91.9429 C   0  0  0  0  0  0  0  0  0  0  0  0
   66.9687   76.9686   92.6367 O   0  0  0  0  0  0  0  0  0  0  0  0
   67.9285   74.0107   94.6619 C   0  0  0  0  0  0  0  0  0  0  0  0
   67.9668   75.0070   93.6843 C   0  0  0  0  0  0  0  0  0  0  0  0
   67.0051   75.9775   93.5445 C   0  0  0  0  0  0  0  0  0  0  0  0
   65.9386   75.8973   94.4866 C   0  0  0  0  0  0  0  0  0  0  0  0
   65.9050   74.9244   95.4377 C   0  0  0  0  0  0  0  0  0  0  0  0
   66.8849   73.9669   95.5513 C   0  0  0  0  0  0  0  0  0  0  0  0
   66.8041   73.0045   96.5312 O   0  0  0  0  0  0  0  0  0  0  0  0
   66.0790   72.9999   97.1247 H   0  0  0  0  0  0  0  0  0  0  0  0
   69.3543   72.4382   93.7012 O   0  0  0  0  0  0  0  0  0  0  0  0
   68.9873   73.0281   94.7349 C   0  0  0  0  0  0  0  0  0  0  0  0
   69.5779   72.7551   95.9447 O   0  0  0  0  0  0  0  0  0  0  0  0
   69.2944   73.2045   96.7165 H   0  0  0  0  0  0  0  0  0  0  0  0
 30 31  2  0  0  0
 31 32  1  0  0  0
 31 22  1  0  0  0
 22 23  2  0  0  0
 23 24  1  0  0  0
 24 21  1  0  0  0
 21 20  1  0  0  0
 20  1  1  0  0  0
  1  2  2  0  0  0
  2  3  1  0  0  0
  3  4  2  0  0  0
  4  5  1  0  0  0
  5  7  1  0  0  0
  7  8  2  0  0  0
  8  9  1  0  0  0
  9 10  2  0  0  0
 10 11  1  0  0  0
 11 13  1  0  0  0
 13 14  1  0  0  0
 14 15  1  0  0  0
 15 16  1  0  0  0
 16 17  1  0  0  0
 17 18  1  0  0  0
 18 19  1  0  0  0
 11 12  2  0  0  0
  5  6  2  0  0  0
 24 25  2  0  0  0
 25 26  1  0  0  0
 26 27  2  0  0  0
 27 28  1  0  0  0
 27 22  1  0  0  0
  6  1  1  0  0  0
 12  7  1  0  0  0
 19 14  1  0  0  0
 32 33  1  0  0  0
 28 29  1  0  0  0
M  END
> <score>
-0.786406

> <minimizedAffinity>
-8.42091

> <CNNscore>
0.5581408739

> <CNNaffinity>
6.0752086639

> <CNN_VS>
3.3908221722

$$$$
HIPS6985


 32 35  0  0  0  0  0  0  0  0999 V2000
   66.6706   79.9890   90.9726 C   0  0  0  0  0  0  0  0  0  0  0  0
   65.9381   79.6424   89.8728 C   0  0  0  0  0  0  0  0  0  0  0  0
   66.4220   80.0247   88.6302 C   0  0  0  0  0  0  0  0  0  0  0  0
   67.6058   80.7351   88.4884 C   0  0  0  0  0  0  0  0  0  0  0  0
   68.3529   81.0905   89.5922 C   0  0  0  0  0  0  0  0  0  0  0  0
   67.8668   80.7075   90.8216 C   0  0  0  0  0  0  0  0  0  0  0  0
   69.6003   81.8356   89.4895 C   0  0  0  0  0  0  0  0  0  0  0  0
   70.5375   81.7458   90.4989 C   0  0  0  0  0  0  0  0  0  0  0  0
   71.7408   82.4520   90.4190 C   0  0  0  0  0  0  0  0  0  0  0  0
   72.0034   83.2474   89.3278 C   0  0  0  0  0  0  0  0  0  0  0  0
   71.0919   83.3608   88.3023 C   0  0  0  0  0  0  0  0  0  0  0  0
   69.8975   82.6377   88.4187 C   0  0  0  0  0  0  0  0  0  0  0  0
   71.2916   84.1414   87.1780 O   0  0  0  0  0  0  0  0  0  0  0  0
   70.8798   85.4613   86.9874 C   0  0  0  0  0  0  0  0  0  0  0  0
   71.5029   86.3173   88.0756 C   0  0  0  0  0  0  0  0  0  0  0  0
   70.3897   86.9905   88.8117 C   0  0  0  0  0  0  0  0  0  0  0  0
   69.1362   86.2456   88.4622 C   0  0  0  0  0  0  0  0  0  0  0  0
   69.3779   85.6254   87.1044 C   0  0  0  0  0  0  0  0  0  0  0  0
   66.2290   79.6072   92.3424 C   0  0  0  0  0  0  0  0  0  0  0  0
   66.9577   78.7402   93.0395 O   0  0  0  0  0  0  0  0  0  0  0  0
   68.2876   75.4077   93.6948 C   0  0  0  0  0  0  0  0  0  0  0  0
   68.1947   76.7172   93.3407 C   0  0  0  0  0  0  0  0  0  0  0  0
   66.9804   77.4503   93.4023 C   0  0  0  0  0  0  0  0  0  0  0  0
   65.8500   76.8075   93.8396 C   0  0  0  0  0  0  0  0  0  0  0  0
   65.9391   75.4663   94.2033 C   0  0  0  0  0  0  0  0  0  0  0  0
   67.1303   74.7840   94.1322 C   0  0  0  0  0  0  0  0  0  0  0  0
   67.1271   73.4385   94.5179 O   0  0  0  0  0  0  0  0  0  0  0  0
   66.3327   73.0369   94.8105 H   0  0  0  0  0  0  0  0  0  0  0  0
   69.8889   73.9090   94.5846 O   0  0  0  0  0  0  0  0  0  0  0  0
   69.5319   74.6523   93.6332 C   0  0  0  0  0  0  0  0  0  0  0  0
   70.3578   74.7352   92.5166 O   0  0  0  0  0  0  0  0  0  0  0  0
   70.1158   75.2809   91.7944 H   0  0  0  0  0  0  0  0  0  0  0  0
 29 30  2  0  0  0
 30 31  1  0  0  0
 30 21  1  0  0  0
 21 22  2  0  0  0
 22 23  1  0  0  0
 23 20  1  0  0  0
 20 19  1  0  0  0
 19  1  1  0  0  0
  1  2  2  0  0  0
  2  3  1  0  0  0
  3  4  2  0  0  0
  4  5  1  0  0  0
  5  7  1  0  0  0
  7  8  2  0  0  0
  8  9  1  0  0  0
  9 10  2  0  0  0
 10 11  1  0  0  0
 11 13  1  0  0  0
 13 14  1  0  0  0
 14 15  1  0  0  0
 15 16  1  0  0  0
 16 17  1  0  0  0
 17 18  1  0  0  0
 11 12  2  0  0  0
  5  6  2  0  0  0
 23 24  2  0  0  0
 24 25  1  0  0  0
 25 26  2  0  0  0
 26 27  1  0  0  0
 26 21  1  0  0  0
  6  1  1  0  0  0
 12  7  1  0  0  0
 18 14  1  0  0  0
 31 32  1  0  0  0
 27 28  1  0  0  0
M  END
> <score>
-0.646155

> <minimizedAffinity>
-8.52741

> <CNNscore>
0.7047114968

> <CNNaffinity>
6.1427717209

> <CNN_VS>
4.3288817406

$$$$
HIPS6985


 32 35  0  0  0  0  0  0  0  0999 V2000
   67.0797   79.0620   89.1083 C   0  0  0  0  0  0  0  0  0  0  0  0
   66.0288   79.4762   89.8766 C   0  0  0  0  0  0  0  0  0  0  0  0
   66.1523   80.6905   90.5357 C   0  0  0  0  0  0  0  0  0  0  0  0
   67.2950   81.4713   90.4318 C   0  0  0  0  0  0  0  0  0  0  0  0
   68.3621   81.0622   89.6592 C   0  0  0  0  0  0  0  0  0  0  0  0
   68.2323   79.8567   89.0079 C   0  0  0  0  0  0  0  0  0  0  0  0
   69.5798   81.8496   89.5221 C   0  0  0  0  0  0  0  0  0  0  0  0
   70.5156   81.8472   90.5368 C   0  0  0  0  0  0  0  0  0  0  0  0
   71.6907   82.5952   90.4242 C   0  0  0  0  0  0  0  0  0  0  0  0
   71.9266   83.3447   89.2951 C   0  0  0  0  0  0  0  0  0  0  0  0
   71.0157   83.3709   88.2632 C   0  0  0  0  0  0  0  0  0  0  0  0
   69.8500   82.6083   88.4130 C   0  0  0  0  0  0  0  0  0  0  0  0
   71.1894   84.1016   87.1017 O   0  0  0  0  0  0  0  0  0  0  0  0
   70.8850   85.4492   86.9032 C   0  0  0  0  0  0  0  0  0  0  0  0
   71.6430   86.2663   87.9341 C   0  0  0  0  0  0  0  0  0  0  0  0
   70.6378   87.0498   88.7152 C   0  0  0  0  0  0  0  0  0  0  0  0
   69.3055   86.4133   88.4542 C   0  0  0  0  0  0  0  0  0  0  0  0
   69.4126   85.7487   87.1001 C   0  0  0  0  0  0  0  0  0  0  0  0
   67.0244   77.7773   88.3577 C   0  0  0  0  0  0  0  0  0  0  0  0
   67.0011   76.6326   89.0343 O   0  0  0  0  0  0  0  0  0  0  0  0
   69.5026   75.7183   91.5263 C   0  0  0  0  0  0  0  0  0  0  0  0
   68.6846   76.4470   90.7210 C   0  0  0  0  0  0  0  0  0  0  0  0
   67.7814   75.8561   89.7986 C   0  0  0  0  0  0  0  0  0  0  0  0
   67.7323   74.4874   89.7172 C   0  0  0  0  0  0  0  0  0  0  0  0
   68.5680   73.7359   90.5392 C   0  0  0  0  0  0  0  0  0  0  0  0
   69.4321   74.3384   91.4224 C   0  0  0  0  0  0  0  0  0  0  0  0
   70.2350   73.5049   92.2097 O   0  0  0  0  0  0  0  0  0  0  0  0
   70.1706   72.5741   92.1227 H   0  0  0  0  0  0  0  0  0  0  0  0
   70.1666   76.3638   93.7046 O   0  0  0  0  0  0  0  0  0  0  0  0
   70.4305   76.3210   92.4742 C   0  0  0  0  0  0  0  0  0  0  0  0
   71.6348   76.8657   92.0397 O   0  0  0  0  0  0  0  0  0  0  0  0
   71.8559   76.8471   91.1294 H   0  0  0  0  0  0  0  0  0  0  0  0
 29 30  2  0  0  0
 30 31  1  0  0  0
 30 21  1  0  0  0
 21 22  2  0  0  0
 22 23  1  0  0  0
 23 20  1  0  0  0
 20 19  1  0  0  0
 19  1  1  0  0  0
  1  2  2  0  0  0
  2  3  1  0  0  0
  3  4  2  0  0  0
  4  5  1  0  0  0
  5  7  1  0  0  0
  7  8  2  0  0  0
  8  9  1  0  0  0
  9 10  2  0  0  0
 10 11  1  0  0  0
 11 13  1  0  0  0
 13 14  1  0  0  0
 14 15  1  0  0  0
 15 16  1  0  0  0
 16 17  1  0  0  0
 17 18  1  0  0  0
 11 12  2  0  0  0
  5  6  2  0  0  0
 23 24  2  0  0  0
 24 25  1  0  0  0
 25 26  2  0  0  0
 26 27  1  0  0  0
 26 21  1  0  0  0
  6  1  1  0  0  0
 12  7  1  0  0  0
 18 14  1  0  0  0
 31 32  1  0  0  0
 27 28  1  0  0  0
M  END
> <score>
-0.646155

> <minimizedAffinity>
-8.72839

> <CNNscore>
0.6302046776

> <CNNaffinity>
6.3071985245

> <CNN_VS>
3.9748260975

$$$$
HIPS6985


 32 35  0  0  0  0  0  0  0  0999 V2000
   67.2361   78.6606   89.9826 C   0  0  0  0  0  0  0  0  0  0  0  0
   66.9001   79.3559   88.8556 C   0  0  0  0  0  0  0  0  0  0  0  0
   66.6404   78.6281   87.7036 C   0  0  0  0  0  0  0  0  0  0  0  0
   66.7145   77.2425   87.6762 C   0  0  0  0  0  0  0  0  0  0  0  0
   67.0533   76.5308   88.8082 C   0  0  0  0  0  0  0  0  0  0  0  0
   67.3092   77.2594   89.9475 C   0  0  0  0  0  0  0  0  0  0  0  0
   67.1431   75.0770   88.8243 C   0  0  0  0  0  0  0  0  0  0  0  0
   67.6415   74.4333   89.9390 C   0  0  0  0  0  0  0  0  0  0  0  0
   67.7350   73.0393   89.9746 C   0  0  0  0  0  0  0  0  0  0  0  0
   67.3291   72.2922   88.8932 C   0  0  0  0  0  0  0  0  0  0  0  0
   66.8270   72.9003   87.7647 C   0  0  0  0  0  0  0  0  0  0  0  0
   66.7488   74.2992   87.7669 C   0  0  0  0  0  0  0  0  0  0  0  0
   66.4013   72.2108   86.6438 O   0  0  0  0  0  0  0  0  0  0  0  0
   67.1866   71.7812   85.5729 C   0  0  0  0  0  0  0  0  0  0  0  0
   66.2635   71.3507   84.4470 C   0  0  0  0  0  0  0  0  0  0  0  0
   66.5807   69.9261   84.1243 C   0  0  0  0  0  0  0  0  0  0  0  0
   67.3623   69.3901   85.2863 C   0  0  0  0  0  0  0  0  0  0  0  0
   68.0427   70.5809   85.9233 C   0  0  0  0  0  0  0  0  0  0  0  0
   67.5184   79.3636   91.2645 C   0  0  0  0  0  0  0  0  0  0  0  0
   67.1166   78.8135   92.4067 O   0  0  0  0  0  0  0  0  0  0  0  0
   68.2550   75.6327   93.7815 C   0  0  0  0  0  0  0  0  0  0  0  0
   68.2379   76.8405   93.1573 C   0  0  0  0  0  0  0  0  0  0  0  0
   67.0646   77.6302   93.0335 C   0  0  0  0  0  0  0  0  0  0  0  0
   65.8952   77.1521   93.5688 C   0  0  0  0  0  0  0  0  0  0  0  0
   65.9066   75.9156   94.2089 C   0  0  0  0  0  0  0  0  0  0  0  0
   67.0598   75.1746   94.3121 C   0  0  0  0  0  0  0  0  0  0  0  0
   66.9785   73.9431   94.9724 O   0  0  0  0  0  0  0  0  0  0  0  0
   66.1597   73.6530   95.3236 H   0  0  0  0  0  0  0  0  0  0  0  0
   70.1930   74.5847   92.9165 O   0  0  0  0  0  0  0  0  0  0  0  0
   69.4570   74.8196   93.9107 C   0  0  0  0  0  0  0  0  0  0  0  0
   69.8209   74.2817   95.1411 O   0  0  0  0  0  0  0  0  0  0  0  0
   69.2910   74.4410   95.8972 H   0  0  0  0  0  0  0  0  0  0  0  0
 29 30  2  0  0  0
 30 31  1  0  0  0
 30 21  1  0  0  0
 21 22  2  0  0  0
 22 23  1  0  0  0
 23 20  1  0  0  0
 20 19  1  0  0  0
 19  1  1  0  0  0
  1  2  2  0  0  0
  2  3  1  0  0  0
  3  4  2  0  0  0
  4  5  1  0  0  0
  5  7  1  0  0  0
  7  8  2  0  0  0
  8  9  1  0  0  0
  9 10  2  0  0  0
 10 11  1  0  0  0
 11 13  1  0  0  0
 13 14  1  0  0  0
 14 15  1  0  0  0
 15 16  1  0  0  0
 16 17  1  0  0  0
 17 18  1  0  0  0
 11 12  2  0  0  0
  5  6  2  0  0  0
 23 24  2  0  0  0
 24 25  1  0  0  0
 25 26  2  0  0  0
 26 27  1  0  0  0
 26 21  1  0  0  0
  6  1  1  0  0  0
 12  7  1  0  0  0
 18 14  1  0  0  0
 31 32  1  0  0  0
 27 28  1  0  0  0
M  END
> <score>
-0.646155

> <minimizedAffinity>
-8.91431

> <CNNscore>
0.5946496129

> <CNNaffinity>
6.3321046829

> <CNN_VS>
3.7653834820

$$$$
HIPS6986


 30 32  0  0  0  0  0  0  0  0999 V2000
   70.5045   79.4523   90.3942 C   0  0  0  0  0  0  0  0  0  0  0  0
   71.5944   78.5823   90.5755 C   0  0  0  0  0  0  0  0  0  0  0  0
   71.3821   77.2420   90.9059 C   0  0  0  0  0  0  0  0  0  0  0  0
   70.0838   76.7548   91.0663 C   0  0  0  0  0  0  0  0  0  0  0  0
   68.9835   77.6098   90.9041 C   0  0  0  0  0  0  0  0  0  0  0  0
   69.1990   78.9527   90.5541 C   0  0  0  0  0  0  0  0  0  0  0  0
   69.8878   83.0102   89.1838 C   0  0  0  0  0  0  0  0  0  0  0  0
   71.1538   83.5729   89.3780 C   0  0  0  0  0  0  0  0  0  0  0  0
   72.2002   82.8060   89.8925 C   0  0  0  0  0  0  0  0  0  0  0  0
   71.9918   81.4659   90.2223 C   0  0  0  0  0  0  0  0  0  0  0  0
   70.7277   80.8779   90.0433 C   0  0  0  0  0  0  0  0  0  0  0  0
   69.6776   81.6584   89.5240 C   0  0  0  0  0  0  0  0  0  0  0  0
   68.8755   83.8317   88.6595 O   0  0  0  0  0  0  0  0  0  0  0  0
   67.3333   84.0426   86.8289 C   0  0  0  0  0  0  0  0  0  0  0  0
   68.7683   84.2670   87.3020 C   0  0  0  0  0  0  0  0  0  0  0  0
   69.1366   85.7501   87.1892 C   0  0  0  0  0  0  0  0  0  0  0  0
   67.5803   77.0899   91.0761 C   0  0  0  0  0  0  0  0  0  0  0  0
   67.1261   77.2844   92.4163 O   0  0  0  0  0  0  0  0  0  0  0  0
   67.0175   76.2783   93.3903 C   0  0  0  0  0  0  0  0  0  0  0  0
   65.8604   76.0965   94.1661 C   0  0  0  0  0  0  0  0  0  0  0  0
   65.8000   75.0679   95.1067 C   0  0  0  0  0  0  0  0  0  0  0  0
   66.8848   74.2048   95.2936 C   0  0  0  0  0  0  0  0  0  0  0  0
   66.7281   73.1477   96.1925 O   0  0  0  0  0  0  0  0  0  0  0  0
   68.0743   74.4054   94.5520 C   0  0  0  0  0  0  0  0  0  0  0  0
   68.1141   75.4339   93.5927 C   0  0  0  0  0  0  0  0  0  0  0  0
   65.9247   73.0493   96.6645 H   0  0  0  0  0  0  0  0  0  0  0  0
   69.2922   73.5958   94.7740 C   0  0  0  0  0  0  0  0  0  0  0  0
   69.3829   72.8606   95.7944 O   0  0  0  0  0  0  0  0  0  0  0  0
   70.3196   73.5890   93.8352 O   0  0  0  0  0  0  0  0  0  0  0  0
   70.2618   74.1317   93.0735 H   0  0  0  0  0  0  0  0  0  0  0  0
 14 15  1  0  0  0
 15 16  1  0  0  0
 15 13  1  0  0  0
 13  7  1  0  0  0
  7  8  2  0  0  0
  8  9  1  0  0  0
  9 10  2  0  0  0
 10 11  1  0  0  0
 11  1  1  0  0  0
  1  2  2  0  0  0
  2  3  1  0  0  0
  3  4  2  0  0  0
  4  5  1  0  0  0
  5 17  1  0  0  0
 17 18  1  0  0  0
 18 19  1  0  0  0
 19 20  2  0  0  0
 20 21  1  0  0  0
 21 22  2  0  0  0
 22 23  1  0  0  0
 22 24  1  0  0  0
 24 27  1  0  0  0
 27 28  2  0  0  0
 27 29  1  0  0  0
 24 25  2  0  0  0
  5  6  2  0  0  0
 11 12  2  0  0  0
 12  7  1  0  0  0
  6  1  1  0  0  0
 25 19  1  0  0  0
 23 26  1  0  0  0
 29 30  1  0  0  0
M  END
> <score>
-0.442309

> <minimizedAffinity>
-8.83518

> <CNNscore>
0.7068837881

> <CNNaffinity>
5.8648004532

> <CNN_VS>
4.1457324028

$$$$
HIPS6986


 30 32  0  0  0  0  0  0  0  0999 V2000
   67.6249   80.1135   88.7151 C   0  0  0  0  0  0  0  0  0  0  0  0
   66.9895   79.2655   87.7904 C   0  0  0  0  0  0  0  0  0  0  0  0
   66.5952   77.9792   88.1653 C   0  0  0  0  0  0  0  0  0  0  0  0
   66.8349   77.5204   89.4618 C   0  0  0  0  0  0  0  0  0  0  0  0
   67.4804   78.3455   90.3949 C   0  0  0  0  0  0  0  0  0  0  0  0
   67.8596   79.6449   90.0208 C   0  0  0  0  0  0  0  0  0  0  0  0
   69.5850   83.3731   88.5235 C   0  0  0  0  0  0  0  0  0  0  0  0
   68.8365   84.0696   87.5688 C   0  0  0  0  0  0  0  0  0  0  0  0
   67.7038   83.4910   86.9944 C   0  0  0  0  0  0  0  0  0  0  0  0
   67.3072   82.2055   87.3666 C   0  0  0  0  0  0  0  0  0  0  0  0
   68.0454   81.4814   88.3186 C   0  0  0  0  0  0  0  0  0  0  0  0
   69.1868   82.0722   88.8929 C   0  0  0  0  0  0  0  0  0  0  0  0
   70.7132   84.0095   89.0682 O   0  0  0  0  0  0  0  0  0  0  0  0
   72.3078   85.5378   88.1220 C   0  0  0  0  0  0  0  0  0  0  0  0
   72.0080   84.0801   88.4662 C   0  0  0  0  0  0  0  0  0  0  0  0
   73.0704   83.5339   89.4259 C   0  0  0  0  0  0  0  0  0  0  0  0
   67.7419   77.8560   91.7952 C   0  0  0  0  0  0  0  0  0  0  0  0
   66.7123   76.9632   92.2229 O   0  0  0  0  0  0  0  0  0  0  0  0
   66.8124   76.0645   93.2976 C   0  0  0  0  0  0  0  0  0  0  0  0
   65.8245   75.9581   94.2909 C   0  0  0  0  0  0  0  0  0  0  0  0
   65.9662   75.0337   95.3262 C   0  0  0  0  0  0  0  0  0  0  0  0
   67.0888   74.2018   95.3937 C   0  0  0  0  0  0  0  0  0  0  0  0
   67.1290   73.2441   96.4091 O   0  0  0  0  0  0  0  0  0  0  0  0
   68.1144   74.3307   94.4259 C   0  0  0  0  0  0  0  0  0  0  0  0
   67.9488   75.2528   93.3762 C   0  0  0  0  0  0  0  0  0  0  0  0
   66.4300   73.1909   97.0309 H   0  0  0  0  0  0  0  0  0  0  0  0
   69.3727   73.5565   94.4973 C   0  0  0  0  0  0  0  0  0  0  0  0
   70.2415   73.6808   93.5919 O   0  0  0  0  0  0  0  0  0  0  0  0
   69.6376   72.7337   95.5881 O   0  0  0  0  0  0  0  0  0  0  0  0
   68.9987   72.6345   96.2662 H   0  0  0  0  0  0  0  0  0  0  0  0
 14 15  1  0  0  0
 15 16  1  0  0  0
 15 13  1  0  0  0
 13  7  1  0  0  0
  7  8  2  0  0  0
  8  9  1  0  0  0
  9 10  2  0  0  0
 10 11  1  0  0  0
 11  1  1  0  0  0
  1  2  2  0  0  0
  2  3  1  0  0  0
  3  4  2  0  0  0
  4  5  1  0  0  0
  5 17  1  0  0  0
 17 18  1  0  0  0
 18 19  1  0  0  0
 19 20  2  0  0  0
 20 21  1  0  0  0
 21 22  2  0  0  0
 22 23  1  0  0  0
 22 24  1  0  0  0
 24 27  1  0  0  0
 27 28  2  0  0  0
 27 29  1  0  0  0
 24 25  2  0  0  0
  5  6  2  0  0  0
 11 12  2  0  0  0
 12  7  1  0  0  0
  6  1  1  0  0  0
 25 19  1  0  0  0
 23 26  1  0  0  0
 29 30  1  0  0  0
M  END
> <score>
-0.442309

> <minimizedAffinity>
-8.40716

> <CNNscore>
0.6713135242

> <CNNaffinity>
5.8727025986

> <CNN_VS>
3.9424247742

$$$$
HIPS6986


 30 32  0  0  0  0  0  0  0  0999 V2000
   69.0501   81.9007   88.7441 C   0  0  0  0  0  0  0  0  0  0  0  0
   68.3233   82.1863   87.5745 C   0  0  0  0  0  0  0  0  0  0  0  0
   67.0614   81.6235   87.3708 C   0  0  0  0  0  0  0  0  0  0  0  0
   66.5122   80.7653   88.3251 C   0  0  0  0  0  0  0  0  0  0  0  0
   67.2272   80.4563   89.4919 C   0  0  0  0  0  0  0  0  0  0  0  0
   68.4881   81.0377   89.7027 C   0  0  0  0  0  0  0  0  0  0  0  0
   72.1043   84.1460   88.3781 C   0  0  0  0  0  0  0  0  0  0  0  0
   72.9320   83.6222   89.3769 C   0  0  0  0  0  0  0  0  0  0  0  0
   72.5070   82.5480   90.1600 C   0  0  0  0  0  0  0  0  0  0  0  0
   71.2460   81.9858   89.9552 C   0  0  0  0  0  0  0  0  0  0  0  0
   70.3922   82.4975   88.9628 C   0  0  0  0  0  0  0  0  0  0  0  0
   70.8284   83.5813   88.1775 C   0  0  0  0  0  0  0  0  0  0  0  0
   72.5890   85.2255   87.6204 O   0  0  0  0  0  0  0  0  0  0  0  0
   70.8633   86.6519   88.4929 C   0  0  0  0  0  0  0  0  0  0  0  0
   72.2107   86.5954   87.7756 C   0  0  0  0  0  0  0  0  0  0  0  0
   73.2716   87.3513   88.5825 C   0  0  0  0  0  0  0  0  0  0  0  0
   66.6399   79.5308   90.5251 C   0  0  0  0  0  0  0  0  0  0  0  0
   66.8232   78.1653   90.1482 O   0  0  0  0  0  0  0  0  0  0  0  0
   67.7131   77.2672   90.7598 C   0  0  0  0  0  0  0  0  0  0  0  0
   67.2907   76.0604   91.3422 C   0  0  0  0  0  0  0  0  0  0  0  0
   68.2212   75.1958   91.9194 C   0  0  0  0  0  0  0  0  0  0  0  0
   69.5833   75.5138   91.9293 C   0  0  0  0  0  0  0  0  0  0  0  0
   70.4688   74.5679   92.4499 O   0  0  0  0  0  0  0  0  0  0  0  0
   70.0176   76.7481   91.3877 C   0  0  0  0  0  0  0  0  0  0  0  0
   69.0710   77.6011   90.7909 C   0  0  0  0  0  0  0  0  0  0  0  0
   70.1416   73.7625   92.7995 H   0  0  0  0  0  0  0  0  0  0  0  0
   71.4268   77.1921   91.4584 C   0  0  0  0  0  0  0  0  0  0  0  0
   72.0467   77.1495   92.5555 O   0  0  0  0  0  0  0  0  0  0  0  0
   72.0991   77.6017   90.3106 O   0  0  0  0  0  0  0  0  0  0  0  0
   71.6475   77.6368   89.4904 H   0  0  0  0  0  0  0  0  0  0  0  0
 14 15  1  0  0  0
 15 16  1  0  0  0
 15 13  1  0  0  0
 13  7  1  0  0  0
  7  8  2  0  0  0
  8  9  1  0  0  0
  9 10  2  0  0  0
 10 11  1  0  0  0
 11  1  1  0  0  0
  1  2  2  0  0  0
  2  3  1  0  0  0
  3  4  2  0  0  0
  4  5  1  0  0  0
  5 17  1  0  0  0
 17 18  1  0  0  0
 18 19  1  0  0  0
 19 20  2  0  0  0
 20 21  1  0  0  0
 21 22  2  0  0  0
 22 23  1  0  0  0
 22 24  1  0  0  0
 24 27  1  0  0  0
 27 28  2  0  0  0
 27 29  1  0  0  0
 24 25  2  0  0  0
  5  6  2  0  0  0
 11 12  2  0  0  0
 12  7  1  0  0  0
  6  1  1  0  0  0
 25 19  1  0  0  0
 23 26  1  0  0  0
 29 30  1  0  0  0
M  END
> <score>
-0.442309

> <minimizedAffinity>
-8.02274

> <CNNscore>
0.6687373519

> <CNNaffinity>
6.0841236115

> <CNN_VS>
4.0686807632

$$$$
HIPS6987


 33 36  0  0  0  0  0  0  0  0999 V2000
   68.8007   77.8939   90.7239 C   0  0  0  0  0  0  0  0  0  0  0  0
   69.8417   76.9589   90.8230 C   0  0  0  0  0  0  0  0  0  0  0  0
   71.1693   77.3660   90.6742 C   0  0  0  0  0  0  0  0  0  0  0  0
   71.4690   78.7081   90.4292 C   0  0  0  0  0  0  0  0  0  0  0  0
   70.4373   79.6540   90.3074 C   0  0  0  0  0  0  0  0  0  0  0  0
   69.1032   79.2347   90.4379 C   0  0  0  0  0  0  0  0  0  0  0  0
   70.7487   81.0848   90.0904 C   0  0  0  0  0  0  0  0  0  0  0  0
   72.0822   81.5190   90.0006 C   0  0  0  0  0  0  0  0  0  0  0  0
   72.3708   82.8674   89.7765 C   0  0  0  0  0  0  0  0  0  0  0  0
   71.3342   83.7894   89.6153 C   0  0  0  0  0  0  0  0  0  0  0  0
   70.0005   83.3695   89.6667 C   0  0  0  0  0  0  0  0  0  0  0  0
   69.7108   82.0199   89.9352 C   0  0  0  0  0  0  0  0  0  0  0  0
   68.9859   84.3188   89.4802 O   0  0  0  0  0  0  0  0  0  0  0  0
   69.1699   85.7099   89.4674 C   0  0  0  0  0  0  0  0  0  0  0  0
   69.6261   86.4048   88.3359 C   0  0  0  0  0  0  0  0  0  0  0  0
   69.8110   87.7492   88.3941 N   0  0  0  0  0  0  0  0  0  0  0  0
   69.5642   88.4389   89.5376 C   0  0  0  0  0  0  0  0  0  0  0  0
   69.1368   87.7845   90.6483 N   0  0  0  0  0  0  0  0  0  0  0  0
   68.9407   86.4404   90.6346 C   0  0  0  0  0  0  0  0  0  0  0  0
   67.3754   77.4659   90.9589 C   0  0  0  0  0  0  0  0  0  0  0  0
   67.0245   77.6057   92.3370 O   0  0  0  0  0  0  0  0  0  0  0  0
   68.0678   74.6596   94.4097 C   0  0  0  0  0  0  0  0  0  0  0  0
   68.1311   75.7256   93.4931 C   0  0  0  0  0  0  0  0  0  0  0  0
   67.0233   76.5691   93.2863 C   0  0  0  0  0  0  0  0  0  0  0  0
   65.8648   76.3661   94.0392 C   0  0  0  0  0  0  0  0  0  0  0  0
   65.8003   75.3359   94.9778 C   0  0  0  0  0  0  0  0  0  0  0  0
   66.8941   74.4883   95.1835 C   0  0  0  0  0  0  0  0  0  0  0  0
   66.7887   73.5203   96.1845 O   0  0  0  0  0  0  0  0  0  0  0  0
   65.9946   73.4382   96.6750 H   0  0  0  0  0  0  0  0  0  0  0  0
   69.2892   72.9010   95.4419 O   0  0  0  0  0  0  0  0  0  0  0  0
   69.2138   73.7262   94.4914 C   0  0  0  0  0  0  0  0  0  0  0  0
   70.2491   73.7926   93.5632 O   0  0  0  0  0  0  0  0  0  0  0  0
   70.2032   74.4021   92.8530 H   0  0  0  0  0  0  0  0  0  0  0  0
 30 31  2  0  0  0
 31 32  1  0  0  0
 31 22  1  0  0  0
 22 23  2  0  0  0
 23 24  1  0  0  0
 24 21  1  0  0  0
 21 20  1  0  0  0
 20  1  1  0  0  0
  1  2  2  0  0  0
  2  3  1  0  0  0
  3  4  2  0  0  0
  4  5  1  0  0  0
  5  7  1  0  0  0
  7  8  2  0  0  0
  8  9  1  0  0  0
  9 10  2  0  0  0
 10 11  1  0  0  0
 11 13  1  0  0  0
 13 14  1  0  0  0
 14 15  2  0  0  0
 15 16  2  0  0  0
 16 17  2  0  0  0
 17 18  2  0  0  0
 18 19  2  0  0  0
 11 12  2  0  0  0
  5  6  2  0  0  0
 24 25  2  0  0  0
 25 26  1  0  0  0
 26 27  2  0  0  0
 27 28  1  0  0  0
 27 22  1  0  0  0
  6  1  1  0  0  0
 12  7  1  0  0  0
 19 14  1  0  0  0
 32 33  1  0  0  0
 28 29  1  0  0  0
M  END
> <score>
0.113247

> <minimizedAffinity>
-8.54968

> <CNNscore>
0.5932295322

> <CNNaffinity>
6.0945186615

> <CNN_VS>
3.6154484749

$$$$
HIPS6987


 33 36  0  0  0  0  0  0  0  0999 V2000
   67.6961   78.3477   89.9241 C   0  0  0  0  0  0  0  0  0  0  0  0
   67.1429   77.5561   88.9067 C   0  0  0  0  0  0  0  0  0  0  0  0
   66.7800   78.1310   87.6869 C   0  0  0  0  0  0  0  0  0  0  0  0
   66.9692   79.4980   87.4710 C   0  0  0  0  0  0  0  0  0  0  0  0
   67.5037   80.3087   88.4863 C   0  0  0  0  0  0  0  0  0  0  0  0
   67.8477   79.7281   89.7181 C   0  0  0  0  0  0  0  0  0  0  0  0
   67.7468   81.7498   88.2503 C   0  0  0  0  0  0  0  0  0  0  0  0
   67.4451   82.3297   87.0063 C   0  0  0  0  0  0  0  0  0  0  0  0
   67.6582   83.6940   86.7945 C   0  0  0  0  0  0  0  0  0  0  0  0
   68.1498   84.4960   87.8270 C   0  0  0  0  0  0  0  0  0  0  0  0
   68.4228   83.9427   89.0828 C   0  0  0  0  0  0  0  0  0  0  0  0
   68.2488   82.5616   89.2820 C   0  0  0  0  0  0  0  0  0  0  0  0
   68.8956   84.7813   90.1019 O   0  0  0  0  0  0  0  0  0  0  0  0
   68.1046   85.6503   90.8689 C   0  0  0  0  0  0  0  0  0  0  0  0
   66.7673   85.3720   91.1936 C   0  0  0  0  0  0  0  0  0  0  0  0
   66.0442   86.2664   91.9163 N   0  0  0  0  0  0  0  0  0  0  0  0
   66.5948   87.4364   92.3310 C   0  0  0  0  0  0  0  0  0  0  0  0
   67.8820   87.7326   92.0150 N   0  0  0  0  0  0  0  0  0  0  0  0
   68.6403   86.8677   91.2924 C   0  0  0  0  0  0  0  0  0  0  0  0
   68.1556   77.7125   91.2107 C   0  0  0  0  0  0  0  0  0  0  0  0
   67.0479   77.1722   91.9336 O   0  0  0  0  0  0  0  0  0  0  0  0
   68.3454   74.4846   94.2046 C   0  0  0  0  0  0  0  0  0  0  0  0
   68.3192   75.4977   93.2281 C   0  0  0  0  0  0  0  0  0  0  0  0
   67.1315   76.1973   92.9427 C   0  0  0  0  0  0  0  0  0  0  0  0
   65.9790   75.9071   93.6760 C   0  0  0  0  0  0  0  0  0  0  0  0
   65.9994   74.9307   94.6723 C   0  0  0  0  0  0  0  0  0  0  0  0
   67.1737   74.2254   94.9565 C   0  0  0  0  0  0  0  0  0  0  0  0
   67.1444   73.3096   96.0104 O   0  0  0  0  0  0  0  0  0  0  0  0
   66.3489   73.1659   96.4842 H   0  0  0  0  0  0  0  0  0  0  0  0
   69.9786   73.3726   95.5258 O   0  0  0  0  0  0  0  0  0  0  0  0
   69.5851   73.6931   94.3716 C   0  0  0  0  0  0  0  0  0  0  0  0
   70.3620   73.3524   93.2679 O   0  0  0  0  0  0  0  0  0  0  0  0
   70.0790   73.5857   92.4057 H   0  0  0  0  0  0  0  0  0  0  0  0
 30 31  2  0  0  0
 31 32  1  0  0  0
 31 22  1  0  0  0
 22 23  2  0  0  0
 23 24  1  0  0  0
 24 21  1  0  0  0
 21 20  1  0  0  0
 20  1  1  0  0  0
  1  2  2  0  0  0
  2  3  1  0  0  0
  3  4  2  0  0  0
  4  5  1  0  0  0
  5  7  1  0  0  0
  7  8  2  0  0  0
  8  9  1  0  0  0
  9 10  2  0  0  0
 10 11  1  0  0  0
 11 13  1  0  0  0
 13 14  1  0  0  0
 14 15  2  0  0  0
 15 16  2  0  0  0
 16 17  2  0  0  0
 17 18  2  0  0  0
 18 19  2  0  0  0
 11 12  2  0  0  0
  5  6  2  0  0  0
 24 25  2  0  0  0
 25 26  1  0  0  0
 26 27  2  0  0  0
 27 28  1  0  0  0
 27 22  1  0  0  0
  6  1  1  0  0  0
 12  7  1  0  0  0
 19 14  1  0  0  0
 32 33  1  0  0  0
 28 29  1  0  0  0
M  END
> <score>
0.113247

> <minimizedAffinity>
-7.63902

> <CNNscore>
0.5823005438

> <CNNaffinity>
6.1850442886

> <CNN_VS>
3.6015546322

$$$$
HIPS6987


 33 36  0  0  0  0  0  0  0  0999 V2000
   66.6519   78.8235   89.4488 C   0  0  0  0  0  0  0  0  0  0  0  0
   66.6477   78.8604   90.8511 C   0  0  0  0  0  0  0  0  0  0  0  0
   66.9603   80.0433   91.5245 C   0  0  0  0  0  0  0  0  0  0  0  0
   67.2757   81.1984   90.8053 C   0  0  0  0  0  0  0  0  0  0  0  0
   67.3039   81.1735   89.4009 C   0  0  0  0  0  0  0  0  0  0  0  0
   67.0084   79.9755   88.7299 C   0  0  0  0  0  0  0  0  0  0  0  0
   67.5955   82.4039   88.6311 C   0  0  0  0  0  0  0  0  0  0  0  0
   67.3445   82.4572   87.2495 C   0  0  0  0  0  0  0  0  0  0  0  0
   67.6033   83.6269   86.5308 C   0  0  0  0  0  0  0  0  0  0  0  0
   68.0903   84.7600   87.1863 C   0  0  0  0  0  0  0  0  0  0  0  0
   68.3130   84.7363   88.5674 C   0  0  0  0  0  0  0  0  0  0  0  0
   68.0932   83.5456   89.2825 C   0  0  0  0  0  0  0  0  0  0  0  0
   68.7828   85.8982   89.1958 O   0  0  0  0  0  0  0  0  0  0  0  0
   70.0257   86.5035   88.9556 C   0  0  0  0  0  0  0  0  0  0  0  0
   70.2419   87.8818   89.1133 C   0  0  0  0  0  0  0  0  0  0  0  0
   71.4613   88.4133   88.8383 N   0  0  0  0  0  0  0  0  0  0  0  0
   72.4829   87.6298   88.4063 C   0  0  0  0  0  0  0  0  0  0  0  0
   72.2915   86.2966   88.2322 N   0  0  0  0  0  0  0  0  0  0  0  0
   71.0876   85.7241   88.4935 C   0  0  0  0  0  0  0  0  0  0  0  0
   66.2419   77.5677   88.7245 C   0  0  0  0  0  0  0  0  0  0  0  0
   67.3704   76.7208   88.4987 O   0  0  0  0  0  0  0  0  0  0  0  0
   68.9727   74.5800   91.1281 C   0  0  0  0  0  0  0  0  0  0  0  0
   68.5873   75.7211   90.4003 C   0  0  0  0  0  0  0  0  0  0  0  0
   67.7300   75.6153   89.2888 C   0  0  0  0  0  0  0  0  0  0  0  0
   67.2229   74.3622   88.9387 C   0  0  0  0  0  0  0  0  0  0  0  0
   67.5673   73.2272   89.6734 C   0  0  0  0  0  0  0  0  0  0  0  0
   68.4250   73.3228   90.7744 C   0  0  0  0  0  0  0  0  0  0  0  0
   68.6760   72.1609   91.5072 O   0  0  0  0  0  0  0  0  0  0  0  0
   68.2948   71.3475   91.2409 H   0  0  0  0  0  0  0  0  0  0  0  0
   70.7284   75.7446   92.2284 O   0  0  0  0  0  0  0  0  0  0  0  0
   69.9777   74.7318   92.2042 C   0  0  0  0  0  0  0  0  0  0  0  0
   70.1506   73.7328   93.1581 O   0  0  0  0  0  0  0  0  0  0  0  0
   69.5982   72.9760   93.1493 H   0  0  0  0  0  0  0  0  0  0  0  0
 30 31  2  0  0  0
 31 32  1  0  0  0
 31 22  1  0  0  0
 22 23  2  0  0  0
 23 24  1  0  0  0
 24 21  1  0  0  0
 21 20  1  0  0  0
 20  1  1  0  0  0
  1  2  2  0  0  0
  2  3  1  0  0  0
  3  4  2  0  0  0
  4  5  1  0  0  0
  5  7  1  0  0  0
  7  8  2  0  0  0
  8  9  1  0  0  0
  9 10  2  0  0  0
 10 11  1  0  0  0
 11 13  1  0  0  0
 13 14  1  0  0  0
 14 15  2  0  0  0
 15 16  2  0  0  0
 16 17  2  0  0  0
 17 18  2  0  0  0
 18 19  2  0  0  0
 11 12  2  0  0  0
  5  6  2  0  0  0
 24 25  2  0  0  0
 25 26  1  0  0  0
 26 27  2  0  0  0
 27 28  1  0  0  0
 27 22  1  0  0  0
  6  1  1  0  0  0
 12  7  1  0  0  0
 19 14  1  0  0  0
 32 33  1  0  0  0
 28 29  1  0  0  0
M  END
> <score>
0.113247

> <minimizedAffinity>
-8.00952

> <CNNscore>
0.5568857789

> <CNNaffinity>
6.2230663300

> <CNN_VS>
3.4655370712

$$$$
HIPS6988


 33 36  0  0  0  0  0  0  0  0999 V2000
   66.1910   79.3619   92.8389 C   0  0  0  0  0  0  0  0  0  0  0  0
   66.2674   78.8018   91.5547 C   0  0  0  0  0  0  0  0  0  0  0  0
   66.8895   79.4989   90.5171 C   0  0  0  0  0  0  0  0  0  0  0  0
   67.4393   80.7619   90.7494 C   0  0  0  0  0  0  0  0  0  0  0  0
   67.3735   81.3376   92.0259 C   0  0  0  0  0  0  0  0  0  0  0  0
   66.7685   80.6222   93.0721 C   0  0  0  0  0  0  0  0  0  0  0  0
   67.8843   82.7042   92.2634 C   0  0  0  0  0  0  0  0  0  0  0  0
   68.1323   83.1637   93.5640 C   0  0  0  0  0  0  0  0  0  0  0  0
   68.6197   84.4576   93.7693 C   0  0  0  0  0  0  0  0  0  0  0  0
   68.8750   85.2971   92.6799 C   0  0  0  0  0  0  0  0  0  0  0  0
   68.6354   84.8541   91.3757 C   0  0  0  0  0  0  0  0  0  0  0  0
   68.1428   83.5532   91.1721 C   0  0  0  0  0  0  0  0  0  0  0  0
   68.9427   85.7045   90.3017 O   0  0  0  0  0  0  0  0  0  0  0  0
   69.4916   85.2782   89.0824 C   0  0  0  0  0  0  0  0  0  0  0  0
   68.7819   85.4967   87.8983 C   0  0  0  0  0  0  0  0  0  0  0  0
   69.3006   85.0621   86.6766 C   0  0  0  0  0  0  0  0  0  0  0  0
   70.5232   84.3922   86.6568 C   0  0  0  0  0  0  0  0  0  0  0  0
   71.2020   84.1790   87.8167 N   0  0  0  0  0  0  0  0  0  0  0  0
   70.7223   84.6028   89.0175 C   0  0  0  0  0  0  0  0  0  0  0  0
   65.5529   78.5730   93.9567 C   0  0  0  0  0  0  0  0  0  0  0  0
   65.4412   77.1846   93.6428 O   0  0  0  0  0  0  0  0  0  0  0  0
   68.4022   74.9165   94.0277 C   0  0  0  0  0  0  0  0  0  0  0  0
   67.5708   75.9377   93.5343 C   0  0  0  0  0  0  0  0  0  0  0  0
   66.3016   76.1737   94.0996 C   0  0  0  0  0  0  0  0  0  0  0  0
   65.8678   75.3770   95.1604 C   0  0  0  0  0  0  0  0  0  0  0  0
   66.6849   74.3619   95.6627 C   0  0  0  0  0  0  0  0  0  0  0  0
   67.9468   74.1228   95.1061 C   0  0  0  0  0  0  0  0  0  0  0  0
   68.7384   73.1003   95.6283 O   0  0  0  0  0  0  0  0  0  0  0  0
   68.4235   72.5826   96.3430 H   0  0  0  0  0  0  0  0  0  0  0  0
   70.3960   75.6769   92.9470 O   0  0  0  0  0  0  0  0  0  0  0  0
   69.7365   74.7066   93.4093 C   0  0  0  0  0  0  0  0  0  0  0  0
   70.2771   73.4256   93.3294 O   0  0  0  0  0  0  0  0  0  0  0  0
   69.8000   72.6937   93.6682 H   0  0  0  0  0  0  0  0  0  0  0  0
 30 31  2  0  0  0
 31 32  1  0  0  0
 31 22  1  0  0  0
 22 23  2  0  0  0
 23 24  1  0  0  0
 24 21  1  0  0  0
 21 20  1  0  0  0
 20  1  1  0  0  0
  1  2  2  0  0  0
  2  3  1  0  0  0
  3  4  2  0  0  0
  4  5  1  0  0  0
  5  7  1  0  0  0
  7  8  2  0  0  0
  8  9  1  0  0  0
  9 10  2  0  0  0
 10 11  1  0  0  0
 11 13  1  0  0  0
 13 14  1  0  0  0
 14 15  2  0  0  0
 15 16  1  0  0  0
 16 17  2  0  0  0
 17 18  2  0  0  0
 18 19  2  0  0  0
 11 12  2  0  0  0
  5  6  2  0  0  0
 24 25  2  0  0  0
 25 26  1  0  0  0
 26 27  2  0  0  0
 27 28  1  0  0  0
 27 22  1  0  0  0
  6  1  1  0  0  0
 12  7  1  0  0  0
 19 14  1  0  0  0
 32 33  1  0  0  0
 28 29  1  0  0  0
M  END
> <score>
0.503819

> <minimizedAffinity>
-8.08230

> <CNNscore>
0.7025117278

> <CNNaffinity>
6.3623905182

> <CNN_VS>
4.4696540833

$$$$
HIPS6988


 33 36  0  0  0  0  0  0  0  0999 V2000
   68.9721   78.2303   90.7646 C   0  0  0  0  0  0  0  0  0  0  0  0
   69.9604   77.2344   90.7605 C   0  0  0  0  0  0  0  0  0  0  0  0
   71.2961   77.5672   90.5262 C   0  0  0  0  0  0  0  0  0  0  0  0
   71.6587   78.8957   90.2916 C   0  0  0  0  0  0  0  0  0  0  0  0
   70.6856   79.9048   90.2925 C   0  0  0  0  0  0  0  0  0  0  0  0
   69.3472   79.5685   90.5529 C   0  0  0  0  0  0  0  0  0  0  0  0
   71.0479   81.3012   89.9703 C   0  0  0  0  0  0  0  0  0  0  0  0
   72.3848   81.7211   89.9926 C   0  0  0  0  0  0  0  0  0  0  0  0
   72.7092   83.0444   89.6805 C   0  0  0  0  0  0  0  0  0  0  0  0
   71.7053   83.9542   89.3322 C   0  0  0  0  0  0  0  0  0  0  0  0
   70.3668   83.5517   89.3028 C   0  0  0  0  0  0  0  0  0  0  0  0
   70.0429   82.2207   89.6194 C   0  0  0  0  0  0  0  0  0  0  0  0
   69.3873   84.4765   88.9072 O   0  0  0  0  0  0  0  0  0  0  0  0
   69.4368   85.8522   89.1806 C   0  0  0  0  0  0  0  0  0  0  0  0
   69.0299   86.3162   90.4347 C   0  0  0  0  0  0  0  0  0  0  0  0
   69.0517   87.6830   90.7203 C   0  0  0  0  0  0  0  0  0  0  0  0
   69.4655   88.5772   89.7339 C   0  0  0  0  0  0  0  0  0  0  0  0
   69.8528   88.1146   88.5142 N   0  0  0  0  0  0  0  0  0  0  0  0
   69.8507   86.7869   88.2162 C   0  0  0  0  0  0  0  0  0  0  0  0
   67.5406   77.8553   91.0632 C   0  0  0  0  0  0  0  0  0  0  0  0
   67.2567   77.8784   92.4624 O   0  0  0  0  0  0  0  0  0  0  0  0
   68.0709   74.7408   94.3475 C   0  0  0  0  0  0  0  0  0  0  0  0
   68.2196   75.8559   93.5036 C   0  0  0  0  0  0  0  0  0  0  0  0
   67.1515   76.7505   93.2917 C   0  0  0  0  0  0  0  0  0  0  0  0
   65.9307   76.5189   93.9275 C   0  0  0  0  0  0  0  0  0  0  0  0
   65.7704   75.4177   94.7712 C   0  0  0  0  0  0  0  0  0  0  0  0
   66.8276   74.5257   94.9862 C   0  0  0  0  0  0  0  0  0  0  0  0
   66.6355   73.4342   95.8326 O   0  0  0  0  0  0  0  0  0  0  0  0
   65.8062   73.3044   96.2490 H   0  0  0  0  0  0  0  0  0  0  0  0
   69.3019   73.1005   95.5783 O   0  0  0  0  0  0  0  0  0  0  0  0
   69.2245   73.8273   94.5508 C   0  0  0  0  0  0  0  0  0  0  0  0
   70.2435   73.7653   93.6034 O   0  0  0  0  0  0  0  0  0  0  0  0
   70.2012   74.2989   92.8343 H   0  0  0  0  0  0  0  0  0  0  0  0
 30 31  2  0  0  0
 31 32  1  0  0  0
 31 22  1  0  0  0
 22 23  2  0  0  0
 23 24  1  0  0  0
 24 21  1  0  0  0
 21 20  1  0  0  0
 20  1  1  0  0  0
  1  2  2  0  0  0
  2  3  1  0  0  0
  3  4  2  0  0  0
  4  5  1  0  0  0
  5  7  1  0  0  0
  7  8  2  0  0  0
  8  9  1  0  0  0
  9 10  2  0  0  0
 10 11  1  0  0  0
 11 13  1  0  0  0
 13 14  1  0  0  0
 14 15  2  0  0  0
 15 16  1  0  0  0
 16 17  2  0  0  0
 17 18  2  0  0  0
 18 19  2  0  0  0
 11 12  2  0  0  0
  5  6  2  0  0  0
 24 25  2  0  0  0
 25 26  1  0  0  0
 26 27  2  0  0  0
 27 28  1  0  0  0
 27 22  1  0  0  0
  6  1  1  0  0  0
 12  7  1  0  0  0
 19 14  1  0  0  0
 32 33  1  0  0  0
 28 29  1  0  0  0
M  END
> <score>
0.503819

> <minimizedAffinity>
-8.60366

> <CNNscore>
0.6132230759

> <CNNaffinity>
6.0748004913

> <CNN_VS>
3.7252078056

$$$$
HIPS6988


 33 36  0  0  0  0  0  0  0  0999 V2000
   67.1733   79.6262   90.7760 C   0  0  0  0  0  0  0  0  0  0  0  0
   66.2541   79.6805   89.7174 C   0  0  0  0  0  0  0  0  0  0  0  0
   66.5361   80.4343   88.5764 C   0  0  0  0  0  0  0  0  0  0  0  0
   67.7361   81.1429   88.4810 C   0  0  0  0  0  0  0  0  0  0  0  0
   68.6673   81.1004   89.5280 C   0  0  0  0  0  0  0  0  0  0  0  0
   68.3901   80.3212   90.6630 C   0  0  0  0  0  0  0  0  0  0  0  0
   69.9047   81.9068   89.4691 C   0  0  0  0  0  0  0  0  0  0  0  0
   71.0394   81.5382   90.2046 C   0  0  0  0  0  0  0  0  0  0  0  0
   72.2024   82.3103   90.1330 C   0  0  0  0  0  0  0  0  0  0  0  0
   72.2464   83.4470   89.3188 C   0  0  0  0  0  0  0  0  0  0  0  0
   71.1244   83.8278   88.5767 C   0  0  0  0  0  0  0  0  0  0  0  0
   69.9551   83.0509   88.6523 C   0  0  0  0  0  0  0  0  0  0  0  0
   71.2140   84.9484   87.7356 O   0  0  0  0  0  0  0  0  0  0  0  0
   71.2466   86.2779   88.1840 C   0  0  0  0  0  0  0  0  0  0  0  0
   70.0499   86.9165   88.5208 C   0  0  0  0  0  0  0  0  0  0  0  0
   70.0579   88.2456   88.9496 C   0  0  0  0  0  0  0  0  0  0  0  0
   71.2704   88.9305   89.0183 C   0  0  0  0  0  0  0  0  0  0  0  0
   72.4286   88.3006   88.6812 N   0  0  0  0  0  0  0  0  0  0  0  0
   72.4472   87.0032   88.2715 C   0  0  0  0  0  0  0  0  0  0  0  0
   66.8684   78.7704   91.9817 C   0  0  0  0  0  0  0  0  0  0  0  0
   67.3969   77.4500   91.8546 O   0  0  0  0  0  0  0  0  0  0  0  0
   68.2275   74.5667   94.1033 C   0  0  0  0  0  0  0  0  0  0  0  0
   68.3664   75.5645   93.1222 C   0  0  0  0  0  0  0  0  0  0  0  0
   67.3012   76.4370   92.8219 C   0  0  0  0  0  0  0  0  0  0  0  0
   66.0933   76.3011   93.5079 C   0  0  0  0  0  0  0  0  0  0  0  0
   65.9429   75.3170   94.4873 C   0  0  0  0  0  0  0  0  0  0  0  0
   66.9973   74.4477   94.7907 C   0  0  0  0  0  0  0  0  0  0  0  0
   66.8155   73.4739   95.7722 O   0  0  0  0  0  0  0  0  0  0  0  0
   65.9948   73.4069   96.2194 H   0  0  0  0  0  0  0  0  0  0  0  0
   70.2895   73.4913   93.5439 O   0  0  0  0  0  0  0  0  0  0  0  0
   69.3779   73.6734   94.3958 C   0  0  0  0  0  0  0  0  0  0  0  0
   69.4615   73.0190   95.6224 O   0  0  0  0  0  0  0  0  0  0  0  0
   68.7924   73.1434   96.2664 H   0  0  0  0  0  0  0  0  0  0  0  0
 30 31  2  0  0  0
 31 32  1  0  0  0
 31 22  1  0  0  0
 22 23  2  0  0  0
 23 24  1  0  0  0
 24 21  1  0  0  0
 21 20  1  0  0  0
 20  1  1  0  0  0
  1  2  2  0  0  0
  2  3  1  0  0  0
  3  4  2  0  0  0
  4  5  1  0  0  0
  5  7  1  0  0  0
  7  8  2  0  0  0
  8  9  1  0  0  0
  9 10  2  0  0  0
 10 11  1  0  0  0
 11 13  1  0  0  0
 13 14  1  0  0  0
 14 15  2  0  0  0
 15 16  1  0  0  0
 16 17  2  0  0  0
 17 18  2  0  0  0
 18 19  2  0  0  0
 11 12  2  0  0  0
  5  6  2  0  0  0
 24 25  2  0  0  0
 25 26  1  0  0  0
 26 27  2  0  0  0
 27 28  1  0  0  0
 27 22  1  0  0  0
  6  1  1  0  0  0
 12  7  1  0  0  0
 19 14  1  0  0  0
 32 33  1  0  0  0
 28 29  1  0  0  0
M  END
> <score>
0.503819

> <minimizedAffinity>
-8.89640

> <CNNscore>
0.5780278444

> <CNNaffinity>
6.0256090164

> <CNN_VS>
3.4829697609

$$$$
HIPS6989


 37 40  0  0  0  0  0  0  0  0999 V2000
   67.0283   76.0256   87.3752 C   0  0  0  0  0  0  0  0  0  0  0  0
   67.4230   76.5466   86.1323 C   0  0  0  0  0  0  0  0  0  0  0  0
   67.5782   77.9223   85.9612 C   0  0  0  0  0  0  0  0  0  0  0  0
   67.3353   78.7917   87.0252 C   0  0  0  0  0  0  0  0  0  0  0  0
   66.9322   78.2952   88.2818 C   0  0  0  0  0  0  0  0  0  0  0  0
   66.7732   76.9032   88.4428 C   0  0  0  0  0  0  0  0  0  0  0  0
   66.6839   79.2298   89.4123 C   0  0  0  0  0  0  0  0  0  0  0  0
   66.3417   80.5751   89.1766 C   0  0  0  0  0  0  0  0  0  0  0  0
   66.1107   81.4433   90.2445 C   0  0  0  0  0  0  0  0  0  0  0  0
   66.2307   80.9879   91.5600 C   0  0  0  0  0  0  0  0  0  0  0  0
   66.5880   79.6614   91.8220 C   0  0  0  0  0  0  0  0  0  0  0  0
   66.7906   78.7798   90.7435 C   0  0  0  0  0  0  0  0  0  0  0  0
   66.6877   79.2396   93.1606 O   0  0  0  0  0  0  0  0  0  0  0  0
   66.7917   77.9035   93.5796 C   0  0  0  0  0  0  0  0  0  0  0  0
   65.6403   77.1103   93.6129 C   0  0  0  0  0  0  0  0  0  0  0  0
   65.7192   75.7654   93.9885 C   0  0  0  0  0  0  0  0  0  0  0  0
   66.9549   75.1937   94.3399 C   0  0  0  0  0  0  0  0  0  0  0  0
   68.0971   76.0142   94.3771 C   0  0  0  0  0  0  0  0  0  0  0  0
   68.0173   77.3571   93.9949 C   0  0  0  0  0  0  0  0  0  0  0  0
   67.0365   73.7518   94.7772 C   0  0  0  0  0  0  0  0  0  0  0  0
   66.3993   73.5682   95.9935 F   0  0  0  0  0  0  0  0  0  0  0  0
   68.3632   73.3920   94.9045 F   0  0  0  0  0  0  0  0  0  0  0  0
   66.4324   72.9243   93.8450 F   0  0  0  0  0  0  0  0  0  0  0  0
   66.8319   74.5348   87.5263 C   0  0  0  0  0  0  0  0  0  0  0  0
   66.5925   74.1368   88.8735 O   0  0  0  0  0  0  0  0  0  0  0  0
   69.4379   74.9018   91.1941 C   0  0  0  0  0  0  0  0  0  0  0  0
   68.4355   75.0720   90.2211 C   0  0  0  0  0  0  0  0  0  0  0  0
   67.5814   74.0099   89.8596 C   0  0  0  0  0  0  0  0  0  0  0  0
   67.7240   72.7774   90.5088 C   0  0  0  0  0  0  0  0  0  0  0  0
   68.7376   72.5775   91.4414 C   0  0  0  0  0  0  0  0  0  0  0  0
   69.6057   73.6242   91.7853 C   0  0  0  0  0  0  0  0  0  0  0  0
   70.6314   73.3850   92.6977 O   0  0  0  0  0  0  0  0  0  0  0  0
   70.7296   72.5352   93.0801 H   0  0  0  0  0  0  0  0  0  0  0  0
   70.9434   76.0399   92.6542 O   0  0  0  0  0  0  0  0  0  0  0  0
   70.2919   76.0611   91.5738 C   0  0  0  0  0  0  0  0  0  0  0  0
   70.4041   77.1748   90.7444 O   0  0  0  0  0  0  0  0  0  0  0  0
   69.9279   77.2084   89.9381 H   0  0  0  0  0  0  0  0  0  0  0  0
 34 35  2  0  0  0
 35 36  1  0  0  0
 35 26  1  0  0  0
 26 27  2  0  0  0
 27 28  1  0  0  0
 28 25  1  0  0  0
 25 24  1  0  0  0
 24  1  1  0  0  0
  1  2  2  0  0  0
  2  3  1  0  0  0
  3  4  2  0  0  0
  4  5  1  0  0  0
  5  7  1  0  0  0
  7  8  2  0  0  0
  8  9  1  0  0  0
  9 10  2  0  0  0
 10 11  1  0  0  0
 11 13  1  0  0  0
 13 14  1  0  0  0
 14 15  2  0  0  0
 15 16  1  0  0  0
 16 17  2  0  0  0
 17 20  1  0  0  0
 20 21  1  0  0  0
 20 22  1  0  0  0
 20 23  1  0  0  0
 17 18  1  0  0  0
 18 19  2  0  0  0
 11 12  2  0  0  0
  5  6  2  0  0  0
 28 29  2  0  0  0
 29 30  1  0  0  0
 30 31  2  0  0  0
 31 32  1  0  0  0
 31 26  1  0  0  0
  6  1  1  0  0  0
 12  7  1  0  0  0
 19 14  1  0  0  0
 36 37  1  0  0  0
 32 33  1  0  0  0
M  END
> <score>
-1.273758

> <minimizedAffinity>
-8.64626

> <CNNscore>
0.8582123518

> <CNNaffinity>
7.4489068985

> <CNN_VS>
6.3927440643

$$$$
HIPS6989


 37 40  0  0  0  0  0  0  0  0999 V2000
   66.7085   78.0736   92.6269 C   0  0  0  0  0  0  0  0  0  0  0  0
   66.6337   78.9986   93.6809 C   0  0  0  0  0  0  0  0  0  0  0  0
   66.7147   80.3675   93.4251 C   0  0  0  0  0  0  0  0  0  0  0  0
   66.8775   80.8267   92.1177 C   0  0  0  0  0  0  0  0  0  0  0  0
   66.9616   79.9191   91.0420 C   0  0  0  0  0  0  0  0  0  0  0  0
   66.8838   78.5371   91.3118 C   0  0  0  0  0  0  0  0  0  0  0  0
   67.1266   80.4192   89.6506 C   0  0  0  0  0  0  0  0  0  0  0  0
   67.1102   79.5327   88.5568 C   0  0  0  0  0  0  0  0  0  0  0  0
   67.2656   80.0126   87.2556 C   0  0  0  0  0  0  0  0  0  0  0  0
   67.4531   81.3782   87.0271 C   0  0  0  0  0  0  0  0  0  0  0  0
   67.4924   82.2779   88.0971 C   0  0  0  0  0  0  0  0  0  0  0  0
   67.3050   81.7956   89.4062 C   0  0  0  0  0  0  0  0  0  0  0  0
   67.6725   83.6463   87.8238 O   0  0  0  0  0  0  0  0  0  0  0  0
   68.8909   84.3362   87.9282 C   0  0  0  0  0  0  0  0  0  0  0  0
   68.9964   85.6165   87.3754 C   0  0  0  0  0  0  0  0  0  0  0  0
   70.1849   86.3435   87.4976 C   0  0  0  0  0  0  0  0  0  0  0  0
   71.2895   85.7970   88.1748 C   0  0  0  0  0  0  0  0  0  0  0  0
   71.2036   84.4805   88.6635 C   0  0  0  0  0  0  0  0  0  0  0  0
   70.0120   83.7577   88.5459 C   0  0  0  0  0  0  0  0  0  0  0  0
   72.5833   86.5667   88.2788 C   0  0  0  0  0  0  0  0  0  0  0  0
   72.3814   87.7899   88.8969 F   0  0  0  0  0  0  0  0  0  0  0  0
   73.0860   86.7797   87.0109 F   0  0  0  0  0  0  0  0  0  0  0  0
   73.5144   85.8578   89.0199 F   0  0  0  0  0  0  0  0  0  0  0  0
   66.6545   76.5945   92.9325 C   0  0  0  0  0  0  0  0  0  0  0  0
   67.5232   76.2118   93.9954 O   0  0  0  0  0  0  0  0  0  0  0  0
   68.9875   72.8855   93.0694 C   0  0  0  0  0  0  0  0  0  0  0  0
   68.2510   74.0818   92.9855 C   0  0  0  0  0  0  0  0  0  0  0  0
   68.2682   75.0245   94.0338 C   0  0  0  0  0  0  0  0  0  0  0  0
   69.0592   74.7678   95.1604 C   0  0  0  0  0  0  0  0  0  0  0  0
   69.7591   73.5707   95.2805 C   0  0  0  0  0  0  0  0  0  0  0  0
   69.7244   72.6188   94.2508 C   0  0  0  0  0  0  0  0  0  0  0  0
   70.4085   71.4158   94.4136 O   0  0  0  0  0  0  0  0  0  0  0  0
   70.8913   71.2541   95.2002 H   0  0  0  0  0  0  0  0  0  0  0  0
   69.1452   70.7019   92.1202 O   0  0  0  0  0  0  0  0  0  0  0  0
   68.9721   71.9361   91.9223 C   0  0  0  0  0  0  0  0  0  0  0  0
   68.7496   72.3822   90.6214 O   0  0  0  0  0  0  0  0  0  0  0  0
   68.6189   73.2950   90.4551 H   0  0  0  0  0  0  0  0  0  0  0  0
 34 35  2  0  0  0
 35 36  1  0  0  0
 35 26  1  0  0  0
 26 27  2  0  0  0
 27 28  1  0  0  0
 28 25  1  0  0  0
 25 24  1  0  0  0
 24  1  1  0  0  0
  1  2  2  0  0  0
  2  3  1  0  0  0
  3  4  2  0  0  0
  4  5  1  0  0  0
  5  7  1  0  0  0
  7  8  2  0  0  0
  8  9  1  0  0  0
  9 10  2  0  0  0
 10 11  1  0  0  0
 11 13  1  0  0  0
 13 14  1  0  0  0
 14 15  2  0  0  0
 15 16  1  0  0  0
 16 17  2  0  0  0
 17 20  1  0  0  0
 20 21  1  0  0  0
 20 22  1  0  0  0
 20 23  1  0  0  0
 17 18  1  0  0  0
 18 19  2  0  0  0
 11 12  2  0  0  0
  5  6  2  0  0  0
 28 29  2  0  0  0
 29 30  1  0  0  0
 30 31  2  0  0  0
 31 32  1  0  0  0
 31 26  1  0  0  0
  6  1  1  0  0  0
 12  7  1  0  0  0
 19 14  1  0  0  0
 36 37  1  0  0  0
 32 33  1  0  0  0
M  END
> <score>
-1.273758

> <minimizedAffinity>
-8.46751

> <CNNscore>
0.5707237720

> <CNNaffinity>
6.2216825485

> <CNN_VS>
3.5508620739

$$$$
HIPS6989


 37 40  0  0  0  0  0  0  0  0999 V2000
   66.9350   73.8708   93.5336 C   0  0  0  0  0  0  0  0  0  0  0  0
   66.3528   73.6884   94.7984 C   0  0  0  0  0  0  0  0  0  0  0  0
   65.8506   74.7796   95.5077 C   0  0  0  0  0  0  0  0  0  0  0  0
   65.9300   76.0630   94.9659 C   0  0  0  0  0  0  0  0  0  0  0  0
   66.5151   76.2745   93.7007 C   0  0  0  0  0  0  0  0  0  0  0  0
   67.0244   75.1654   92.9940 C   0  0  0  0  0  0  0  0  0  0  0  0
   66.5872   77.6456   93.1280 C   0  0  0  0  0  0  0  0  0  0  0  0
   65.8337   78.6998   93.6789 C   0  0  0  0  0  0  0  0  0  0  0  0
   65.9090   79.9824   93.1340 C   0  0  0  0  0  0  0  0  0  0  0  0
   66.7237   80.2294   92.0262 C   0  0  0  0  0  0  0  0  0  0  0  0
   67.4679   79.1960   91.4480 C   0  0  0  0  0  0  0  0  0  0  0  0
   67.4139   77.9101   92.0179 C   0  0  0  0  0  0  0  0  0  0  0  0
   68.2843   79.4885   90.3401 O   0  0  0  0  0  0  0  0  0  0  0  0
   68.2114   80.6616   89.5718 C   0  0  0  0  0  0  0  0  0  0  0  0
   67.3475   80.7013   88.4727 C   0  0  0  0  0  0  0  0  0  0  0  0
   67.2246   81.8686   87.7121 C   0  0  0  0  0  0  0  0  0  0  0  0
   67.9688   83.0158   88.0400 C   0  0  0  0  0  0  0  0  0  0  0  0
   68.8914   82.9473   89.0999 C   0  0  0  0  0  0  0  0  0  0  0  0
   69.0080   81.7812   89.8632 C   0  0  0  0  0  0  0  0  0  0  0  0
   67.8621   84.2652   87.2006 C   0  0  0  0  0  0  0  0  0  0  0  0
   66.6892   84.2659   86.4635 F   0  0  0  0  0  0  0  0  0  0  0  0
   68.9374   84.3231   86.3368 F   0  0  0  0  0  0  0  0  0  0  0  0
   67.8673   85.3941   88.0033 F   0  0  0  0  0  0  0  0  0  0  0  0
   67.5045   72.6785   92.8000 C   0  0  0  0  0  0  0  0  0  0  0  0
   68.3464   73.0435   91.7097 O   0  0  0  0  0  0  0  0  0  0  0  0
   67.0981   72.9792   88.1736 C   0  0  0  0  0  0  0  0  0  0  0  0
   67.5217   72.5362   89.4405 C   0  0  0  0  0  0  0  0  0  0  0  0
   67.8916   73.4512   90.4474 C   0  0  0  0  0  0  0  0  0  0  0  0
   67.8034   74.8228   90.1796 C   0  0  0  0  0  0  0  0  0  0  0  0
   67.4291   75.2789   88.9190 C   0  0  0  0  0  0  0  0  0  0  0  0
   67.0847   74.3714   87.9064 C   0  0  0  0  0  0  0  0  0  0  0  0
   66.7458   74.8567   86.6449 O   0  0  0  0  0  0  0  0  0  0  0  0
   66.7414   75.7797   86.4836 H   0  0  0  0  0  0  0  0  0  0  0  0
   65.6353   72.1720   86.4699 O   0  0  0  0  0  0  0  0  0  0  0  0
   66.6789   71.9795   87.1526 C   0  0  0  0  0  0  0  0  0  0  0  0
   67.4320   70.8312   86.9178 O   0  0  0  0  0  0  0  0  0  0  0  0
   68.2100   70.6713   87.4149 H   0  0  0  0  0  0  0  0  0  0  0  0
 34 35  2  0  0  0
 35 36  1  0  0  0
 35 26  1  0  0  0
 26 27  2  0  0  0
 27 28  1  0  0  0
 28 25  1  0  0  0
 25 24  1  0  0  0
 24  1  1  0  0  0
  1  2  2  0  0  0
  2  3  1  0  0  0
  3  4  2  0  0  0
  4  5  1  0  0  0
  5  7  1  0  0  0
  7  8  2  0  0  0
  8  9  1  0  0  0
  9 10  2  0  0  0
 10 11  1  0  0  0
 11 13  1  0  0  0
 13 14  1  0  0  0
 14 15  2  0  0  0
 15 16  1  0  0  0
 16 17  2  0  0  0
 17 20  1  0  0  0
 20 21  1  0  0  0
 20 22  1  0  0  0
 20 23  1  0  0  0
 17 18  1  0  0  0
 18 19  2  0  0  0
 11 12  2  0  0  0
  5  6  2  0  0  0
 28 29  2  0  0  0
 29 30  1  0  0  0
 30 31  2  0  0  0
 31 32  1  0  0  0
 31 26  1  0  0  0
  6  1  1  0  0  0
 12  7  1  0  0  0
 19 14  1  0  0  0
 36 37  1  0  0  0
 32 33  1  0  0  0
M  END
> <score>
-1.273758

> <minimizedAffinity>
-8.88799

> <CNNscore>
0.5608229637

> <CNNaffinity>
6.7371253967

> <CNN_VS>
3.7783346176

$$$$
HIPS6990


 35 38  0  0  0  0  0  0  0  0999 V2000
   67.3815   78.1092   87.0213 C   0  0  0  0  0  0  0  0  0  0  0  0
   67.7522   78.1094   85.6667 C   0  0  0  0  0  0  0  0  0  0  0  0
   67.7808   76.9147   84.9435 C   0  0  0  0  0  0  0  0  0  0  0  0
   67.4400   75.7109   85.5634 C   0  0  0  0  0  0  0  0  0  0  0  0
   67.0780   75.6906   86.9180 C   0  0  0  0  0  0  0  0  0  0  0  0
   67.0580   76.8920   87.6438 C   0  0  0  0  0  0  0  0  0  0  0  0
   67.3728   81.8153   87.8464 C   0  0  0  0  0  0  0  0  0  0  0  0
   67.1640   81.7771   89.2291 C   0  0  0  0  0  0  0  0  0  0  0  0
   67.0595   80.5545   89.8932 C   0  0  0  0  0  0  0  0  0  0  0  0
   67.1455   79.3589   89.1778 C   0  0  0  0  0  0  0  0  0  0  0  0
   67.3175   79.3771   87.7831 C   0  0  0  0  0  0  0  0  0  0  0  0
   67.4214   80.6125   87.1217 C   0  0  0  0  0  0  0  0  0  0  0  0
   67.4950   83.0590   87.2132 O   0  0  0  0  0  0  0  0  0  0  0  0
   70.9291   85.5095   87.2552 C   0  0  0  0  0  0  0  0  0  0  0  0
   71.0635   84.1250   87.1075 C   0  0  0  0  0  0  0  0  0  0  0  0
   69.9367   83.2978   87.0895 C   0  0  0  0  0  0  0  0  0  0  0  0
   68.6493   83.8539   87.2019 C   0  0  0  0  0  0  0  0  0  0  0  0
   68.5135   85.2379   87.3572 C   0  0  0  0  0  0  0  0  0  0  0  0
   69.6410   86.0657   87.3781 C   0  0  0  0  0  0  0  0  0  0  0  0
   72.6809   86.8124   88.4724 C   0  0  0  0  0  0  0  0  0  0  0  0
   72.0924   86.2909   87.2833 O   0  0  0  0  0  0  0  0  0  0  0  0
   66.7019   74.3889   87.5731 C   0  0  0  0  0  0  0  0  0  0  0  0
   66.6492   74.5397   88.9924 O   0  0  0  0  0  0  0  0  0  0  0  0
   67.6779   74.2043   89.8894 C   0  0  0  0  0  0  0  0  0  0  0  0
   67.8967   72.8517   90.1664 C   0  0  0  0  0  0  0  0  0  0  0  0
   68.8974   72.4641   91.0567 C   0  0  0  0  0  0  0  0  0  0  0  0
   69.6960   73.4237   91.6908 C   0  0  0  0  0  0  0  0  0  0  0  0
   70.6899   73.0058   92.5759 O   0  0  0  0  0  0  0  0  0  0  0  0
   69.4952   74.7982   91.4222 C   0  0  0  0  0  0  0  0  0  0  0  0
   68.4913   75.1732   90.5087 C   0  0  0  0  0  0  0  0  0  0  0  0
   70.8126   72.0924   92.7452 H   0  0  0  0  0  0  0  0  0  0  0  0
   70.3150   75.8506   92.0804 C   0  0  0  0  0  0  0  0  0  0  0  0
   70.3911   75.9048   93.3389 O   0  0  0  0  0  0  0  0  0  0  0  0
   71.0178   76.7845   91.3250 O   0  0  0  0  0  0  0  0  0  0  0  0
   70.9731   76.7595   90.3894 H   0  0  0  0  0  0  0  0  0  0  0  0
 20 21  1  0  0  0
 21 14  1  0  0  0
 14 15  2  0  0  0
 15 16  1  0  0  0
 16 17  2  0  0  0
 17 13  1  0  0  0
 13  7  1  0  0  0
  7  8  2  0  0  0
  8  9  1  0  0  0
  9 10  2  0  0  0
 10 11  1  0  0  0
 11  1  1  0  0  0
  1  2  2  0  0  0
  2  3  1  0  0  0
  3  4  2  0  0  0
  4  5  1  0  0  0
  5 22  1  0  0  0
 22 23  1  0  0  0
 23 24  1  0  0  0
 24 25  2  0  0  0
 25 26  1  0  0  0
 26 27  2  0  0  0
 27 28  1  0  0  0
 27 29  1  0  0  0
 29 32  1  0  0  0
 32 33  2  0  0  0
 32 34  1  0  0  0
 29 30  2  0  0  0
  5  6  2  0  0  0
 11 12  2  0  0  0
 17 18  1  0  0  0
 18 19  2  0  0  0
 19 14  1  0  0  0
 12  7  1  0  0  0
  6  1  1  0  0  0
 30 24  1  0  0  0
 28 31  1  0  0  0
 34 35  1  0  0  0
M  END
> <score>
-0.524576

> <minimizedAffinity>
-8.76707

> <CNNscore>
0.6752045155

> <CNNaffinity>
6.5524511337

> <CNN_VS>
4.4242444038

$$$$
HIPS6990


 35 38  0  0  0  0  0  0  0  0999 V2000
   70.2470   79.6147   90.4289 C   0  0  0  0  0  0  0  0  0  0  0  0
   71.4147   78.8362   90.4827 C   0  0  0  0  0  0  0  0  0  0  0  0
   71.3331   77.4554   90.6776 C   0  0  0  0  0  0  0  0  0  0  0  0
   70.0883   76.8392   90.8201 C   0  0  0  0  0  0  0  0  0  0  0  0
   68.9127   77.6025   90.7799 C   0  0  0  0  0  0  0  0  0  0  0  0
   68.9987   78.9909   90.5918 C   0  0  0  0  0  0  0  0  0  0  0  0
   69.2667   83.2698   90.1211 C   0  0  0  0  0  0  0  0  0  0  0  0
   70.4919   83.8422   89.7634 C   0  0  0  0  0  0  0  0  0  0  0  0
   71.6213   83.0411   89.5916 C   0  0  0  0  0  0  0  0  0  0  0  0
   71.5396   81.6622   89.7930 C   0  0  0  0  0  0  0  0  0  0  0  0
   70.3266   81.0735   90.1892 C   0  0  0  0  0  0  0  0  0  0  0  0
   69.1938   81.8871   90.3605 C   0  0  0  0  0  0  0  0  0  0  0  0
   68.1468   84.0993   90.2645 O   0  0  0  0  0  0  0  0  0  0  0  0
   66.5978   85.3788   93.9744 C   0  0  0  0  0  0  0  0  0  0  0  0
   66.0201   85.8339   92.7845 C   0  0  0  0  0  0  0  0  0  0  0  0
   66.5190   85.4190   91.5462 C   0  0  0  0  0  0  0  0  0  0  0  0
   67.6004   84.5212   91.4842 C   0  0  0  0  0  0  0  0  0  0  0  0
   68.1842   84.0709   92.6735 C   0  0  0  0  0  0  0  0  0  0  0  0
   67.6870   84.4880   93.9128 C   0  0  0  0  0  0  0  0  0  0  0  0
   66.5085   85.4025   96.4723 C   0  0  0  0  0  0  0  0  0  0  0  0
   66.0693   85.8390   95.1883 O   0  0  0  0  0  0  0  0  0  0  0  0
   67.5757   76.9264   90.9235 C   0  0  0  0  0  0  0  0  0  0  0  0
   67.0858   77.0641   92.2579 O   0  0  0  0  0  0  0  0  0  0  0  0
   67.0619   76.0487   93.2294 C   0  0  0  0  0  0  0  0  0  0  0  0
   65.8692   75.8288   93.9246 C   0  0  0  0  0  0  0  0  0  0  0  0
   65.7934   74.8411   94.9058 C   0  0  0  0  0  0  0  0  0  0  0  0
   66.9118   74.0569   95.2136 C   0  0  0  0  0  0  0  0  0  0  0  0
   66.8055   73.0757   96.1995 O   0  0  0  0  0  0  0  0  0  0  0  0
   68.1281   74.2590   94.5197 C   0  0  0  0  0  0  0  0  0  0  0  0
   68.1847   75.2495   93.5204 C   0  0  0  0  0  0  0  0  0  0  0  0
   65.9942   72.9519   96.6517 H   0  0  0  0  0  0  0  0  0  0  0  0
   69.3424   73.4544   94.8212 C   0  0  0  0  0  0  0  0  0  0  0  0
   69.4587   72.8684   95.9328 O   0  0  0  0  0  0  0  0  0  0  0  0
   70.3636   73.3250   93.8846 O   0  0  0  0  0  0  0  0  0  0  0  0
   70.2945   73.7530   93.0540 H   0  0  0  0  0  0  0  0  0  0  0  0
 20 21  1  0  0  0
 21 14  1  0  0  0
 14 15  2  0  0  0
 15 16  1  0  0  0
 16 17  2  0  0  0
 17 13  1  0  0  0
 13  7  1  0  0  0
  7  8  2  0  0  0
  8  9  1  0  0  0
  9 10  2  0  0  0
 10 11  1  0  0  0
 11  1  1  0  0  0
  1  2  2  0  0  0
  2  3  1  0  0  0
  3  4  2  0  0  0
  4  5  1  0  0  0
  5 22  1  0  0  0
 22 23  1  0  0  0
 23 24  1  0  0  0
 24 25  2  0  0  0
 25 26  1  0  0  0
 26 27  2  0  0  0
 27 28  1  0  0  0
 27 29  1  0  0  0
 29 32  1  0  0  0
 32 33  2  0  0  0
 32 34  1  0  0  0
 29 30  2  0  0  0
  5  6  2  0  0  0
 11 12  2  0  0  0
 17 18  1  0  0  0
 18 19  2  0  0  0
 19 14  1  0  0  0
 12  7  1  0  0  0
  6  1  1  0  0  0
 30 24  1  0  0  0
 28 31  1  0  0  0
 34 35  1  0  0  0
M  END
> <score>
-0.524576

> <minimizedAffinity>
-8.16172

> <CNNscore>
0.5234306455

> <CNNaffinity>
6.2927570343

> <CNN_VS>
3.2938218117

$$$$
HIPS6990


 35 38  0  0  0  0  0  0  0  0999 V2000
   67.0982   77.5268   87.3726 C   0  0  0  0  0  0  0  0  0  0  0  0
   67.2972   77.5186   85.9823 C   0  0  0  0  0  0  0  0  0  0  0  0
   67.3655   76.3090   85.2871 C   0  0  0  0  0  0  0  0  0  0  0  0
   67.2359   75.0984   85.9706 C   0  0  0  0  0  0  0  0  0  0  0  0
   67.0477   75.0875   87.3602 C   0  0  0  0  0  0  0  0  0  0  0  0
   66.9874   76.3047   88.0568 C   0  0  0  0  0  0  0  0  0  0  0  0
   67.0352   81.2459   88.1345 C   0  0  0  0  0  0  0  0  0  0  0  0
   66.7576   81.2295   89.5054 C   0  0  0  0  0  0  0  0  0  0  0  0
   66.6243   80.0175   90.1837 C   0  0  0  0  0  0  0  0  0  0  0  0
   66.7502   78.8107   89.4935 C   0  0  0  0  0  0  0  0  0  0  0  0
   66.9916   78.8067   88.1091 C   0  0  0  0  0  0  0  0  0  0  0  0
   67.1243   80.0315   87.4331 C   0  0  0  0  0  0  0  0  0  0  0  0
   67.1846   82.4795   87.4875 O   0  0  0  0  0  0  0  0  0  0  0  0
   70.7154   84.7886   87.5282 C   0  0  0  0  0  0  0  0  0  0  0  0
   69.5238   85.3468   87.0535 C   0  0  0  0  0  0  0  0  0  0  0  0
   68.3439   84.5972   87.0345 C   0  0  0  0  0  0  0  0  0  0  0  0
   68.3391   83.2737   87.5115 C   0  0  0  0  0  0  0  0  0  0  0  0
   69.5319   82.7113   87.9796 C   0  0  0  0  0  0  0  0  0  0  0  0
   70.7133   83.4603   87.9963 C   0  0  0  0  0  0  0  0  0  0  0  0
   72.0104   86.8181   88.2008 C   0  0  0  0  0  0  0  0  0  0  0  0
   71.8730   85.5787   87.5099 O   0  0  0  0  0  0  0  0  0  0  0  0
   66.8980   73.7772   88.0853 C   0  0  0  0  0  0  0  0  0  0  0  0
   66.8635   73.9877   89.4975 O   0  0  0  0  0  0  0  0  0  0  0  0
   67.8798   73.6355   90.4022 C   0  0  0  0  0  0  0  0  0  0  0  0
   68.5560   74.6625   91.0672 C   0  0  0  0  0  0  0  0  0  0  0  0
   69.5795   74.3693   91.9675 C   0  0  0  0  0  0  0  0  0  0  0  0
   69.9494   73.0420   92.2164 C   0  0  0  0  0  0  0  0  0  0  0  0
   70.9766   72.7795   93.1231 O   0  0  0  0  0  0  0  0  0  0  0  0
   69.2759   71.9863   91.5579 C   0  0  0  0  0  0  0  0  0  0  0  0
   68.2337   72.2974   90.6636 C   0  0  0  0  0  0  0  0  0  0  0  0
   71.4147   73.4877   93.5525 H   0  0  0  0  0  0  0  0  0  0  0  0
   69.6426   70.5629   91.7865 C   0  0  0  0  0  0  0  0  0  0  0  0
   70.7946   70.1453   91.4844 O   0  0  0  0  0  0  0  0  0  0  0  0
   68.7308   69.6714   92.3438 O   0  0  0  0  0  0  0  0  0  0  0  0
   67.8709   69.9637   92.5743 H   0  0  0  0  0  0  0  0  0  0  0  0
 20 21  1  0  0  0
 21 14  1  0  0  0
 14 15  2  0  0  0
 15 16  1  0  0  0
 16 17  2  0  0  0
 17 13  1  0  0  0
 13  7  1  0  0  0
  7  8  2  0  0  0
  8  9  1  0  0  0
  9 10  2  0  0  0
 10 11  1  0  0  0
 11  1  1  0  0  0
  1  2  2  0  0  0
  2  3  1  0  0  0
  3  4  2  0  0  0
  4  5  1  0  0  0
  5 22  1  0  0  0
 22 23  1  0  0  0
 23 24  1  0  0  0
 24 25  2  0  0  0
 25 26  1  0  0  0
 26 27  2  0  0  0
 27 28  1  0  0  0
 27 29  1  0  0  0
 29 32  1  0  0  0
 32 33  2  0  0  0
 32 34  1  0  0  0
 29 30  2  0  0  0
  5  6  2  0  0  0
 11 12  2  0  0  0
 17 18  1  0  0  0
 18 19  2  0  0  0
 19 14  1  0  0  0
 12  7  1  0  0  0
  6  1  1  0  0  0
 30 24  1  0  0  0
 28 31  1  0  0  0
 34 35  1  0  0  0
M  END
> <score>
-0.524576

> <minimizedAffinity>
-7.73189

> <CNNscore>
0.4931479394

> <CNNaffinity>
6.3426494598

> <CNN_VS>
3.1278645992

$$$$
HIPS6991


 34 37  0  0  0  0  0  0  0  0999 V2000
   66.5006   78.6629   88.9614 C   0  0  0  0  0  0  0  0  0  0  0  0
   66.8611   79.0758   87.6700 C   0  0  0  0  0  0  0  0  0  0  0  0
   67.3326   78.1465   86.7402 C   0  0  0  0  0  0  0  0  0  0  0  0
   67.4537   76.8002   87.0928 C   0  0  0  0  0  0  0  0  0  0  0  0
   67.0777   76.3669   88.3749 C   0  0  0  0  0  0  0  0  0  0  0  0
   66.5832   77.3021   89.2988 C   0  0  0  0  0  0  0  0  0  0  0  0
   67.2488   74.9518   88.7697 C   0  0  0  0  0  0  0  0  0  0  0  0
   66.7105   73.9205   87.9827 C   0  0  0  0  0  0  0  0  0  0  0  0
   66.8652   72.5863   88.3687 C   0  0  0  0  0  0  0  0  0  0  0  0
   67.5342   72.2715   89.5541 C   0  0  0  0  0  0  0  0  0  0  0  0
   68.0429   73.2883   90.3691 C   0  0  0  0  0  0  0  0  0  0  0  0
   67.9258   74.6274   89.9570 C   0  0  0  0  0  0  0  0  0  0  0  0
   68.6842   72.9415   91.5668 O   0  0  0  0  0  0  0  0  0  0  0  0
   68.2237   73.2740   92.8500 C   0  0  0  0  0  0  0  0  0  0  0  0
   66.8839   73.6480   93.0103 C   0  0  0  0  0  0  0  0  0  0  0  0
   66.3925   73.9952   94.2729 C   0  0  0  0  0  0  0  0  0  0  0  0
   67.2423   73.9826   95.3841 C   0  0  0  0  0  0  0  0  0  0  0  0
   66.6256   74.4186   96.9673 Cl  0  0  0  0  0  0  0  0  0  0  0  0
   68.5869   73.6299   95.2296 C   0  0  0  0  0  0  0  0  0  0  0  0
   69.0793   73.2832   93.9680 C   0  0  0  0  0  0  0  0  0  0  0  0
   66.0785   79.6818   89.9878 C   0  0  0  0  0  0  0  0  0  0  0  0
   67.1694   80.0093   90.8512 O   0  0  0  0  0  0  0  0  0  0  0  0
   69.9779   77.6163   91.5196 C   0  0  0  0  0  0  0  0  0  0  0  0
   68.7172   78.2366   91.5948 C   0  0  0  0  0  0  0  0  0  0  0  0
   68.4302   79.3881   90.8387 C   0  0  0  0  0  0  0  0  0  0  0  0
   69.4309   79.9416   90.0372 C   0  0  0  0  0  0  0  0  0  0  0  0
   70.6842   79.3350   89.9488 C   0  0  0  0  0  0  0  0  0  0  0  0
   70.9607   78.1611   90.6576 C   0  0  0  0  0  0  0  0  0  0  0  0
   72.2005   77.5527   90.4506 O   0  0  0  0  0  0  0  0  0  0  0  0
   72.8241   77.9451   89.8717 H   0  0  0  0  0  0  0  0  0  0  0  0
   70.0133   76.4853   93.6083 O   0  0  0  0  0  0  0  0  0  0  0  0
   70.2355   76.4317   92.3683 C   0  0  0  0  0  0  0  0  0  0  0  0
   70.7777   75.2719   91.8225 O   0  0  0  0  0  0  0  0  0  0  0  0
   70.9467   75.2218   90.9022 H   0  0  0  0  0  0  0  0  0  0  0  0
 31 32  2  0  0  0
 32 33  1  0  0  0
 32 23  1  0  0  0
 23 24  2  0  0  0
 24 25  1  0  0  0
 25 22  1  0  0  0
 22 21  1  0  0  0
 21  1  1  0  0  0
  1  2  2  0  0  0
  2  3  1  0  0  0
  3  4  2  0  0  0
  4  5  1  0  0  0
  5  7  1  0  0  0
  7  8  2  0  0  0
  8  9  1  0  0  0
  9 10  2  0  0  0
 10 11  1  0  0  0
 11 13  1  0  0  0
 13 14  1  0  0  0
 14 15  2  0  0  0
 15 16  1  0  0  0
 16 17  2  0  0  0
 17 18  1  0  0  0
 17 19  1  0  0  0
 19 20  2  0  0  0
 11 12  2  0  0  0
  5  6  2  0  0  0
 25 26  2  0  0  0
 26 27  1  0  0  0
 27 28  2  0  0  0
 28 29  1  0  0  0
 28 23  1  0  0  0
  6  1  1  0  0  0
 12  7  1  0  0  0
 20 14  1  0  0  0
 33 34  1  0  0  0
 29 30  1  0  0  0
M  END
> <score>
-1.070214

> <minimizedAffinity>
-8.70749

> <CNNscore>
0.6452767849

> <CNNaffinity>
6.7955913544

> <CNN_VS>
4.3850374222

$$$$
HIPS6991


 34 37  0  0  0  0  0  0  0  0999 V2000
   66.2293   79.8047   90.3079 C   0  0  0  0  0  0  0  0  0  0  0  0
   66.2582   78.7999   89.3293 C   0  0  0  0  0  0  0  0  0  0  0  0
   66.7384   79.0793   88.0480 C   0  0  0  0  0  0  0  0  0  0  0  0
   67.1876   80.3636   87.7313 C   0  0  0  0  0  0  0  0  0  0  0  0
   67.1845   81.3756   88.7054 C   0  0  0  0  0  0  0  0  0  0  0  0
   66.7213   81.0833   89.9986 C   0  0  0  0  0  0  0  0  0  0  0  0
   67.6136   82.7491   88.3628 C   0  0  0  0  0  0  0  0  0  0  0  0
   67.8875   83.1006   87.0308 C   0  0  0  0  0  0  0  0  0  0  0  0
   68.3047   84.3968   86.7164 C   0  0  0  0  0  0  0  0  0  0  0  0
   68.4770   85.3440   87.7289 C   0  0  0  0  0  0  0  0  0  0  0  0
   68.2455   84.9993   89.0647 C   0  0  0  0  0  0  0  0  0  0  0  0
   67.7827   83.7085   89.3748 C   0  0  0  0  0  0  0  0  0  0  0  0
   68.4548   85.9638   90.0608 O   0  0  0  0  0  0  0  0  0  0  0  0
   68.0676   85.8296   91.4028 C   0  0  0  0  0  0  0  0  0  0  0  0
   66.7952   86.2714   91.7857 C   0  0  0  0  0  0  0  0  0  0  0  0
   66.3792   86.1623   93.1164 C   0  0  0  0  0  0  0  0  0  0  0  0
   67.2390   85.6208   94.0781 C   0  0  0  0  0  0  0  0  0  0  0  0
   66.7167   85.4846   95.7471 Cl  0  0  0  0  0  0  0  0  0  0  0  0
   68.5191   85.1957   93.7084 C   0  0  0  0  0  0  0  0  0  0  0  0
   68.9363   85.3047   92.3786 C   0  0  0  0  0  0  0  0  0  0  0  0
   65.6274   79.5225   91.6599 C   0  0  0  0  0  0  0  0  0  0  0  0
   66.6451   79.1795   92.6030 O   0  0  0  0  0  0  0  0  0  0  0  0
   68.5709   76.0132   93.1743 C   0  0  0  0  0  0  0  0  0  0  0  0
   68.2503   77.3091   92.7297 C   0  0  0  0  0  0  0  0  0  0  0  0
   66.9872   77.8722   92.9897 C   0  0  0  0  0  0  0  0  0  0  0  0
   66.0291   77.1107   93.6620 C   0  0  0  0  0  0  0  0  0  0  0  0
   66.3340   75.8262   94.1131 C   0  0  0  0  0  0  0  0  0  0  0  0
   67.6042   75.2788   93.9037 C   0  0  0  0  0  0  0  0  0  0  0  0
   67.8745   74.0285   94.4638 O   0  0  0  0  0  0  0  0  0  0  0  0
   67.2073   73.5742   94.9396 H   0  0  0  0  0  0  0  0  0  0  0  0
   70.1216   74.2245   92.9768 O   0  0  0  0  0  0  0  0  0  0  0  0
   69.9003   75.4579   92.8365 C   0  0  0  0  0  0  0  0  0  0  0  0
   70.9331   76.2925   92.4194 O   0  0  0  0  0  0  0  0  0  0  0  0
   70.7792   77.2105   92.3121 H   0  0  0  0  0  0  0  0  0  0  0  0
 31 32  2  0  0  0
 32 33  1  0  0  0
 32 23  1  0  0  0
 23 24  2  0  0  0
 24 25  1  0  0  0
 25 22  1  0  0  0
 22 21  1  0  0  0
 21  1  1  0  0  0
  1  2  2  0  0  0
  2  3  1  0  0  0
  3  4  2  0  0  0
  4  5  1  0  0  0
  5  7  1  0  0  0
  7  8  2  0  0  0
  8  9  1  0  0  0
  9 10  2  0  0  0
 10 11  1  0  0  0
 11 13  1  0  0  0
 13 14  1  0  0  0
 14 15  2  0  0  0
 15 16  1  0  0  0
 16 17  2  0  0  0
 17 18  1  0  0  0
 17 19  1  0  0  0
 19 20  2  0  0  0
 11 12  2  0  0  0
  5  6  2  0  0  0
 25 26  2  0  0  0
 26 27  1  0  0  0
 27 28  2  0  0  0
 28 29  1  0  0  0
 28 23  1  0  0  0
  6  1  1  0  0  0
 12  7  1  0  0  0
 20 14  1  0  0  0
 33 34  1  0  0  0
 29 30  1  0  0  0
M  END
> <score>
-1.070214

> <minimizedAffinity>
-7.45491

> <CNNscore>
0.5990555882

> <CNNaffinity>
6.6030502319

> <CNN_VS>
3.9555940628

$$$$
HIPS6991


 34 37  0  0  0  0  0  0  0  0999 V2000
   67.1319   75.6894   86.9575 C   0  0  0  0  0  0  0  0  0  0  0  0
   67.4528   75.6663   85.5919 C   0  0  0  0  0  0  0  0  0  0  0  0
   67.7429   76.8542   84.9172 C   0  0  0  0  0  0  0  0  0  0  0  0
   67.7093   78.0740   85.5972 C   0  0  0  0  0  0  0  0  0  0  0  0
   67.4098   78.1125   86.9689 C   0  0  0  0  0  0  0  0  0  0  0  0
   67.1407   76.9127   87.6476 C   0  0  0  0  0  0  0  0  0  0  0  0
   67.3255   79.4049   87.6833 C   0  0  0  0  0  0  0  0  0  0  0  0
   66.9698   79.4486   89.0414 C   0  0  0  0  0  0  0  0  0  0  0  0
   66.8797   80.6744   89.7065 C   0  0  0  0  0  0  0  0  0  0  0  0
   67.1177   81.8662   89.0174 C   0  0  0  0  0  0  0  0  0  0  0  0
   67.4355   81.8427   87.6553 C   0  0  0  0  0  0  0  0  0  0  0  0
   67.5697   80.6069   86.9985 C   0  0  0  0  0  0  0  0  0  0  0  0
   67.6407   83.0571   86.9849 O   0  0  0  0  0  0  0  0  0  0  0  0
   68.7272   83.9189   87.1986 C   0  0  0  0  0  0  0  0  0  0  0  0
   70.0257   83.4224   87.0311 C   0  0  0  0  0  0  0  0  0  0  0  0
   71.1326   84.2499   87.2449 C   0  0  0  0  0  0  0  0  0  0  0  0
   70.9488   85.5792   87.6405 C   0  0  0  0  0  0  0  0  0  0  0  0
   72.3376   86.6165   87.9089 Cl  0  0  0  0  0  0  0  0  0  0  0  0
   69.6559   86.0778   87.8298 C   0  0  0  0  0  0  0  0  0  0  0  0
   68.5486   85.2514   87.6170 C   0  0  0  0  0  0  0  0  0  0  0  0
   66.7323   74.4176   87.6591 C   0  0  0  0  0  0  0  0  0  0  0  0
   66.6822   74.6166   89.0736 O   0  0  0  0  0  0  0  0  0  0  0  0
   69.4881   75.0117   91.5294 C   0  0  0  0  0  0  0  0  0  0  0  0
   68.4827   75.3366   90.6003 C   0  0  0  0  0  0  0  0  0  0  0  0
   67.7251   74.3311   89.9716 C   0  0  0  0  0  0  0  0  0  0  0  0
   68.0108   72.9924   90.2474 C   0  0  0  0  0  0  0  0  0  0  0  0
   69.0015   72.6549   91.1700 C   0  0  0  0  0  0  0  0  0  0  0  0
   69.7240   73.6496   91.8375 C   0  0  0  0  0  0  0  0  0  0  0  0
   70.6333   73.2465   92.8177 O   0  0  0  0  0  0  0  0  0  0  0  0
   70.7608   72.3347   92.9919 H   0  0  0  0  0  0  0  0  0  0  0  0
   70.9225   76.8998   91.3857 O   0  0  0  0  0  0  0  0  0  0  0  0
   70.2795   76.1092   92.1284 C   0  0  0  0  0  0  0  0  0  0  0  0
   70.3714   76.2458   93.5104 O   0  0  0  0  0  0  0  0  0  0  0  0
   69.8977   75.6635   94.0713 H   0  0  0  0  0  0  0  0  0  0  0  0
 31 32  2  0  0  0
 32 33  1  0  0  0
 32 23  1  0  0  0
 23 24  2  0  0  0
 24 25  1  0  0  0
 25 22  1  0  0  0
 22 21  1  0  0  0
 21  1  1  0  0  0
  1  2  2  0  0  0
  2  3  1  0  0  0
  3  4  2  0  0  0
  4  5  1  0  0  0
  5  7  1  0  0  0
  7  8  2  0  0  0
  8  9  1  0  0  0
  9 10  2  0  0  0
 10 11  1  0  0  0
 11 13  1  0  0  0
 13 14  1  0  0  0
 14 15  2  0  0  0
 15 16  1  0  0  0
 16 17  2  0  0  0
 17 18  1  0  0  0
 17 19  1  0  0  0
 19 20  2  0  0  0
 11 12  2  0  0  0
  5  6  2  0  0  0
 25 26  2  0  0  0
 26 27  1  0  0  0
 27 28  2  0  0  0
 28 29  1  0  0  0
 28 23  1  0  0  0
  6  1  1  0  0  0
 12  7  1  0  0  0
 20 14  1  0  0  0
 33 34  1  0  0  0
 29 30  1  0  0  0
M  END
> <score>
-1.070214

> <minimizedAffinity>
-9.08704

> <CNNscore>
0.5963975191

> <CNNaffinity>
6.5777101517

> <CNN_VS>
3.9229300022

$$$$
HIPS6992


 35 38  0  0  0  0  0  0  0  0999 V2000
   67.2278   78.2001   87.4979 C   0  0  0  0  0  0  0  0  0  0  0  0
   67.5615   77.9629   86.1527 C   0  0  0  0  0  0  0  0  0  0  0  0
   67.5446   76.6645   85.6383 C   0  0  0  0  0  0  0  0  0  0  0  0
   67.1899   75.5895   86.4554 C   0  0  0  0  0  0  0  0  0  0  0  0
   66.8424   75.8062   87.7972 C   0  0  0  0  0  0  0  0  0  0  0  0
   66.8812   77.1104   88.3173 C   0  0  0  0  0  0  0  0  0  0  0  0
   67.6177   81.9768   87.7567 C   0  0  0  0  0  0  0  0  0  0  0  0
   67.2240   82.1925   89.0810 C   0  0  0  0  0  0  0  0  0  0  0  0
   66.8555   81.1174   89.8920 C   0  0  0  0  0  0  0  0  0  0  0  0
   66.8648   79.8173   89.3816 C   0  0  0  0  0  0  0  0  0  0  0  0
   67.2353   79.5798   88.0460 C   0  0  0  0  0  0  0  0  0  0  0  0
   67.6037   80.6698   87.2359 C   0  0  0  0  0  0  0  0  0  0  0  0
   67.9733   83.0833   86.9714 O   0  0  0  0  0  0  0  0  0  0  0  0
   71.1959   85.6886   87.7254 C   0  0  0  0  0  0  0  0  0  0  0  0
   69.8956   86.1850   87.5725 C   0  0  0  0  0  0  0  0  0  0  0  0
   68.8355   85.3079   87.3224 C   0  0  0  0  0  0  0  0  0  0  0  0
   69.0652   83.9313   87.2092 C   0  0  0  0  0  0  0  0  0  0  0  0
   70.3697   83.4342   87.3855 C   0  0  0  0  0  0  0  0  0  0  0  0
   71.4301   84.3109   87.6357 C   0  0  0  0  0  0  0  0  0  0  0  0
   73.1639   87.3168   88.1933 N   0  0  0  0  0  0  0  0  0  0  0  0
   72.2870   86.5909   87.9849 C   0  0  0  0  0  0  0  0  0  0  0  0
   66.4675   74.6453   88.6826 C   0  0  0  0  0  0  0  0  0  0  0  0
   67.6009   73.8193   88.9564 O   0  0  0  0  0  0  0  0  0  0  0  0
   68.2915   73.7676   90.1784 C   0  0  0  0  0  0  0  0  0  0  0  0
   68.4766   72.5205   90.7782 C   0  0  0  0  0  0  0  0  0  0  0  0
   69.1821   72.4081   91.9759 C   0  0  0  0  0  0  0  0  0  0  0  0
   69.7172   73.5410   92.5979 C   0  0  0  0  0  0  0  0  0  0  0  0
   70.4834   73.3478   93.7496 O   0  0  0  0  0  0  0  0  0  0  0  0
   69.4972   74.8213   92.0304 C   0  0  0  0  0  0  0  0  0  0  0  0
   68.7977   74.9169   90.8135 C   0  0  0  0  0  0  0  0  0  0  0  0
   70.6043   72.4843   94.0925 H   0  0  0  0  0  0  0  0  0  0  0  0
   69.9485   76.0728   92.6788 C   0  0  0  0  0  0  0  0  0  0  0  0
   69.1806   76.7171   93.4424 O   0  0  0  0  0  0  0  0  0  0  0  0
   71.2143   76.5809   92.3974 O   0  0  0  0  0  0  0  0  0  0  0  0
   71.7930   76.1097   91.8308 H   0  0  0  0  0  0  0  0  0  0  0  0
 20 21  3  0  0  0
 21 14  1  0  0  0
 14 15  2  0  0  0
 15 16  1  0  0  0
 16 17  2  0  0  0
 17 13  1  0  0  0
 13  7  1  0  0  0
  7  8  2  0  0  0
  8  9  1  0  0  0
  9 10  2  0  0  0
 10 11  1  0  0  0
 11  1  1  0  0  0
  1  2  2  0  0  0
  2  3  1  0  0  0
  3  4  2  0  0  0
  4  5  1  0  0  0
  5 22  1  0  0  0
 22 23  1  0  0  0
 23 24  1  0  0  0
 24 25  2  0  0  0
 25 26  1  0  0  0
 26 27  2  0  0  0
 27 28  1  0  0  0
 27 29  1  0  0  0
 29 32  1  0  0  0
 32 33  2  0  0  0
 32 34  1  0  0  0
 29 30  2  0  0  0
  5  6  2  0  0  0
 11 12  2  0  0  0
 17 18  1  0  0  0
 18 19  2  0  0  0
 19 14  1  0  0  0
 12  7  1  0  0  0
  6  1  1  0  0  0
 30 24  1  0  0  0
 28 31  1  0  0  0
 34 35  1  0  0  0
M  END
> <score>
-0.960538

> <minimizedAffinity>
-8.99132

> <CNNscore>
0.6037945151

> <CNNaffinity>
6.4168443680

> <CNN_VS>
3.8744554520

$$$$
HIPS6992


 35 38  0  0  0  0  0  0  0  0999 V2000
   67.1691   77.6991   87.3460 C   0  0  0  0  0  0  0  0  0  0  0  0
   67.5141   77.6599   85.9834 C   0  0  0  0  0  0  0  0  0  0  0  0
   67.5700   76.4415   85.3028 C   0  0  0  0  0  0  0  0  0  0  0  0
   67.2778   75.2502   85.9694 C   0  0  0  0  0  0  0  0  0  0  0  0
   66.9202   75.2688   87.3259 C   0  0  0  0  0  0  0  0  0  0  0  0
   66.8857   76.4933   88.0130 C   0  0  0  0  0  0  0  0  0  0  0  0
   66.8974   80.2486   90.1582 C   0  0  0  0  0  0  0  0  0  0  0  0
   66.9920   81.4446   89.4399 C   0  0  0  0  0  0  0  0  0  0  0  0
   67.1208   81.4251   88.0498 C   0  0  0  0  0  0  0  0  0  0  0  0
   67.1694   80.2080   87.3662 C   0  0  0  0  0  0  0  0  0  0  0  0
   67.0991   78.9929   88.0705 C   0  0  0  0  0  0  0  0  0  0  0  0
   66.9708   79.0227   89.4714 C   0  0  0  0  0  0  0  0  0  0  0  0
   66.7768   80.3095   91.5543 O   0  0  0  0  0  0  0  0  0  0  0  0
   66.0803   77.0114   94.0799 C   0  0  0  0  0  0  0  0  0  0  0  0
   67.1574   77.0121   93.1851 C   0  0  0  0  0  0  0  0  0  0  0  0
   67.3760   78.1143   92.3526 C   0  0  0  0  0  0  0  0  0  0  0  0
   66.5154   79.2179   92.3958 C   0  0  0  0  0  0  0  0  0  0  0  0
   65.4475   79.2227   93.3119 C   0  0  0  0  0  0  0  0  0  0  0  0
   65.2284   78.1209   94.1447 C   0  0  0  0  0  0  0  0  0  0  0  0
   65.6751   74.9666   95.6283 N   0  0  0  0  0  0  0  0  0  0  0  0
   65.8561   75.8779   94.9384 C   0  0  0  0  0  0  0  0  0  0  0  0
   66.6127   73.9823   88.0488 C   0  0  0  0  0  0  0  0  0  0  0  0
   67.7503   73.5163   88.7773 O   0  0  0  0  0  0  0  0  0  0  0  0
   67.8625   73.4895   90.1772 C   0  0  0  0  0  0  0  0  0  0  0  0
   66.9825   72.6758   90.8932 C   0  0  0  0  0  0  0  0  0  0  0  0
   67.0702   72.5876   92.2822 C   0  0  0  0  0  0  0  0  0  0  0  0
   68.0403   73.3114   92.9834 C   0  0  0  0  0  0  0  0  0  0  0  0
   68.1269   73.1126   94.3631 O   0  0  0  0  0  0  0  0  0  0  0  0
   68.9104   74.1811   92.2789 C   0  0  0  0  0  0  0  0  0  0  0  0
   68.8206   74.2469   90.8765 C   0  0  0  0  0  0  0  0  0  0  0  0
   67.5319   72.5285   94.7906 H   0  0  0  0  0  0  0  0  0  0  0  0
   69.8968   75.0501   92.9589 C   0  0  0  0  0  0  0  0  0  0  0  0
   69.9406   75.1153   94.2165 O   0  0  0  0  0  0  0  0  0  0  0  0
   70.7483   75.8532   92.2042 O   0  0  0  0  0  0  0  0  0  0  0  0
   70.7238   75.8123   91.2684 H   0  0  0  0  0  0  0  0  0  0  0  0
 20 21  3  0  0  0
 21 14  1  0  0  0
 14 15  2  0  0  0
 15 16  1  0  0  0
 16 17  2  0  0  0
 17 13  1  0  0  0
 13  7  1  0  0  0
  7  8  2  0  0  0
  8  9  1  0  0  0
  9 10  2  0  0  0
 10 11  1  0  0  0
 11  1  1  0  0  0
  1  2  2  0  0  0
  2  3  1  0  0  0
  3  4  2  0  0  0
  4  5  1  0  0  0
  5 22  1  0  0  0
 22 23  1  0  0  0
 23 24  1  0  0  0
 24 25  2  0  0  0
 25 26  1  0  0  0
 26 27  2  0  0  0
 27 28  1  0  0  0
 27 29  1  0  0  0
 29 32  1  0  0  0
 32 33  2  0  0  0
 32 34  1  0  0  0
 29 30  2  0  0  0
  5  6  2  0  0  0
 11 12  2  0  0  0
 17 18  1  0  0  0
 18 19  2  0  0  0
 19 14  1  0  0  0
 12  7  1  0  0  0
  6  1  1  0  0  0
 30 24  1  0  0  0
 28 31  1  0  0  0
 34 35  1  0  0  0
M  END
> <score>
-0.960538

> <minimizedAffinity>
-8.04985

> <CNNscore>
0.5965341330

> <CNNaffinity>
6.9395170212

> <CNN_VS>
4.1396589279

$$$$
HIPS6992


 35 38  0  0  0  0  0  0  0  0999 V2000
   67.1669   78.0924   87.5341 C   0  0  0  0  0  0  0  0  0  0  0  0
   67.1915   77.8889   86.1430 C   0  0  0  0  0  0  0  0  0  0  0  0
   67.1812   76.5950   85.6174 C   0  0  0  0  0  0  0  0  0  0  0  0
   67.1406   75.4903   86.4702 C   0  0  0  0  0  0  0  0  0  0  0  0
   67.1040   75.6721   87.8608 C   0  0  0  0  0  0  0  0  0  0  0  0
   67.1360   76.9740   88.3869 C   0  0  0  0  0  0  0  0  0  0  0  0
   67.5030   81.8722   87.8223 C   0  0  0  0  0  0  0  0  0  0  0  0
   67.1446   82.0677   89.1597 C   0  0  0  0  0  0  0  0  0  0  0  0
   66.8174   80.9783   89.9694 C   0  0  0  0  0  0  0  0  0  0  0  0
   66.8329   79.6839   89.4449 C   0  0  0  0  0  0  0  0  0  0  0  0
   67.1680   79.4663   88.0966 C   0  0  0  0  0  0  0  0  0  0  0  0
   67.4950   80.5705   87.2881 C   0  0  0  0  0  0  0  0  0  0  0  0
   67.8175   82.9925   87.0390 O   0  0  0  0  0  0  0  0  0  0  0  0
   71.0360   85.6187   87.7358 C   0  0  0  0  0  0  0  0  0  0  0  0
   71.2509   84.2403   87.6155 C   0  0  0  0  0  0  0  0  0  0  0  0
   70.1724   83.3806   87.3843 C   0  0  0  0  0  0  0  0  0  0  0  0
   68.8705   83.8862   87.2849 C   0  0  0  0  0  0  0  0  0  0  0  0
   68.6616   85.2741   87.3842 C   0  0  0  0  0  0  0  0  0  0  0  0
   69.7396   86.1343   87.6152 C   0  0  0  0  0  0  0  0  0  0  0  0
   73.0387   87.2160   88.1609 N   0  0  0  0  0  0  0  0  0  0  0  0
   72.1460   86.5043   87.9717 C   0  0  0  0  0  0  0  0  0  0  0  0
   67.0686   74.4800   88.7827 C   0  0  0  0  0  0  0  0  0  0  0  0
   66.2290   73.4490   88.2595 O   0  0  0  0  0  0  0  0  0  0  0  0
   66.6629   72.3713   87.4699 C   0  0  0  0  0  0  0  0  0  0  0  0
   67.6682   71.5459   87.9771 C   0  0  0  0  0  0  0  0  0  0  0  0
   68.1145   70.4435   87.2487 C   0  0  0  0  0  0  0  0  0  0  0  0
   67.5641   70.1443   85.9981 C   0  0  0  0  0  0  0  0  0  0  0  0
   67.9972   68.9795   85.3605 O   0  0  0  0  0  0  0  0  0  0  0  0
   66.5777   70.9988   85.4444 C   0  0  0  0  0  0  0  0  0  0  0  0
   66.1260   72.0975   86.1982 C   0  0  0  0  0  0  0  0  0  0  0  0
   68.6518   68.4420   85.7609 H   0  0  0  0  0  0  0  0  0  0  0  0
   66.0181   70.8026   84.0884 C   0  0  0  0  0  0  0  0  0  0  0  0
   65.8760   71.7767   83.3019 O   0  0  0  0  0  0  0  0  0  0  0  0
   65.5854   69.5388   83.6942 O   0  0  0  0  0  0  0  0  0  0  0  0
   65.6865   68.8078   84.2716 H   0  0  0  0  0  0  0  0  0  0  0  0
 20 21  3  0  0  0
 21 14  1  0  0  0
 14 15  2  0  0  0
 15 16  1  0  0  0
 16 17  2  0  0  0
 17 13  1  0  0  0
 13  7  1  0  0  0
  7  8  2  0  0  0
  8  9  1  0  0  0
  9 10  2  0  0  0
 10 11  1  0  0  0
 11  1  1  0  0  0
  1  2  2  0  0  0
  2  3  1  0  0  0
  3  4  2  0  0  0
  4  5  1  0  0  0
  5 22  1  0  0  0
 22 23  1  0  0  0
 23 24  1  0  0  0
 24 25  2  0  0  0
 25 26  1  0  0  0
 26 27  2  0  0  0
 27 28  1  0  0  0
 27 29  1  0  0  0
 29 32  1  0  0  0
 32 33  2  0  0  0
 32 34  1  0  0  0
 29 30  2  0  0  0
  5  6  2  0  0  0
 11 12  2  0  0  0
 17 18  1  0  0  0
 18 19  2  0  0  0
 19 14  1  0  0  0
 12  7  1  0  0  0
  6  1  1  0  0  0
 30 24  1  0  0  0
 28 31  1  0  0  0
 34 35  1  0  0  0
M  END
> <score>
-0.960538

> <minimizedAffinity>
-7.86023

> <CNNscore>
0.5939602256

> <CNNaffinity>
6.2369728088

> <CNN_VS>
3.7045137882

$$$$
HIPS6993


 36 39  0  0  0  0  0  0  0  0999 V2000
   67.3091   78.0812   87.1025 C   0  0  0  0  0  0  0  0  0  0  0  0
   67.6785   78.1256   85.7469 C   0  0  0  0  0  0  0  0  0  0  0  0
   67.7441   76.9513   84.9938 C   0  0  0  0  0  0  0  0  0  0  0  0
   67.4415   75.7221   85.5827 C   0  0  0  0  0  0  0  0  0  0  0  0
   67.0545   75.6592   86.9296 C   0  0  0  0  0  0  0  0  0  0  0  0
   66.9900   76.8416   87.6851 C   0  0  0  0  0  0  0  0  0  0  0  0
   67.3379   80.4405   90.0832 C   0  0  0  0  0  0  0  0  0  0  0  0
   67.2312   81.6782   89.4408 C   0  0  0  0  0  0  0  0  0  0  0  0
   67.1674   81.7481   88.0478 C   0  0  0  0  0  0  0  0  0  0  0  0
   67.1981   80.5789   87.2843 C   0  0  0  0  0  0  0  0  0  0  0  0
   67.2756   79.3233   87.9113 C   0  0  0  0  0  0  0  0  0  0  0  0
   67.3336   79.2615   89.3160 C   0  0  0  0  0  0  0  0  0  0  0  0
   67.4046   80.4148   91.4838 O   0  0  0  0  0  0  0  0  0  0  0  0
   65.4926   76.1618   94.6672 N   0  0  0  0  0  0  0  0  0  0  0  0
   65.9761   77.2533   93.8805 C   0  0  0  0  0  0  0  0  0  0  0  0
   67.1516   77.1151   93.1304 C   0  0  0  0  0  0  0  0  0  0  0  0
   67.6142   78.1755   92.3462 C   0  0  0  0  0  0  0  0  0  0  0  0
   66.9187   79.3897   92.3104 C   0  0  0  0  0  0  0  0  0  0  0  0
   65.7331   79.5239   93.0569 C   0  0  0  0  0  0  0  0  0  0  0  0
   65.2714   78.4638   93.8430 C   0  0  0  0  0  0  0  0  0  0  0  0
   65.9910   75.3131   94.6907 H   0  0  0  0  0  0  0  0  0  0  0  0
   64.6612   76.2589   95.1856 H   0  0  0  0  0  0  0  0  0  0  0  0
   66.7697   74.3235   87.5613 C   0  0  0  0  0  0  0  0  0  0  0  0
   66.6833   74.4605   88.9804 O   0  0  0  0  0  0  0  0  0  0  0  0
   67.6985   74.1279   89.8921 C   0  0  0  0  0  0  0  0  0  0  0  0
   67.8568   72.7856   90.2408 C   0  0  0  0  0  0  0  0  0  0  0  0
   68.8658   72.3969   91.1215 C   0  0  0  0  0  0  0  0  0  0  0  0
   69.7309   73.3437   91.6797 C   0  0  0  0  0  0  0  0  0  0  0  0
   70.7646   72.8734   92.4920 O   0  0  0  0  0  0  0  0  0  0  0  0
   69.5486   74.7194   91.3850 C   0  0  0  0  0  0  0  0  0  0  0  0
   68.5415   75.0916   90.4749 C   0  0  0  0  0  0  0  0  0  0  0  0
   70.8475   71.9553   92.6603 H   0  0  0  0  0  0  0  0  0  0  0  0
   70.3371   75.7947   92.0316 C   0  0  0  0  0  0  0  0  0  0  0  0
   70.4159   75.8745   93.2865 O   0  0  0  0  0  0  0  0  0  0  0  0
   70.9425   76.7752   91.2493 O   0  0  0  0  0  0  0  0  0  0  0  0
   70.8910   76.7270   90.3150 H   0  0  0  0  0  0  0  0  0  0  0  0
 14 15  1  0  0  0
 15 16  2  0  0  0
 16 17  1  0  0  0
 17 18  2  0  0  0
 18 13  1  0  0  0
 13  7  1  0  0  0
  7  8  2  0  0  0
  8  9  1  0  0  0
  9 10  2  0  0  0
 10 11  1  0  0  0
 11  1  1  0  0  0
  1  2  2  0  0  0
  2  3  1  0  0  0
  3  4  2  0  0  0
  4  5  1  0  0  0
  5 23  1  0  0  0
 23 24  1  0  0  0
 24 25  1  0  0  0
 25 26  2  0  0  0
 26 27  1  0  0  0
 27 28  2  0  0  0
 28 29  1  0  0  0
 28 30  1  0  0  0
 30 33  1  0  0  0
 33 34  2  0  0  0
 33 35  1  0  0  0
 30 31  2  0  0  0
  5  6  2  0  0  0
 11 12  2  0  0  0
 18 19  1  0  0  0
 19 20  2  0  0  0
 20 15  1  0  0  0
 12  7  1  0  0  0
  6  1  1  0  0  0
 31 25  1  0  0  0
 14 21  1  0  0  0
 14 22  1  0  0  0
 29 32  1  0  0  0
 35 36  1  0  0  0
M  END
> <score>
-0.223454

> <minimizedAffinity>
-8.40606

> <CNNscore>
0.5959529281

> <CNNaffinity>
6.8362712860

> <CNN_VS>
4.0740957260

$$$$
HIPS6993


 36 39  0  0  0  0  0  0  0  0999 V2000
   67.6531   82.4308   90.6882 C   0  0  0  0  0  0  0  0  0  0  0  0
   68.1041   83.1775   91.7905 C   0  0  0  0  0  0  0  0  0  0  0  0
   67.9207   82.6997   93.0900 C   0  0  0  0  0  0  0  0  0  0  0  0
   67.2877   81.4739   93.3041 C   0  0  0  0  0  0  0  0  0  0  0  0
   66.8458   80.7064   92.2164 C   0  0  0  0  0  0  0  0  0  0  0  0
   67.0308   81.1894   90.9104 C   0  0  0  0  0  0  0  0  0  0  0  0
   68.3790   84.7842   87.7923 C   0  0  0  0  0  0  0  0  0  0  0  0
   68.1385   83.9423   86.7017 C   0  0  0  0  0  0  0  0  0  0  0  0
   67.7594   82.6139   86.9047 C   0  0  0  0  0  0  0  0  0  0  0  0
   67.6062   82.1181   88.2014 C   0  0  0  0  0  0  0  0  0  0  0  0
   67.8146   82.9555   89.3110 C   0  0  0  0  0  0  0  0  0  0  0  0
   68.1907   84.2946   89.0975 C   0  0  0  0  0  0  0  0  0  0  0  0
   68.7629   86.1101   87.5447 O   0  0  0  0  0  0  0  0  0  0  0  0
   73.7405   88.2812   89.0900 N   0  0  0  0  0  0  0  0  0  0  0  0
   72.4751   87.7519   88.6866 C   0  0  0  0  0  0  0  0  0  0  0  0
   72.4039   86.5095   88.0426 C   0  0  0  0  0  0  0  0  0  0  0  0
   71.1653   85.9829   87.6654 C   0  0  0  0  0  0  0  0  0  0  0  0
   69.9851   86.6935   87.9133 C   0  0  0  0  0  0  0  0  0  0  0  0
   70.0575   87.9370   88.5687 C   0  0  0  0  0  0  0  0  0  0  0  0
   71.2967   88.4647   88.9443 C   0  0  0  0  0  0  0  0  0  0  0  0
   74.5660   87.7770   88.9069 H   0  0  0  0  0  0  0  0  0  0  0  0
   73.7863   89.1500   89.5508 H   0  0  0  0  0  0  0  0  0  0  0  0
   66.1300   79.4061   92.4638 C   0  0  0  0  0  0  0  0  0  0  0  0
   66.6966   78.7415   93.5938 O   0  0  0  0  0  0  0  0  0  0  0  0
   66.8361   77.3510   93.7329 C   0  0  0  0  0  0  0  0  0  0  0  0
   65.6827   76.5896   93.9288 C   0  0  0  0  0  0  0  0  0  0  0  0
   65.7614   75.2023   94.0468 C   0  0  0  0  0  0  0  0  0  0  0  0
   66.9962   74.5486   93.9819 C   0  0  0  0  0  0  0  0  0  0  0  0
   66.9907   73.1531   94.0306 O   0  0  0  0  0  0  0  0  0  0  0  0
   68.1856   75.3094   93.8437 C   0  0  0  0  0  0  0  0  0  0  0  0
   68.0859   76.7060   93.7008 C   0  0  0  0  0  0  0  0  0  0  0  0
   66.1810   72.6907   94.1227 H   0  0  0  0  0  0  0  0  0  0  0  0
   69.5390   74.7078   93.8945 C   0  0  0  0  0  0  0  0  0  0  0  0
   70.0511   74.3579   94.9912 O   0  0  0  0  0  0  0  0  0  0  0  0
   70.2888   74.5907   92.7267 O   0  0  0  0  0  0  0  0  0  0  0  0
   69.9192   74.8476   91.9049 H   0  0  0  0  0  0  0  0  0  0  0  0
 14 15  1  0  0  0
 15 16  2  0  0  0
 16 17  1  0  0  0
 17 18  2  0  0  0
 18 13  1  0  0  0
 13  7  1  0  0  0
  7  8  2  0  0  0
  8  9  1  0  0  0
  9 10  2  0  0  0
 10 11  1  0  0  0
 11  1  1  0  0  0
  1  2  2  0  0  0
  2  3  1  0  0  0
  3  4  2  0  0  0
  4  5  1  0  0  0
  5 23  1  0  0  0
 23 24  1  0  0  0
 24 25  1  0  0  0
 25 26  2  0  0  0
 26 27  1  0  0  0
 27 28  2  0  0  0
 28 29  1  0  0  0
 28 30  1  0  0  0
 30 33  1  0  0  0
 33 34  2  0  0  0
 33 35  1  0  0  0
 30 31  2  0  0  0
  5  6  2  0  0  0
 11 12  2  0  0  0
 18 19  1  0  0  0
 19 20  2  0  0  0
 20 15  1  0  0  0
 12  7  1  0  0  0
  6  1  1  0  0  0
 31 25  1  0  0  0
 14 21  1  0  0  0
 14 22  1  0  0  0
 29 32  1  0  0  0
 35 36  1  0  0  0
M  END
> <score>
-0.223454

> <minimizedAffinity>
-8.41899

> <CNNscore>
0.5607588291

> <CNNaffinity>
6.0013866425

> <CNN_VS>
3.3653304577

$$$$
HIPS6993


 36 39  0  0  0  0  0  0  0  0999 V2000
   67.5397   79.7765   88.5990 C   0  0  0  0  0  0  0  0  0  0  0  0
   66.9565   78.8332   87.7352 C   0  0  0  0  0  0  0  0  0  0  0  0
   66.8149   77.5024   88.1346 C   0  0  0  0  0  0  0  0  0  0  0  0
   67.2512   77.0986   89.3979 C   0  0  0  0  0  0  0  0  0  0  0  0
   67.8202   78.0287   90.2804 C   0  0  0  0  0  0  0  0  0  0  0  0
   67.9623   79.3663   89.8761 C   0  0  0  0  0  0  0  0  0  0  0  0
   68.5531   83.4404   88.5798 C   0  0  0  0  0  0  0  0  0  0  0  0
   68.0888   83.8358   87.3212 C   0  0  0  0  0  0  0  0  0  0  0  0
   67.4657   82.9150   86.4767 C   0  0  0  0  0  0  0  0  0  0  0  0
   67.2908   81.5918   86.8882 C   0  0  0  0  0  0  0  0  0  0  0  0
   67.7238   81.1808   88.1607 C   0  0  0  0  0  0  0  0  0  0  0  0
   68.3456   82.1167   89.0079 C   0  0  0  0  0  0  0  0  0  0  0  0
   69.1780   84.3953   89.3950 O   0  0  0  0  0  0  0  0  0  0  0  0
   73.4344   87.7531   87.8183 N   0  0  0  0  0  0  0  0  0  0  0  0
   72.3711   86.8924   88.2338 C   0  0  0  0  0  0  0  0  0  0  0  0
   71.1378   87.4326   88.6217 C   0  0  0  0  0  0  0  0  0  0  0  0
   70.0919   86.5904   89.0097 C   0  0  0  0  0  0  0  0  0  0  0  0
   70.2667   85.2017   89.0284 C   0  0  0  0  0  0  0  0  0  0  0  0
   71.5031   84.6601   88.6295 C   0  0  0  0  0  0  0  0  0  0  0  0
   72.5500   85.5027   88.2433 C   0  0  0  0  0  0  0  0  0  0  0  0
   73.3043   88.7290   87.8132 H   0  0  0  0  0  0  0  0  0  0  0  0
   74.2966   87.3700   87.5372 H   0  0  0  0  0  0  0  0  0  0  0  0
   68.3220   77.5712   91.6232 C   0  0  0  0  0  0  0  0  0  0  0  0
   67.2214   77.3088   92.4949 O   0  0  0  0  0  0  0  0  0  0  0  0
   67.1606   76.2682   93.4360 C   0  0  0  0  0  0  0  0  0  0  0  0
   66.0004   76.1394   94.2014 C   0  0  0  0  0  0  0  0  0  0  0  0
   65.8767   75.1081   95.1319 C   0  0  0  0  0  0  0  0  0  0  0  0
   66.9147   74.1904   95.3237 C   0  0  0  0  0  0  0  0  0  0  0  0
   66.6905   73.1399   96.2158 O   0  0  0  0  0  0  0  0  0  0  0  0
   68.1252   74.3400   94.5991 C   0  0  0  0  0  0  0  0  0  0  0  0
   68.2236   75.3711   93.6462 C   0  0  0  0  0  0  0  0  0  0  0  0
   65.8752   73.0800   96.6737 H   0  0  0  0  0  0  0  0  0  0  0  0
   69.3168   73.4910   94.8343 C   0  0  0  0  0  0  0  0  0  0  0  0
   69.4233   72.8012   95.8833 O   0  0  0  0  0  0  0  0  0  0  0  0
   70.3688   73.5063   93.9218 O   0  0  0  0  0  0  0  0  0  0  0  0
   70.3017   74.0153   93.1380 H   0  0  0  0  0  0  0  0  0  0  0  0
 14 15  1  0  0  0
 15 16  2  0  0  0
 16 17  1  0  0  0
 17 18  2  0  0  0
 18 13  1  0  0  0
 13  7  1  0  0  0
  7  8  2  0  0  0
  8  9  1  0  0  0
  9 10  2  0  0  0
 10 11  1  0  0  0
 11  1  1  0  0  0
  1  2  2  0  0  0
  2  3  1  0  0  0
  3  4  2  0  0  0
  4  5  1  0  0  0
  5 23  1  0  0  0
 23 24  1  0  0  0
 24 25  1  0  0  0
 25 26  2  0  0  0
 26 27  1  0  0  0
 27 28  2  0  0  0
 28 29  1  0  0  0
 28 30  1  0  0  0
 30 33  1  0  0  0
 33 34  2  0  0  0
 33 35  1  0  0  0
 30 31  2  0  0  0
  5  6  2  0  0  0
 11 12  2  0  0  0
 18 19  1  0  0  0
 19 20  2  0  0  0
 20 15  1  0  0  0
 12  7  1  0  0  0
  6  1  1  0  0  0
 31 25  1  0  0  0
 14 21  1  0  0  0
 14 22  1  0  0  0
 29 32  1  0  0  0
 35 36  1  0  0  0
M  END
> <score>
-0.223454

> <minimizedAffinity>
-8.75567

> <CNNscore>
0.5494480729

> <CNNaffinity>
6.1288776398

> <CNN_VS>
3.3675000668

$$$$
HIPS6994


 34 37  0  0  0  0  0  0  0  0999 V2000
   67.0475   77.5615   87.5281 C   0  0  0  0  0  0  0  0  0  0  0  0
   67.3629   77.4864   86.1596 C   0  0  0  0  0  0  0  0  0  0  0  0
   67.4274   76.2482   85.5147 C   0  0  0  0  0  0  0  0  0  0  0  0
   67.1652   75.0746   86.2239 C   0  0  0  0  0  0  0  0  0  0  0  0
   66.8326   75.1302   87.5869 C   0  0  0  0  0  0  0  0  0  0  0  0
   66.7854   76.3747   88.2363 C   0  0  0  0  0  0  0  0  0  0  0  0
   66.6689   80.1784   90.2616 C   0  0  0  0  0  0  0  0  0  0  0  0
   66.8432   81.3555   89.5264 C   0  0  0  0  0  0  0  0  0  0  0  0
   67.0792   81.3014   88.1507 C   0  0  0  0  0  0  0  0  0  0  0  0
   67.1441   80.0692   87.4971 C   0  0  0  0  0  0  0  0  0  0  0  0
   66.9798   78.8737   88.2179 C   0  0  0  0  0  0  0  0  0  0  0  0
   66.7496   78.9375   89.6045 C   0  0  0  0  0  0  0  0  0  0  0  0
   66.4762   80.2746   91.6486 O   0  0  0  0  0  0  0  0  0  0  0  0
   65.6314   75.8451   95.1636 C   0  0  0  0  0  0  0  0  0  0  0  0
   65.8304   77.0020   94.2285 C   0  0  0  0  0  0  0  0  0  0  0  0
   65.0337   78.1504   94.3478 C   0  0  0  0  0  0  0  0  0  0  0  0
   65.2343   79.2403   93.4953 C   0  0  0  0  0  0  0  0  0  0  0  0
   66.2374   79.1949   92.5115 C   0  0  0  0  0  0  0  0  0  0  0  0
   67.0537   78.0600   92.4149 C   0  0  0  0  0  0  0  0  0  0  0  0
   66.8511   76.9681   93.2649 C   0  0  0  0  0  0  0  0  0  0  0  0
   66.4829   73.8776   88.3415 C   0  0  0  0  0  0  0  0  0  0  0  0
   67.6296   73.3080   88.9724 O   0  0  0  0  0  0  0  0  0  0  0  0
   67.9665   73.5181   90.3162 C   0  0  0  0  0  0  0  0  0  0  0  0
   67.3911   72.6985   91.2894 C   0  0  0  0  0  0  0  0  0  0  0  0
   67.7006   72.8818   92.6386 C   0  0  0  0  0  0  0  0  0  0  0  0
   68.6016   73.8820   93.0325 C   0  0  0  0  0  0  0  0  0  0  0  0
   68.8875   74.0470   94.3873 O   0  0  0  0  0  0  0  0  0  0  0  0
   69.2131   74.7042   92.0578 C   0  0  0  0  0  0  0  0  0  0  0  0
   68.8833   74.5108   90.7010 C   0  0  0  0  0  0  0  0  0  0  0  0
   68.4758   73.4959   95.0235 H   0  0  0  0  0  0  0  0  0  0  0  0
   70.1987   75.7582   92.4185 C   0  0  0  0  0  0  0  0  0  0  0  0
   71.0678   76.1405   91.5912 O   0  0  0  0  0  0  0  0  0  0  0  0
   70.1697   76.3405   93.6827 O   0  0  0  0  0  0  0  0  0  0  0  0
   69.5293   76.0672   94.3098 H   0  0  0  0  0  0  0  0  0  0  0  0
 14 15  1  0  0  0
 15 16  2  0  0  0
 16 17  1  0  0  0
 17 18  2  0  0  0
 18 13  1  0  0  0
 13  7  1  0  0  0
  7  8  2  0  0  0
  8  9  1  0  0  0
  9 10  2  0  0  0
 10 11  1  0  0  0
 11  1  1  0  0  0
  1  2  2  0  0  0
  2  3  1  0  0  0
  3  4  2  0  0  0
  4  5  1  0  0  0
  5 21  1  0  0  0
 21 22  1  0  0  0
 22 23  1  0  0  0
 23 24  2  0  0  0
 24 25  1  0  0  0
 25 26  2  0  0  0
 26 27  1  0  0  0
 26 28  1  0  0  0
 28 31  1  0  0  0
 31 32  2  0  0  0
 31 33  1  0  0  0
 28 29  2  0  0  0
  5  6  2  0  0  0
 11 12  2  0  0  0
 18 19  1  0  0  0
 19 20  2  0  0  0
 20 15  1  0  0  0
 12  7  1  0  0  0
  6  1  1  0  0  0
 29 23  1  0  0  0
 27 30  1  0  0  0
 33 34  1  0  0  0
M  END
> <score>
-1.38477

> <minimizedAffinity>
-8.24677

> <CNNscore>
0.6977393031

> <CNNaffinity>
6.9982070923

> <CNN_VS>
4.8829240799

$$$$
HIPS6994


 34 37  0  0  0  0  0  0  0  0999 V2000
   66.8554   77.5650   88.1834 C   0  0  0  0  0  0  0  0  0  0  0  0
   67.0428   77.9263   86.8371 C   0  0  0  0  0  0  0  0  0  0  0  0
   67.2128   76.9441   85.8575 C   0  0  0  0  0  0  0  0  0  0  0  0
   67.1843   75.5930   86.2080 C   0  0  0  0  0  0  0  0  0  0  0  0
   66.9820   75.2121   87.5442 C   0  0  0  0  0  0  0  0  0  0  0  0
   66.8287   76.2017   88.5290 C   0  0  0  0  0  0  0  0  0  0  0  0
   66.6978   79.2686   91.5799 C   0  0  0  0  0  0  0  0  0  0  0  0
   66.3313   80.5661   91.2080 C   0  0  0  0  0  0  0  0  0  0  0  0
   66.1332   80.8867   89.8630 C   0  0  0  0  0  0  0  0  0  0  0  0
   66.3006   79.9125   88.8767 C   0  0  0  0  0  0  0  0  0  0  0  0
   66.6764   78.6042   89.2276 C   0  0  0  0  0  0  0  0  0  0  0  0
   66.8808   78.2923   90.5843 C   0  0  0  0  0  0  0  0  0  0  0  0
   66.9285   78.9986   92.9379 O   0  0  0  0  0  0  0  0  0  0  0  0
   67.2150   73.8263   95.3577 C   0  0  0  0  0  0  0  0  0  0  0  0
   67.1324   75.1727   94.6997 C   0  0  0  0  0  0  0  0  0  0  0  0
   65.8830   75.7333   94.3953 C   0  0  0  0  0  0  0  0  0  0  0  0
   65.8019   76.9988   93.8064 C   0  0  0  0  0  0  0  0  0  0  0  0
   66.9723   77.7209   93.5152 C   0  0  0  0  0  0  0  0  0  0  0  0
   68.2181   77.1734   93.8495 C   0  0  0  0  0  0  0  0  0  0  0  0
   68.3000   75.9061   94.4352 C   0  0  0  0  0  0  0  0  0  0  0  0
   66.8826   73.7596   87.9198 C   0  0  0  0  0  0  0  0  0  0  0  0
   66.7119   73.5923   89.3270 O   0  0  0  0  0  0  0  0  0  0  0  0
   67.7640   73.3350   90.2160 C   0  0  0  0  0  0  0  0  0  0  0  0
   68.3009   74.3966   90.9472 C   0  0  0  0  0  0  0  0  0  0  0  0
   69.3526   74.1779   91.8392 C   0  0  0  0  0  0  0  0  0  0  0  0
   69.8747   72.8888   92.0215 C   0  0  0  0  0  0  0  0  0  0  0  0
   70.9295   72.7004   92.9140 O   0  0  0  0  0  0  0  0  0  0  0  0
   69.3258   71.7980   91.3081 C   0  0  0  0  0  0  0  0  0  0  0  0
   68.2697   72.0379   90.4058 C   0  0  0  0  0  0  0  0  0  0  0  0
   71.2845   73.4312   93.3806 H   0  0  0  0  0  0  0  0  0  0  0  0
   69.8209   70.4070   91.4873 C   0  0  0  0  0  0  0  0  0  0  0  0
   69.8504   69.8735   92.6276 O   0  0  0  0  0  0  0  0  0  0  0  0
   70.2576   69.6724   90.3882 O   0  0  0  0  0  0  0  0  0  0  0  0
   70.2421   70.0549   89.5330 H   0  0  0  0  0  0  0  0  0  0  0  0
 14 15  1  0  0  0
 15 16  2  0  0  0
 16 17  1  0  0  0
 17 18  2  0  0  0
 18 13  1  0  0  0
 13  7  1  0  0  0
  7  8  2  0  0  0
  8  9  1  0  0  0
  9 10  2  0  0  0
 10 11  1  0  0  0
 11  1  1  0  0  0
  1  2  2  0  0  0
  2  3  1  0  0  0
  3  4  2  0  0  0
  4  5  1  0  0  0
  5 21  1  0  0  0
 21 22  1  0  0  0
 22 23  1  0  0  0
 23 24  2  0  0  0
 24 25  1  0  0  0
 25 26  2  0  0  0
 26 27  1  0  0  0
 26 28  1  0  0  0
 28 31  1  0  0  0
 31 32  2  0  0  0
 31 33  1  0  0  0
 28 29  2  0  0  0
  5  6  2  0  0  0
 11 12  2  0  0  0
 18 19  1  0  0  0
 19 20  2  0  0  0
 20 15  1  0  0  0
 12  7  1  0  0  0
  6  1  1  0  0  0
 29 23  1  0  0  0
 27 30  1  0  0  0
 33 34  1  0  0  0
M  END
> <score>
-1.38477

> <minimizedAffinity>
-8.21430

> <CNNscore>
0.6246356368

> <CNNaffinity>
6.7822780609

> <CNN_VS>
4.2364525795

$$$$
HIPS6994


 34 37  0  0  0  0  0  0  0  0999 V2000
   67.6207   80.2538   88.5909 C   0  0  0  0  0  0  0  0  0  0  0  0
   67.1410   79.3051   87.6701 C   0  0  0  0  0  0  0  0  0  0  0  0
   66.9368   77.9790   88.0612 C   0  0  0  0  0  0  0  0  0  0  0  0
   67.1960   77.5888   89.3764 C   0  0  0  0  0  0  0  0  0  0  0  0
   67.6599   78.5250   90.3144 C   0  0  0  0  0  0  0  0  0  0  0  0
   67.8804   79.8531   89.9140 C   0  0  0  0  0  0  0  0  0  0  0  0
   68.6831   83.9046   88.6698 C   0  0  0  0  0  0  0  0  0  0  0  0
   68.2533   84.3322   87.4094 C   0  0  0  0  0  0  0  0  0  0  0  0
   67.6194   83.4423   86.5392 C   0  0  0  0  0  0  0  0  0  0  0  0
   67.4101   82.1156   86.9210 C   0  0  0  0  0  0  0  0  0  0  0  0
   67.8410   81.6627   88.1800 C   0  0  0  0  0  0  0  0  0  0  0  0
   68.4851   82.5643   89.0471 C   0  0  0  0  0  0  0  0  0  0  0  0
   69.3536   84.8190   89.4972 O   0  0  0  0  0  0  0  0  0  0  0  0
   73.6770   88.1427   87.7793 C   0  0  0  0  0  0  0  0  0  0  0  0
   72.5456   87.2791   88.2551 C   0  0  0  0  0  0  0  0  0  0  0  0
   71.3211   87.8585   88.6196 C   0  0  0  0  0  0  0  0  0  0  0  0
   70.2566   87.0543   89.0380 C   0  0  0  0  0  0  0  0  0  0  0  0
   70.4041   85.6575   89.0959 C   0  0  0  0  0  0  0  0  0  0  0  0
   71.6171   85.0781   88.7006 C   0  0  0  0  0  0  0  0  0  0  0  0
   72.6834   85.8821   88.2855 C   0  0  0  0  0  0  0  0  0  0  0  0
   67.8770   78.1289   91.7486 C   0  0  0  0  0  0  0  0  0  0  0  0
   66.7571   77.4141   92.2705 O   0  0  0  0  0  0  0  0  0  0  0  0
   66.8596   76.3847   93.2156 C   0  0  0  0  0  0  0  0  0  0  0  0
   65.7761   76.1385   94.0613 C   0  0  0  0  0  0  0  0  0  0  0  0
   65.8444   75.1235   95.0177 C   0  0  0  0  0  0  0  0  0  0  0  0
   66.9959   74.3308   95.1331 C   0  0  0  0  0  0  0  0  0  0  0  0
   67.0392   73.3283   96.1014 O   0  0  0  0  0  0  0  0  0  0  0  0
   68.0926   74.5497   94.2676 C   0  0  0  0  0  0  0  0  0  0  0  0
   68.0099   75.5838   93.3131 C   0  0  0  0  0  0  0  0  0  0  0  0
   66.3060   73.1932   96.6690 H   0  0  0  0  0  0  0  0  0  0  0  0
   69.3243   73.7181   94.3266 C   0  0  0  0  0  0  0  0  0  0  0  0
   69.5582   72.9794   95.3193 O   0  0  0  0  0  0  0  0  0  0  0  0
   70.2378   73.7444   93.2762 O   0  0  0  0  0  0  0  0  0  0  0  0
   70.0785   74.2888   92.5304 H   0  0  0  0  0  0  0  0  0  0  0  0
 14 15  1  0  0  0
 15 16  2  0  0  0
 16 17  1  0  0  0
 17 18  2  0  0  0
 18 13  1  0  0  0
 13  7  1  0  0  0
  7  8  2  0  0  0
  8  9  1  0  0  0
  9 10  2  0  0  0
 10 11  1  0  0  0
 11  1  1  0  0  0
  1  2  2  0  0  0
  2  3  1  0  0  0
  3  4  2  0  0  0
  4  5  1  0  0  0
  5 21  1  0  0  0
 21 22  1  0  0  0
 22 23  1  0  0  0
 23 24  2  0  0  0
 24 25  1  0  0  0
 25 26  2  0  0  0
 26 27  1  0  0  0
 26 28  1  0  0  0
 28 31  1  0  0  0
 31 32  2  0  0  0
 31 33  1  0  0  0
 28 29  2  0  0  0
  5  6  2  0  0  0
 11 12  2  0  0  0
 18 19  1  0  0  0
 19 20  2  0  0  0
 20 15  1  0  0  0
 12  7  1  0  0  0
  6  1  1  0  0  0
 29 23  1  0  0  0
 27 30  1  0  0  0
 33 34  1  0  0  0
M  END
> <score>
-1.38477

> <minimizedAffinity>
-8.88062

> <CNNscore>
0.5942065120

> <CNNaffinity>
6.1282835007

> <CNN_VS>
3.6414659023

$$$$
HIPS6995


 34 37  0  0  0  0  0  0  0  0999 V2000
   66.6276   78.9807   91.6943 C   0  0  0  0  0  0  0  0  0  0  0  0
   65.6602   79.7785   92.3228 C   0  0  0  0  0  0  0  0  0  0  0  0
   65.0668   79.3563   93.5139 C   0  0  0  0  0  0  0  0  0  0  0  0
   65.4378   78.1400   94.0919 C   0  0  0  0  0  0  0  0  0  0  0  0
   66.4150   77.3314   93.4844 C   0  0  0  0  0  0  0  0  0  0  0  0
   67.0119   77.7670   92.2870 C   0  0  0  0  0  0  0  0  0  0  0  0
   66.8082   76.0359   94.0943 C   0  0  0  0  0  0  0  0  0  0  0  0
   65.9041   75.3244   94.9023 C   0  0  0  0  0  0  0  0  0  0  0  0
   66.2765   74.1076   95.4768 C   0  0  0  0  0  0  0  0  0  0  0  0
   67.5511   73.5841   95.2522 C   0  0  0  0  0  0  0  0  0  0  0  0
   68.4694   74.2788   94.4427 C   0  0  0  0  0  0  0  0  0  0  0  0
   68.0911   75.5013   93.8738 C   0  0  0  0  0  0  0  0  0  0  0  0
   69.7615   73.7959   94.1772 O   0  0  0  0  0  0  0  0  0  0  0  0
   70.3781   72.6869   94.8313 C   0  0  0  0  0  0  0  0  0  0  0  0
   70.7054   71.6076   93.8465 C   0  0  0  0  0  0  0  0  0  0  0  0
   72.0030   71.3099   93.5658 N   0  0  0  0  0  0  0  0  0  0  0  0
   72.3187   70.3401   92.6686 C   0  0  0  0  0  0  0  0  0  0  0  0
   71.3050   69.6386   92.0174 C   0  0  0  0  0  0  0  0  0  0  0  0
   69.9805   69.9617   92.3095 C   0  0  0  0  0  0  0  0  0  0  0  0
   69.7048   70.9379   93.2129 N   0  0  0  0  0  0  0  0  0  0  0  0
   67.2790   79.4374   90.4150 C   0  0  0  0  0  0  0  0  0  0  0  0
   66.5398   80.5045   89.8190 O   0  0  0  0  0  0  0  0  0  0  0  0
   67.8700   83.7747   88.6866 C   0  0  0  0  0  0  0  0  0  0  0  0
   67.3362   82.7495   89.4879 C   0  0  0  0  0  0  0  0  0  0  0  0
   67.0732   81.4808   88.9615 C   0  0  0  0  0  0  0  0  0  0  0  0
   67.3433   81.2318   87.6056 C   0  0  0  0  0  0  0  0  0  0  0  0
   67.8918   82.2327   86.8037 C   0  0  0  0  0  0  0  0  0  0  0  0
   68.1803   83.4954   87.3322 C   0  0  0  0  0  0  0  0  0  0  0  0
   68.8012   84.4235   86.4931 O   0  0  0  0  0  0  0  0  0  0  0  0
   68.9890   84.1984   85.6031 H   0  0  0  0  0  0  0  0  0  0  0  0
   68.7967   85.9709   88.7430 O   0  0  0  0  0  0  0  0  0  0  0  0
   68.0554   85.1124   89.2915 C   0  0  0  0  0  0  0  0  0  0  0  0
   67.3569   85.4527   90.4468 O   0  0  0  0  0  0  0  0  0  0  0  0
   66.8029   84.8216   90.8624 H   0  0  0  0  0  0  0  0  0  0  0  0
 31 32  2  0  0  0
 32 33  1  0  0  0
 32 23  1  0  0  0
 23 24  2  0  0  0
 24 25  1  0  0  0
 25 22  1  0  0  0
 22 21  1  0  0  0
 21  1  1  0  0  0
  1  2  2  0  0  0
  2  3  1  0  0  0
  3  4  2  0  0  0
  4  5  1  0  0  0
  5  7  1  0  0  0
  7  8  2  0  0  0
  8  9  1  0  0  0
  9 10  2  0  0  0
 10 11  1  0  0  0
 11 13  1  0  0  0
 13 14  1  0  0  0
 14 15  1  0  0  0
 15 16  2  0  0  0
 16 17  2  0  0  0
 17 18  2  0  0  0
 18 19  1  0  0  0
 19 20  2  0  0  0
 11 12  2  0  0  0
  5  6  2  0  0  0
 25 26  2  0  0  0
 26 27  1  0  0  0
 27 28  2  0  0  0
 28 29  1  0  0  0
 28 23  1  0  0  0
  6  1  1  0  0  0
 12  7  1  0  0  0
 20 15  2  0  0  0
 33 34  1  0  0  0
 29 30  1  0  0  0
M  END
> <score>
-0.428841

> <minimizedAffinity>
-7.80864

> <CNNscore>
0.5769535303

> <CNNaffinity>
5.9310932159

> <CNN_VS>
3.4219651222

$$$$
HIPS6995


 34 37  0  0  0  0  0  0  0  0999 V2000
   67.2629   78.3479   90.3642 C   0  0  0  0  0  0  0  0  0  0  0  0
   66.8329   77.3757   89.4491 C   0  0  0  0  0  0  0  0  0  0  0  0
   66.5793   77.7239   88.1210 C   0  0  0  0  0  0  0  0  0  0  0  0
   66.7591   79.0412   87.6927 C   0  0  0  0  0  0  0  0  0  0  0  0
   67.2018   80.0282   88.5915 C   0  0  0  0  0  0  0  0  0  0  0  0
   67.4603   79.6676   89.9267 C   0  0  0  0  0  0  0  0  0  0  0  0
   67.3898   81.4303   88.1400 C   0  0  0  0  0  0  0  0  0  0  0  0
   67.4831   81.7319   86.7700 C   0  0  0  0  0  0  0  0  0  0  0  0
   67.6622   83.0505   86.3475 C   0  0  0  0  0  0  0  0  0  0  0  0
   67.7480   84.0837   87.2826 C   0  0  0  0  0  0  0  0  0  0  0  0
   67.6524   83.8031   88.6586 C   0  0  0  0  0  0  0  0  0  0  0  0
   67.4780   82.4776   89.0756 C   0  0  0  0  0  0  0  0  0  0  0  0
   67.7247   84.8033   89.6423 O   0  0  0  0  0  0  0  0  0  0  0  0
   68.9255   85.4269   90.0978 C   0  0  0  0  0  0  0  0  0  0  0  0
   70.0839   84.4843   89.9914 C   0  0  0  0  0  0  0  0  0  0  0  0
   70.2601   83.5109   90.9256 N   0  0  0  0  0  0  0  0  0  0  0  0
   71.3102   82.6525   90.8503 C   0  0  0  0  0  0  0  0  0  0  0  0
   72.2283   82.7668   89.8072 C   0  0  0  0  0  0  0  0  0  0  0  0
   72.0386   83.7751   88.8630 C   0  0  0  0  0  0  0  0  0  0  0  0
   70.9759   84.6142   88.9724 N   0  0  0  0  0  0  0  0  0  0  0  0
   67.5488   77.9746   91.7955 C   0  0  0  0  0  0  0  0  0  0  0  0
   66.5169   77.1378   92.3202 O   0  0  0  0  0  0  0  0  0  0  0  0
   68.0285   74.2278   94.0503 C   0  0  0  0  0  0  0  0  0  0  0  0
   67.7849   75.2601   93.1267 C   0  0  0  0  0  0  0  0  0  0  0  0
   66.7003   76.1296   93.2807 C   0  0  0  0  0  0  0  0  0  0  0  0
   65.8375   75.9617   94.3765 C   0  0  0  0  0  0  0  0  0  0  0  0
   66.0783   74.9552   95.3118 C   0  0  0  0  0  0  0  0  0  0  0  0
   67.1764   74.0994   95.1757 C   0  0  0  0  0  0  0  0  0  0  0  0
   67.4015   73.1662   96.1903 O   0  0  0  0  0  0  0  0  0  0  0  0
   66.8133   73.1140   96.9178 H   0  0  0  0  0  0  0  0  0  0  0  0
   68.9862   72.0536   93.8482 O   0  0  0  0  0  0  0  0  0  0  0  0
   69.1513   73.3012   93.7859 C   0  0  0  0  0  0  0  0  0  0  0  0
   70.3909   73.8068   93.4033 O   0  0  0  0  0  0  0  0  0  0  0  0
   70.5241   74.7330   93.3537 H   0  0  0  0  0  0  0  0  0  0  0  0
 31 32  2  0  0  0
 32 33  1  0  0  0
 32 23  1  0  0  0
 23 24  2  0  0  0
 24 25  1  0  0  0
 25 22  1  0  0  0
 22 21  1  0  0  0
 21  1  1  0  0  0
  1  2  2  0  0  0
  2  3  1  0  0  0
  3  4  2  0  0  0
  4  5  1  0  0  0
  5  7  1  0  0  0
  7  8  2  0  0  0
  8  9  1  0  0  0
  9 10  2  0  0  0
 10 11  1  0  0  0
 11 13  1  0  0  0
 13 14  1  0  0  0
 14 15  1  0  0  0
 15 16  2  0  0  0
 16 17  2  0  0  0
 17 18  2  0  0  0
 18 19  1  0  0  0
 19 20  2  0  0  0
 11 12  2  0  0  0
  5  6  2  0  0  0
 25 26  2  0  0  0
 26 27  1  0  0  0
 27 28  2  0  0  0
 28 29  1  0  0  0
 28 23  1  0  0  0
  6  1  1  0  0  0
 12  7  1  0  0  0
 20 15  2  0  0  0
 33 34  1  0  0  0
 29 30  1  0  0  0
M  END
> <score>
-0.428841

> <minimizedAffinity>
-7.96681

> <CNNscore>
0.5455858111

> <CNNaffinity>
6.2885313034

> <CNN_VS>
3.4309334755

$$$$
HIPS6995


 34 37  0  0  0  0  0  0  0  0999 V2000
   67.3126   77.5808   89.9124 C   0  0  0  0  0  0  0  0  0  0  0  0
   66.6303   77.6936   88.6920 C   0  0  0  0  0  0  0  0  0  0  0  0
   66.7512   78.8532   87.9239 C   0  0  0  0  0  0  0  0  0  0  0  0
   67.5581   79.9059   88.3617 C   0  0  0  0  0  0  0  0  0  0  0  0
   68.2605   79.8075   89.5762 C   0  0  0  0  0  0  0  0  0  0  0  0
   68.1374   78.6332   90.3415 C   0  0  0  0  0  0  0  0  0  0  0  0
   69.1156   80.9268   90.0462 C   0  0  0  0  0  0  0  0  0  0  0  0
   70.5064   80.7601   90.1659 C   0  0  0  0  0  0  0  0  0  0  0  0
   71.3085   81.8129   90.6103 C   0  0  0  0  0  0  0  0  0  0  0  0
   70.7365   83.0436   90.9382 C   0  0  0  0  0  0  0  0  0  0  0  0
   69.3466   83.2321   90.8210 C   0  0  0  0  0  0  0  0  0  0  0  0
   68.5474   82.1702   90.3796 C   0  0  0  0  0  0  0  0  0  0  0  0
   68.7188   84.4501   91.1300 O   0  0  0  0  0  0  0  0  0  0  0  0
   68.9882   85.7009   90.4965 C   0  0  0  0  0  0  0  0  0  0  0  0
   69.2594   85.5065   89.0369 C   0  0  0  0  0  0  0  0  0  0  0  0
   68.2648   85.0906   88.2070 N   0  0  0  0  0  0  0  0  0  0  0  0
   68.4947   84.9003   86.8818 C   0  0  0  0  0  0  0  0  0  0  0  0
   69.7664   85.1268   86.3572 C   0  0  0  0  0  0  0  0  0  0  0  0
   70.7770   85.5442   87.2224 C   0  0  0  0  0  0  0  0  0  0  0  0
   70.5080   85.7235   88.5418 N   0  0  0  0  0  0  0  0  0  0  0  0
   67.1944   76.3270   90.7392 C   0  0  0  0  0  0  0  0  0  0  0  0
   66.8141   76.6350   92.0812 O   0  0  0  0  0  0  0  0  0  0  0  0
   68.1914   74.1384   94.4510 C   0  0  0  0  0  0  0  0  0  0  0  0
   68.0637   75.0466   93.3848 C   0  0  0  0  0  0  0  0  0  0  0  0
   66.8713   75.7437   93.1653 C   0  0  0  0  0  0  0  0  0  0  0  0
   65.7816   75.5255   94.0245 C   0  0  0  0  0  0  0  0  0  0  0  0
   65.9000   74.6430   95.0983 C   0  0  0  0  0  0  0  0  0  0  0  0
   67.0989   73.9629   95.3369 C   0  0  0  0  0  0  0  0  0  0  0  0
   67.1719   73.1562   96.4748 O   0  0  0  0  0  0  0  0  0  0  0  0
   66.4258   73.0672   97.0346 H   0  0  0  0  0  0  0  0  0  0  0  0
   70.3005   73.3727   93.6445 O   0  0  0  0  0  0  0  0  0  0  0  0
   69.4569   73.3827   94.5804 C   0  0  0  0  0  0  0  0  0  0  0  0
   69.7515   72.7240   95.7712 O   0  0  0  0  0  0  0  0  0  0  0  0
   69.1310   72.7254   96.4733 H   0  0  0  0  0  0  0  0  0  0  0  0
 31 32  2  0  0  0
 32 33  1  0  0  0
 32 23  1  0  0  0
 23 24  2  0  0  0
 24 25  1  0  0  0
 25 22  1  0  0  0
 22 21  1  0  0  0
 21  1  1  0  0  0
  1  2  2  0  0  0
  2  3  1  0  0  0
  3  4  2  0  0  0
  4  5  1  0  0  0
  5  7  1  0  0  0
  7  8  2  0  0  0
  8  9  1  0  0  0
  9 10  2  0  0  0
 10 11  1  0  0  0
 11 13  1  0  0  0
 13 14  1  0  0  0
 14 15  1  0  0  0
 15 16  2  0  0  0
 16 17  2  0  0  0
 17 18  2  0  0  0
 18 19  1  0  0  0
 19 20  2  0  0  0
 11 12  2  0  0  0
  5  6  2  0  0  0
 25 26  2  0  0  0
 26 27  1  0  0  0
 27 28  2  0  0  0
 28 29  1  0  0  0
 28 23  1  0  0  0
  6  1  1  0  0  0
 12  7  1  0  0  0
 20 15  2  0  0  0
 33 34  1  0  0  0
 29 30  1  0  0  0
M  END
> <score>
-0.428841

> <minimizedAffinity>
-8.39821

> <CNNscore>
0.5186609030

> <CNNaffinity>
6.2109823227

> <CNN_VS>
3.2213935852

$$$$
HIPS6996


 34 37  0  0  0  0  0  0  0  0999 V2000
   67.0736   78.8932   88.5866 C   0  0  0  0  0  0  0  0  0  0  0  0
   67.2439   79.1435   87.2173 C   0  0  0  0  0  0  0  0  0  0  0  0
   67.4004   78.0836   86.3225 C   0  0  0  0  0  0  0  0  0  0  0  0
   67.3877   76.7657   86.7852 C   0  0  0  0  0  0  0  0  0  0  0  0
   67.2136   76.4931   88.1538 C   0  0  0  0  0  0  0  0  0  0  0  0
   67.0479   77.5670   89.0478 C   0  0  0  0  0  0  0  0  0  0  0  0
   67.2118   75.0938   88.6499 C   0  0  0  0  0  0  0  0  0  0  0  0
   66.7033   74.0536   87.8530 C   0  0  0  0  0  0  0  0  0  0  0  0
   66.7032   72.7390   88.3234 C   0  0  0  0  0  0  0  0  0  0  0  0
   67.2087   72.4450   89.5913 C   0  0  0  0  0  0  0  0  0  0  0  0
   67.7205   73.4726   90.4051 C   0  0  0  0  0  0  0  0  0  0  0  0
   67.7207   74.7883   89.9259 C   0  0  0  0  0  0  0  0  0  0  0  0
   68.2405   73.2352   91.6880 O   0  0  0  0  0  0  0  0  0  0  0  0
   67.4887   72.7741   92.8112 C   0  0  0  0  0  0  0  0  0  0  0  0
   66.8674   73.9295   93.5503 C   0  0  0  0  0  0  0  0  0  0  0  0
   66.4360   73.7814   94.8768 C   0  0  0  0  0  0  0  0  0  0  0  0
   65.8733   74.8729   95.5429 C   0  0  0  0  0  0  0  0  0  0  0  0
   65.7547   76.0709   94.9112 N   0  0  0  0  0  0  0  0  0  0  0  0
   66.1745   76.2453   93.6300 C   0  0  0  0  0  0  0  0  0  0  0  0
   66.7427   75.1799   92.9274 C   0  0  0  0  0  0  0  0  0  0  0  0
   66.9098   80.0428   89.5452 C   0  0  0  0  0  0  0  0  0  0  0  0
   67.6756   79.8230   90.7304 O   0  0  0  0  0  0  0  0  0  0  0  0
   70.1464   77.2542   91.7579 C   0  0  0  0  0  0  0  0  0  0  0  0
   68.9606   78.0033   91.6371 C   0  0  0  0  0  0  0  0  0  0  0  0
   68.8893   79.1185   90.7951 C   0  0  0  0  0  0  0  0  0  0  0  0
   70.0212   79.4884   90.0496 C   0  0  0  0  0  0  0  0  0  0  0  0
   71.2038   78.7571   90.1586 C   0  0  0  0  0  0  0  0  0  0  0  0
   71.2786   77.6438   91.0064 C   0  0  0  0  0  0  0  0  0  0  0  0
   72.4751   76.9322   91.0957 O   0  0  0  0  0  0  0  0  0  0  0  0
   73.2185   77.2006   90.5924 H   0  0  0  0  0  0  0  0  0  0  0  0
   69.9067   76.2062   93.8945 O   0  0  0  0  0  0  0  0  0  0  0  0
   70.1734   76.0811   92.6690 C   0  0  0  0  0  0  0  0  0  0  0  0
   70.4965   74.8197   92.1743 O   0  0  0  0  0  0  0  0  0  0  0  0
   70.6972   74.7101   91.2657 H   0  0  0  0  0  0  0  0  0  0  0  0
 31 32  2  0  0  0
 32 33  1  0  0  0
 32 23  1  0  0  0
 23 24  2  0  0  0
 24 25  1  0  0  0
 25 22  1  0  0  0
 22 21  1  0  0  0
 21  1  1  0  0  0
  1  2  2  0  0  0
  2  3  1  0  0  0
  3  4  2  0  0  0
  4  5  1  0  0  0
  5  7  1  0  0  0
  7  8  2  0  0  0
  8  9  1  0  0  0
  9 10  2  0  0  0
 10 11  1  0  0  0
 11 13  1  0  0  0
 13 14  1  0  0  0
 14 15  1  0  0  0
 15 16  2  0  0  0
 16 17  1  0  0  0
 17 18  2  0  0  0
 18 19  2  0  0  0
 19 20  2  0  0  0
 11 12  2  0  0  0
  5  6  2  0  0  0
 25 26  2  0  0  0
 26 27  1  0  0  0
 27 28  2  0  0  0
 28 29  1  0  0  0
 28 23  1  0  0  0
  6  1  1  0  0  0
 12  7  1  0  0  0
 20 15  1  0  0  0
 33 34  1  0  0  0
 29 30  1  0  0  0
M  END
> <score>
0.453314

> <minimizedAffinity>
-8.43817

> <CNNscore>
0.7807323337

> <CNNaffinity>
6.7908487320

> <CNN_VS>
5.3018350601

$$$$
HIPS6996


 34 37  0  0  0  0  0  0  0  0999 V2000
   67.8535   78.9497   90.2825 C   0  0  0  0  0  0  0  0  0  0  0  0
   66.6113   79.3697   89.7855 C   0  0  0  0  0  0  0  0  0  0  0  0
   66.4861   80.6138   89.1648 C   0  0  0  0  0  0  0  0  0  0  0  0
   67.5982   81.4487   89.0336 C   0  0  0  0  0  0  0  0  0  0  0  0
   68.8538   81.0442   89.5210 C   0  0  0  0  0  0  0  0  0  0  0  0
   68.9730   79.7851   90.1377 C   0  0  0  0  0  0  0  0  0  0  0  0
   70.0349   81.9347   89.3938 C   0  0  0  0  0  0  0  0  0  0  0  0
   71.2013   81.6854   90.1374 C   0  0  0  0  0  0  0  0  0  0  0  0
   72.3098   82.5256   90.0151 C   0  0  0  0  0  0  0  0  0  0  0  0
   72.2700   83.6225   89.1521 C   0  0  0  0  0  0  0  0  0  0  0  0
   71.1108   83.8901   88.4005 C   0  0  0  0  0  0  0  0  0  0  0  0
   70.0039   83.0416   88.5253 C   0  0  0  0  0  0  0  0  0  0  0  0
   71.0144   84.9787   87.5182 O   0  0  0  0  0  0  0  0  0  0  0  0
   69.8936   85.8570   87.4101 C   0  0  0  0  0  0  0  0  0  0  0  0
   69.7681   86.7184   88.6387 C   0  0  0  0  0  0  0  0  0  0  0  0
   70.4739   87.9263   88.7407 C   0  0  0  0  0  0  0  0  0  0  0  0
   70.3305   88.7120   89.8871 C   0  0  0  0  0  0  0  0  0  0  0  0
   69.5052   88.3111   90.8903 N   0  0  0  0  0  0  0  0  0  0  0  0
   68.8010   87.1508   90.8130 C   0  0  0  0  0  0  0  0  0  0  0  0
   68.9155   86.3354   89.6845 C   0  0  0  0  0  0  0  0  0  0  0  0
   67.9785   77.6080   90.9545 C   0  0  0  0  0  0  0  0  0  0  0  0
   67.0897   77.5181   92.0686 O   0  0  0  0  0  0  0  0  0  0  0  0
   68.3088   74.6728   94.1124 C   0  0  0  0  0  0  0  0  0  0  0  0
   68.2468   75.7280   93.1825 C   0  0  0  0  0  0  0  0  0  0  0  0
   67.0816   76.4854   93.0209 C   0  0  0  0  0  0  0  0  0  0  0  0
   65.9575   76.1914   93.8108 C   0  0  0  0  0  0  0  0  0  0  0  0
   66.0024   75.1489   94.7361 C   0  0  0  0  0  0  0  0  0  0  0  0
   67.1667   74.3852   94.8945 C   0  0  0  0  0  0  0  0  0  0  0  0
   67.1819   73.3480   95.8272 O   0  0  0  0  0  0  0  0  0  0  0  0
   66.4185   73.1674   96.3395 H   0  0  0  0  0  0  0  0  0  0  0  0
   70.2331   73.5630   93.2259 O   0  0  0  0  0  0  0  0  0  0  0  0
   69.5675   73.8947   94.2435 C   0  0  0  0  0  0  0  0  0  0  0  0
   70.0293   73.5203   95.5031 O   0  0  0  0  0  0  0  0  0  0  0  0
   69.5460   73.7592   96.2694 H   0  0  0  0  0  0  0  0  0  0  0  0
 31 32  2  0  0  0
 32 33  1  0  0  0
 32 23  1  0  0  0
 23 24  2  0  0  0
 24 25  1  0  0  0
 25 22  1  0  0  0
 22 21  1  0  0  0
 21  1  1  0  0  0
  1  2  2  0  0  0
  2  3  1  0  0  0
  3  4  2  0  0  0
  4  5  1  0  0  0
  5  7  1  0  0  0
  7  8  2  0  0  0
  8  9  1  0  0  0
  9 10  2  0  0  0
 10 11  1  0  0  0
 11 13  1  0  0  0
 13 14  1  0  0  0
 14 15  1  0  0  0
 15 16  2  0  0  0
 16 17  1  0  0  0
 17 18  2  0  0  0
 18 19  2  0  0  0
 19 20  2  0  0  0
 11 12  2  0  0  0
  5  6  2  0  0  0
 25 26  2  0  0  0
 26 27  1  0  0  0
 27 28  2  0  0  0
 28 29  1  0  0  0
 28 23  1  0  0  0
  6  1  1  0  0  0
 12  7  1  0  0  0
 20 15  1  0  0  0
 33 34  1  0  0  0
 29 30  1  0  0  0
M  END
> <score>
0.453314

> <minimizedAffinity>
-8.50242

> <CNNscore>
0.6236363053

> <CNNaffinity>
6.1300497055

> <CNN_VS>
3.8229215145

$$$$
HIPS6996


 34 37  0  0  0  0  0  0  0  0999 V2000
   66.9027   75.3853   87.4986 C   0  0  0  0  0  0  0  0  0  0  0  0
   67.1231   75.2699   86.1185 C   0  0  0  0  0  0  0  0  0  0  0  0
   67.4092   76.4028   85.3547 C   0  0  0  0  0  0  0  0  0  0  0  0
   67.4787   77.6595   85.9604 C   0  0  0  0  0  0  0  0  0  0  0  0
   67.2655   77.7960   87.3437 C   0  0  0  0  0  0  0  0  0  0  0  0
   66.9861   76.6479   88.1077 C   0  0  0  0  0  0  0  0  0  0  0  0
   67.3268   79.1322   87.9881 C   0  0  0  0  0  0  0  0  0  0  0  0
   67.1795   80.3020   87.2230 C   0  0  0  0  0  0  0  0  0  0  0  0
   67.2381   81.5567   87.8328 C   0  0  0  0  0  0  0  0  0  0  0  0
   67.4439   81.6612   89.2099 C   0  0  0  0  0  0  0  0  0  0  0  0
   67.5956   80.5018   89.9929 C   0  0  0  0  0  0  0  0  0  0  0  0
   67.5324   79.2467   89.3756 C   0  0  0  0  0  0  0  0  0  0  0  0
   67.8055   80.5472   91.3810 O   0  0  0  0  0  0  0  0  0  0  0  0
   66.7828   80.7001   92.3659 C   0  0  0  0  0  0  0  0  0  0  0  0
   66.4055   79.3678   92.9572 C   0  0  0  0  0  0  0  0  0  0  0  0
   67.1583   78.2192   92.6714 C   0  0  0  0  0  0  0  0  0  0  0  0
   66.7929   76.9976   93.2424 C   0  0  0  0  0  0  0  0  0  0  0  0
   65.7212   76.9273   94.0759 N   0  0  0  0  0  0  0  0  0  0  0  0
   64.9808   78.0265   94.3788 C   0  0  0  0  0  0  0  0  0  0  0  0
   65.3116   79.2675   93.8292 C   0  0  0  0  0  0  0  0  0  0  0  0
   66.5904   74.1586   88.3141 C   0  0  0  0  0  0  0  0  0  0  0  0
   67.7629   73.6815   88.9751 O   0  0  0  0  0  0  0  0  0  0  0  0
   68.9624   74.3245   92.4258 C   0  0  0  0  0  0  0  0  0  0  0  0
   68.7611   74.4181   91.0356 C   0  0  0  0  0  0  0  0  0  0  0  0
   67.9097   73.5337   90.3644 C   0  0  0  0  0  0  0  0  0  0  0  0
   67.2363   72.5415   91.0965 C   0  0  0  0  0  0  0  0  0  0  0  0
   67.4254   72.4351   92.4742 C   0  0  0  0  0  0  0  0  0  0  0  0
   68.2829   73.3160   93.1468 C   0  0  0  0  0  0  0  0  0  0  0  0
   68.4532   73.1849   94.5251 O   0  0  0  0  0  0  0  0  0  0  0  0
   67.9971   72.5123   94.9917 H   0  0  0  0  0  0  0  0  0  0  0  0
   70.7436   75.9209   92.4300 O   0  0  0  0  0  0  0  0  0  0  0  0
   69.8803   75.2841   93.0919 C   0  0  0  0  0  0  0  0  0  0  0  0
   69.7961   75.4920   94.4666 O   0  0  0  0  0  0  0  0  0  0  0  0
   69.1597   75.0263   94.9727 H   0  0  0  0  0  0  0  0  0  0  0  0
 31 32  2  0  0  0
 32 33  1  0  0  0
 32 23  1  0  0  0
 23 24  2  0  0  0
 24 25  1  0  0  0
 25 22  1  0  0  0
 22 21  1  0  0  0
 21  1  1  0  0  0
  1  2  2  0  0  0
  2  3  1  0  0  0
  3  4  2  0  0  0
  4  5  1  0  0  0
  5  7  1  0  0  0
  7  8  2  0  0  0
  8  9  1  0  0  0
  9 10  2  0  0  0
 10 11  1  0  0  0
 11 13  1  0  0  0
 13 14  1  0  0  0
 14 15  1  0  0  0
 15 16  2  0  0  0
 16 17  1  0  0  0
 17 18  2  0  0  0
 18 19  2  0  0  0
 19 20  2  0  0  0
 11 12  2  0  0  0
  5  6  2  0  0  0
 25 26  2  0  0  0
 26 27  1  0  0  0
 27 28  2  0  0  0
 28 29  1  0  0  0
 28 23  1  0  0  0
  6  1  1  0  0  0
 12  7  1  0  0  0
 20 15  1  0  0  0
 33 34  1  0  0  0
 29 30  1  0  0  0
M  END
> <score>
0.453314

> <minimizedAffinity>
-7.83362

> <CNNscore>
0.5776045322

> <CNNaffinity>
6.7355566025

> <CNN_VS>
3.8904879093

$$$$
HIPS6997


 34 37  0  0  0  0  0  0  0  0999 V2000
   66.9665   76.0405   87.3493 C   0  0  0  0  0  0  0  0  0  0  0  0
   67.4719   76.6786   86.2102 C   0  0  0  0  0  0  0  0  0  0  0  0
   67.6247   78.0670   86.1903 C   0  0  0  0  0  0  0  0  0  0  0  0
   67.3005   78.8262   87.3140 C   0  0  0  0  0  0  0  0  0  0  0  0
   66.8088   78.2012   88.4730 C   0  0  0  0  0  0  0  0  0  0  0  0
   66.6291   76.8055   88.4723 C   0  0  0  0  0  0  0  0  0  0  0  0
   66.5596   78.9910   89.7056 C   0  0  0  0  0  0  0  0  0  0  0  0
   66.2644   80.3678   89.6316 C   0  0  0  0  0  0  0  0  0  0  0  0
   66.0698   81.1105   90.7983 C   0  0  0  0  0  0  0  0  0  0  0  0
   66.1594   80.4889   92.0489 C   0  0  0  0  0  0  0  0  0  0  0  0
   66.4495   79.1179   92.1499 C   0  0  0  0  0  0  0  0  0  0  0  0
   66.6523   78.3730   90.9700 C   0  0  0  0  0  0  0  0  0  0  0  0
   66.5103   78.5467   93.4360 O   0  0  0  0  0  0  0  0  0  0  0  0
   65.4525   77.8617   94.1124 C   0  0  0  0  0  0  0  0  0  0  0  0
   65.8210   76.4191   94.3394 C   0  0  0  0  0  0  0  0  0  0  0  0
   65.7517   75.8665   95.6279 C   0  0  0  0  0  0  0  0  0  0  0  0
   66.0916   74.5318   95.8366 C   0  0  0  0  0  0  0  0  0  0  0  0
   66.5159   73.7547   94.7521 C   0  0  0  0  0  0  0  0  0  0  0  0
   66.5824   74.3052   93.5114 N   0  0  0  0  0  0  0  0  0  0  0  0
   66.2534   75.6033   93.2811 C   0  0  0  0  0  0  0  0  0  0  0  0
   66.9679   74.5390   87.4351 C   0  0  0  0  0  0  0  0  0  0  0  0
   66.6551   74.1494   88.7715 O   0  0  0  0  0  0  0  0  0  0  0  0
   69.2849   74.7709   91.3179 C   0  0  0  0  0  0  0  0  0  0  0  0
   68.2896   74.9749   90.3405 C   0  0  0  0  0  0  0  0  0  0  0  0
   67.6410   73.8959   89.7374 C   0  0  0  0  0  0  0  0  0  0  0  0
   67.9842   72.5882   90.1081 C   0  0  0  0  0  0  0  0  0  0  0  0
   68.9884   72.3689   91.0539 C   0  0  0  0  0  0  0  0  0  0  0  0
   69.6439   73.4491   91.6617 C   0  0  0  0  0  0  0  0  0  0  0  0
   70.6413   73.2053   92.6036 O   0  0  0  0  0  0  0  0  0  0  0  0
   70.8719   72.3244   92.8245 H   0  0  0  0  0  0  0  0  0  0  0  0
   71.2149   76.0425   91.8827 O   0  0  0  0  0  0  0  0  0  0  0  0
   69.9568   75.9427   91.9304 C   0  0  0  0  0  0  0  0  0  0  0  0
   69.2161   76.9337   92.5792 O   0  0  0  0  0  0  0  0  0  0  0  0
   68.2823   76.8692   92.6204 H   0  0  0  0  0  0  0  0  0  0  0  0
 31 32  2  0  0  0
 32 33  1  0  0  0
 32 23  1  0  0  0
 23 24  2  0  0  0
 24 25  1  0  0  0
 25 22  1  0  0  0
 22 21  1  0  0  0
 21  1  1  0  0  0
  1  2  2  0  0  0
  2  3  1  0  0  0
  3  4  2  0  0  0
  4  5  1  0  0  0
  5  7  1  0  0  0
  7  8  2  0  0  0
  8  9  1  0  0  0
  9 10  2  0  0  0
 10 11  1  0  0  0
 11 13  1  0  0  0
 13 14  1  0  0  0
 14 15  1  0  0  0
 15 16  2  0  0  0
 16 17  1  0  0  0
 17 18  2  0  0  0
 18 19  2  0  0  0
 19 20  2  0  0  0
 11 12  2  0  0  0
  5  6  2  0  0  0
 25 26  2  0  0  0
 26 27  1  0  0  0
 27 28  2  0  0  0
 28 29  1  0  0  0
 28 23  1  0  0  0
  6  1  1  0  0  0
 12  7  1  0  0  0
 20 15  1  0  0  0
 33 34  1  0  0  0
 29 30  1  0  0  0
M  END
> <score>
0.419644

> <minimizedAffinity>
-8.12332

> <CNNscore>
0.8743495345

> <CNNaffinity>
6.8875665665

> <CNN_VS>
6.0221405029

$$$$
HIPS6997


 34 37  0  0  0  0  0  0  0  0999 V2000
   67.8196   79.5466   89.6789 C   0  0  0  0  0  0  0  0  0  0  0  0
   66.9016   80.0881   90.5868 C   0  0  0  0  0  0  0  0  0  0  0  0
   67.2285   81.2301   91.3220 C   0  0  0  0  0  0  0  0  0  0  0  0
   68.4610   81.8557   91.1382 C   0  0  0  0  0  0  0  0  0  0  0  0
   69.3882   81.3369   90.2179 C   0  0  0  0  0  0  0  0  0  0  0  0
   69.0619   80.1684   89.5048 C   0  0  0  0  0  0  0  0  0  0  0  0
   70.6581   82.0558   89.9430 C   0  0  0  0  0  0  0  0  0  0  0  0
   71.8170   81.7858   90.6994 C   0  0  0  0  0  0  0  0  0  0  0  0
   72.9963   82.4946   90.4593 C   0  0  0  0  0  0  0  0  0  0  0  0
   73.0356   83.4730   89.4594 C   0  0  0  0  0  0  0  0  0  0  0  0
   71.8955   83.7592   88.6899 C   0  0  0  0  0  0  0  0  0  0  0  0
   70.7049   83.0464   88.9401 C   0  0  0  0  0  0  0  0  0  0  0  0
   72.0026   84.7432   87.6878 O   0  0  0  0  0  0  0  0  0  0  0  0
   71.1113   85.8418   87.4768 C   0  0  0  0  0  0  0  0  0  0  0  0
   69.6821   85.3664   87.4759 C   0  0  0  0  0  0  0  0  0  0  0  0
   68.8570   85.6065   88.5858 C   0  0  0  0  0  0  0  0  0  0  0  0
   67.5349   85.1675   88.5836 C   0  0  0  0  0  0  0  0  0  0  0  0
   67.0450   84.4733   87.4710 C   0  0  0  0  0  0  0  0  0  0  0  0
   67.8574   84.2443   86.4059 N   0  0  0  0  0  0  0  0  0  0  0  0
   69.1493   84.6648   86.3822 C   0  0  0  0  0  0  0  0  0  0  0  0
   67.4038   78.4281   88.7635 C   0  0  0  0  0  0  0  0  0  0  0  0
   66.8955   77.3500   89.5478 O   0  0  0  0  0  0  0  0  0  0  0  0
   69.4620   75.9283   91.8234 C   0  0  0  0  0  0  0  0  0  0  0  0
   68.6078   76.8373   91.1665 C   0  0  0  0  0  0  0  0  0  0  0  0
   67.7281   76.4081   90.1712 C   0  0  0  0  0  0  0  0  0  0  0  0
   67.6930   75.0518   89.8179 C   0  0  0  0  0  0  0  0  0  0  0  0
   68.5533   74.1436   90.4391 C   0  0  0  0  0  0  0  0  0  0  0  0
   69.4396   74.5697   91.4384 C   0  0  0  0  0  0  0  0  0  0  0  0
   70.2872   73.6449   92.0448 O   0  0  0  0  0  0  0  0  0  0  0  0
   70.2643   72.7458   91.7819 H   0  0  0  0  0  0  0  0  0  0  0  0
   70.0466   76.3778   94.0855 O   0  0  0  0  0  0  0  0  0  0  0  0
   70.3881   76.4239   92.8705 C   0  0  0  0  0  0  0  0  0  0  0  0
   71.6318   76.9612   92.5294 O   0  0  0  0  0  0  0  0  0  0  0  0
   71.8949   77.0001   91.6310 H   0  0  0  0  0  0  0  0  0  0  0  0
 31 32  2  0  0  0
 32 33  1  0  0  0
 32 23  1  0  0  0
 23 24  2  0  0  0
 24 25  1  0  0  0
 25 22  1  0  0  0
 22 21  1  0  0  0
 21  1  1  0  0  0
  1  2  2  0  0  0
  2  3  1  0  0  0
  3  4  2  0  0  0
  4  5  1  0  0  0
  5  7  1  0  0  0
  7  8  2  0  0  0
  8  9  1  0  0  0
  9 10  2  0  0  0
 10 11  1  0  0  0
 11 13  1  0  0  0
 13 14  1  0  0  0
 14 15  1  0  0  0
 15 16  2  0  0  0
 16 17  1  0  0  0
 17 18  2  0  0  0
 18 19  2  0  0  0
 19 20  2  0  0  0
 11 12  2  0  0  0
  5  6  2  0  0  0
 25 26  2  0  0  0
 26 27  1  0  0  0
 27 28  2  0  0  0
 28 29  1  0  0  0
 28 23  1  0  0  0
  6  1  1  0  0  0
 12  7  1  0  0  0
 20 15  1  0  0  0
 33 34  1  0  0  0
 29 30  1  0  0  0
M  END
> <score>
0.419644

> <minimizedAffinity>
-8.43321

> <CNNscore>
0.7045750022

> <CNNaffinity>
6.6584463120

> <CNN_VS>
4.6913747787

$$$$
HIPS6997


 34 37  0  0  0  0  0  0  0  0999 V2000
   67.0237   75.5706   87.1385 C   0  0  0  0  0  0  0  0  0  0  0  0
   67.2944   75.5574   85.7649 C   0  0  0  0  0  0  0  0  0  0  0  0
   67.6517   76.7364   85.1063 C   0  0  0  0  0  0  0  0  0  0  0  0
   67.7679   77.9308   85.8162 C   0  0  0  0  0  0  0  0  0  0  0  0
   67.5176   77.9599   87.1990 C   0  0  0  0  0  0  0  0  0  0  0  0
   67.1281   76.7732   87.8476 C   0  0  0  0  0  0  0  0  0  0  0  0
   67.7393   79.2046   87.9777 C   0  0  0  0  0  0  0  0  0  0  0  0
   68.2811   79.1537   89.2785 C   0  0  0  0  0  0  0  0  0  0  0  0
   68.4498   80.3264   90.0181 C   0  0  0  0  0  0  0  0  0  0  0  0
   68.0884   81.5613   89.4675 C   0  0  0  0  0  0  0  0  0  0  0  0
   67.5490   81.6395   88.1726 C   0  0  0  0  0  0  0  0  0  0  0  0
   67.3736   80.4526   87.4318 C   0  0  0  0  0  0  0  0  0  0  0  0
   67.2200   82.9128   87.6679 O   0  0  0  0  0  0  0  0  0  0  0  0
   67.8642   83.5903   86.5855 C   0  0  0  0  0  0  0  0  0  0  0  0
   69.0762   84.3359   87.0790 C   0  0  0  0  0  0  0  0  0  0  0  0
   68.9386   85.6151   87.6405 C   0  0  0  0  0  0  0  0  0  0  0  0
   70.0600   86.3034   88.0978 C   0  0  0  0  0  0  0  0  0  0  0  0
   71.3234   85.7125   87.9775 C   0  0  0  0  0  0  0  0  0  0  0  0
   71.4411   84.4754   87.4273 N   0  0  0  0  0  0  0  0  0  0  0  0
   70.3628   83.7822   86.9768 C   0  0  0  0  0  0  0  0  0  0  0  0
   66.8131   74.2778   87.8775 C   0  0  0  0  0  0  0  0  0  0  0  0
   66.7538   74.5469   89.2775 O   0  0  0  0  0  0  0  0  0  0  0  0
   69.4728   74.7119   91.8005 C   0  0  0  0  0  0  0  0  0  0  0  0
   68.4659   75.0863   90.8877 C   0  0  0  0  0  0  0  0  0  0  0  0
   67.7486   74.1253   90.1729 C   0  0  0  0  0  0  0  0  0  0  0  0
   68.0336   72.7661   90.3645 C   0  0  0  0  0  0  0  0  0  0  0  0
   69.0479   72.3802   91.2439 C   0  0  0  0  0  0  0  0  0  0  0  0
   69.7721   73.3413   91.9632 C   0  0  0  0  0  0  0  0  0  0  0  0
   70.7784   72.9320   92.8358 O   0  0  0  0  0  0  0  0  0  0  0  0
   70.9690   72.0201   92.9363 H   0  0  0  0  0  0  0  0  0  0  0  0
   69.8384   76.1140   93.6877 O   0  0  0  0  0  0  0  0  0  0  0  0
   70.2183   75.7624   92.5357 C   0  0  0  0  0  0  0  0  0  0  0  0
   71.3293   76.3855   91.9620 O   0  0  0  0  0  0  0  0  0  0  0  0
   71.6194   76.1321   91.1078 H   0  0  0  0  0  0  0  0  0  0  0  0
 31 32  2  0  0  0
 32 33  1  0  0  0
 32 23  1  0  0  0
 23 24  2  0  0  0
 24 25  1  0  0  0
 25 22  1  0  0  0
 22 21  1  0  0  0
 21  1  1  0  0  0
  1  2  2  0  0  0
  2  3  1  0  0  0
  3  4  2  0  0  0
  4  5  1  0  0  0
  5  7  1  0  0  0
  7  8  2  0  0  0
  8  9  1  0  0  0
  9 10  2  0  0  0
 10 11  1  0  0  0
 11 13  1  0  0  0
 13 14  1  0  0  0
 14 15  1  0  0  0
 15 16  2  0  0  0
 16 17  1  0  0  0
 17 18  2  0  0  0
 18 19  2  0  0  0
 19 20  2  0  0  0
 11 12  2  0  0  0
  5  6  2  0  0  0
 25 26  2  0  0  0
 26 27  1  0  0  0
 27 28  2  0  0  0
 28 29  1  0  0  0
 28 23  1  0  0  0
  6  1  1  0  0  0
 12  7  1  0  0  0
 20 15  1  0  0  0
 33 34  1  0  0  0
 29 30  1  0  0  0
M  END
> <score>
0.419644

> <minimizedAffinity>
-8.54957

> <CNNscore>
0.6249646544

> <CNNaffinity>
6.4489498138

> <CNN_VS>
4.0303654671

$$$$
HIPS6998


 35 38  0  0  0  0  0  0  0  0999 V2000
   67.5832   81.1888   91.4620 C   0  0  0  0  0  0  0  0  0  0  0  0
   67.2551   81.8405   92.6602 C   0  0  0  0  0  0  0  0  0  0  0  0
   68.0379   82.9006   93.1209 C   0  0  0  0  0  0  0  0  0  0  0  0
   69.1488   83.3247   92.3882 C   0  0  0  0  0  0  0  0  0  0  0  0
   69.4861   82.6946   91.1770 C   0  0  0  0  0  0  0  0  0  0  0  0
   68.6897   81.6293   90.7178 C   0  0  0  0  0  0  0  0  0  0  0  0
   70.6674   83.1429   90.3969 C   0  0  0  0  0  0  0  0  0  0  0  0
   71.9206   82.5346   90.5855 C   0  0  0  0  0  0  0  0  0  0  0  0
   73.0303   82.9615   89.8536 C   0  0  0  0  0  0  0  0  0  0  0  0
   72.9065   84.0006   88.9294 C   0  0  0  0  0  0  0  0  0  0  0  0
   71.6620   84.6267   88.7307 C   0  0  0  0  0  0  0  0  0  0  0  0
   70.5513   84.1881   89.4620 C   0  0  0  0  0  0  0  0  0  0  0  0
   71.4822   85.6832   87.8229 O   0  0  0  0  0  0  0  0  0  0  0  0
   70.5807   85.6751   86.7152 C   0  0  0  0  0  0  0  0  0  0  0  0
   69.5123   84.6308   86.9027 C   0  0  0  0  0  0  0  0  0  0  0  0
   68.2268   85.0066   87.3259 C   0  0  0  0  0  0  0  0  0  0  0  0
   67.2334   84.0398   87.5079 C   0  0  0  0  0  0  0  0  0  0  0  0
   67.5180   82.6900   87.2774 C   0  0  0  0  0  0  0  0  0  0  0  0
   66.2704   81.4783   87.5054 Cl  0  0  0  0  0  0  0  0  0  0  0  0
   68.7995   82.3072   86.8683 C   0  0  0  0  0  0  0  0  0  0  0  0
   69.7951   83.2720   86.6855 C   0  0  0  0  0  0  0  0  0  0  0  0
   66.7417   80.0446   90.9600 C   0  0  0  0  0  0  0  0  0  0  0  0
   67.5167   79.1597   90.1498 O   0  0  0  0  0  0  0  0  0  0  0  0
   70.4649   77.1366   91.1322 C   0  0  0  0  0  0  0  0  0  0  0  0
   69.6559   78.1899   90.6675 C   0  0  0  0  0  0  0  0  0  0  0  0
   68.2631   78.0688   90.6248 C   0  0  0  0  0  0  0  0  0  0  0  0
   67.6663   76.8693   91.0480 C   0  0  0  0  0  0  0  0  0  0  0  0
   68.4551   75.8243   91.5298 C   0  0  0  0  0  0  0  0  0  0  0  0
   69.8463   75.9514   91.5990 C   0  0  0  0  0  0  0  0  0  0  0  0
   70.5686   74.8997   92.1668 O   0  0  0  0  0  0  0  0  0  0  0  0
   70.1221   74.1314   92.4640 H   0  0  0  0  0  0  0  0  0  0  0  0
   72.6236   77.1276   92.1232 O   0  0  0  0  0  0  0  0  0  0  0  0
   71.9346   77.2961   91.0809 C   0  0  0  0  0  0  0  0  0  0  0  0
   72.5640   77.6907   89.9038 O   0  0  0  0  0  0  0  0  0  0  0  0
   72.0610   77.8186   89.1237 H   0  0  0  0  0  0  0  0  0  0  0  0
 32 33  2  0  0  0
 33 34  1  0  0  0
 33 24  1  0  0  0
 24 25  2  0  0  0
 25 26  1  0  0  0
 26 23  1  0  0  0
 23 22  1  0  0  0
 22  1  1  0  0  0
  1  2  2  0  0  0
  2  3  1  0  0  0
  3  4  2  0  0  0
  4  5  1  0  0  0
  5  7  1  0  0  0
  7  8  2  0  0  0
  8  9  1  0  0  0
  9 10  2  0  0  0
 10 11  1  0  0  0
 11 13  1  0  0  0
 13 14  1  0  0  0
 14 15  1  0  0  0
 15 16  2  0  0  0
 16 17  1  0  0  0
 17 18  2  0  0  0
 18 19  1  0  0  0
 18 20  1  0  0  0
 20 21  2  0  0  0
 11 12  2  0  0  0
  5  6  2  0  0  0
 26 27  2  0  0  0
 27 28  1  0  0  0
 28 29  2  0  0  0
 29 30  1  0  0  0
 29 24  1  0  0  0
  6  1  1  0  0  0
 12  7  1  0  0  0
 21 15  1  0  0  0
 34 35  1  0  0  0
 30 31  1  0  0  0
M  END
> <score>
-1.0183

> <minimizedAffinity>
-8.55568

> <CNNscore>
0.7648048401

> <CNNaffinity>
7.1152038574

> <CNN_VS>
5.4417424202

$$$$
HIPS6998


 35 38  0  0  0  0  0  0  0  0999 V2000
   67.5426   78.2627   90.3944 C   0  0  0  0  0  0  0  0  0  0  0  0
   67.2640   77.2675   89.4458 C   0  0  0  0  0  0  0  0  0  0  0  0
   67.0246   77.6127   88.1146 C   0  0  0  0  0  0  0  0  0  0  0  0
   67.0683   78.9506   87.7163 C   0  0  0  0  0  0  0  0  0  0  0  0
   67.3607   79.9622   88.6485 C   0  0  0  0  0  0  0  0  0  0  0  0
   67.6045   79.6054   89.9876 C   0  0  0  0  0  0  0  0  0  0  0  0
   67.4064   81.3855   88.2277 C   0  0  0  0  0  0  0  0  0  0  0  0
   67.6345   81.7258   86.8830 C   0  0  0  0  0  0  0  0  0  0  0  0
   67.6814   83.0652   86.4915 C   0  0  0  0  0  0  0  0  0  0  0  0
   67.5060   84.0803   87.4336 C   0  0  0  0  0  0  0  0  0  0  0  0
   67.2828   83.7605   88.7857 C   0  0  0  0  0  0  0  0  0  0  0  0
   67.2288   82.4151   89.1702 C   0  0  0  0  0  0  0  0  0  0  0  0
   67.1108   84.7402   89.7773 O   0  0  0  0  0  0  0  0  0  0  0  0
   68.1659   85.3863   90.4907 C   0  0  0  0  0  0  0  0  0  0  0  0
   69.4725   84.6684   90.2795 C   0  0  0  0  0  0  0  0  0  0  0  0
   70.3058   85.0240   89.2063 C   0  0  0  0  0  0  0  0  0  0  0  0
   71.5168   84.3557   89.0020 C   0  0  0  0  0  0  0  0  0  0  0  0
   71.9008   83.3219   89.8621 C   0  0  0  0  0  0  0  0  0  0  0  0
   73.4208   82.4849   89.6051 Cl  0  0  0  0  0  0  0  0  0  0  0  0
   71.0699   82.9538   90.9252 C   0  0  0  0  0  0  0  0  0  0  0  0
   69.8581   83.6204   91.1318 C   0  0  0  0  0  0  0  0  0  0  0  0
   67.8023   77.8957   91.8322 C   0  0  0  0  0  0  0  0  0  0  0  0
   66.6931   77.1854   92.3848 O   0  0  0  0  0  0  0  0  0  0  0  0
   68.1309   74.4284   94.4049 C   0  0  0  0  0  0  0  0  0  0  0  0
   67.9752   75.4549   93.4554 C   0  0  0  0  0  0  0  0  0  0  0  0
   66.7795   76.1736   93.3551 C   0  0  0  0  0  0  0  0  0  0  0  0
   65.7151   75.8563   94.2156 C   0  0  0  0  0  0  0  0  0  0  0  0
   65.8626   74.8543   95.1751 C   0  0  0  0  0  0  0  0  0  0  0  0
   67.0659   74.1515   95.2963 C   0  0  0  0  0  0  0  0  0  0  0  0
   67.1738   73.2188   96.3300 O   0  0  0  0  0  0  0  0  0  0  0  0
   66.4457   73.0639   96.8991 H   0  0  0  0  0  0  0  0  0  0  0  0
   70.1889   73.7406   93.4386 O   0  0  0  0  0  0  0  0  0  0  0  0
   69.3908   73.6533   94.4107 C   0  0  0  0  0  0  0  0  0  0  0  0
   69.6797   72.7781   95.4537 O   0  0  0  0  0  0  0  0  0  0  0  0
   69.0930   72.7058   96.1807 H   0  0  0  0  0  0  0  0  0  0  0  0
 32 33  2  0  0  0
 33 34  1  0  0  0
 33 24  1  0  0  0
 24 25  2  0  0  0
 25 26  1  0  0  0
 26 23  1  0  0  0
 23 22  1  0  0  0
 22  1  1  0  0  0
  1  2  2  0  0  0
  2  3  1  0  0  0
  3  4  2  0  0  0
  4  5  1  0  0  0
  5  7  1  0  0  0
  7  8  2  0  0  0
  8  9  1  0  0  0
  9 10  2  0  0  0
 10 11  1  0  0  0
 11 13  1  0  0  0
 13 14  1  0  0  0
 14 15  1  0  0  0
 15 16  2  0  0  0
 16 17  1  0  0  0
 17 18  2  0  0  0
 18 19  1  0  0  0
 18 20  1  0  0  0
 20 21  2  0  0  0
 11 12  2  0  0  0
  5  6  2  0  0  0
 26 27  2  0  0  0
 27 28  1  0  0  0
 28 29  2  0  0  0
 29 30  1  0  0  0
 29 24  1  0  0  0
  6  1  1  0  0  0
 12  7  1  0  0  0
 21 15  1  0  0  0
 34 35  1  0  0  0
 30 31  1  0  0  0
M  END
> <score>
-1.0183

> <minimizedAffinity>
-8.54670

> <CNNscore>
0.7593662143

> <CNNaffinity>
6.7067956924

> <CNN_VS>
5.0929141045

$$$$
HIPS6998


 35 38  0  0  0  0  0  0  0  0999 V2000
   66.9480   75.6980   88.0077 C   0  0  0  0  0  0  0  0  0  0  0  0
   67.0282   75.5846   86.6117 C   0  0  0  0  0  0  0  0  0  0  0  0
   67.3660   76.6939   85.8346 C   0  0  0  0  0  0  0  0  0  0  0  0
   67.6339   77.9227   86.4421 C   0  0  0  0  0  0  0  0  0  0  0  0
   67.5737   78.0540   87.8410 C   0  0  0  0  0  0  0  0  0  0  0  0
   67.2362   76.9299   88.6172 C   0  0  0  0  0  0  0  0  0  0  0  0
   67.8569   79.3597   88.4890 C   0  0  0  0  0  0  0  0  0  0  0  0
   68.5284   79.4140   89.7228 C   0  0  0  0  0  0  0  0  0  0  0  0
   68.7891   80.6432   90.3316 C   0  0  0  0  0  0  0  0  0  0  0  0
   68.3813   81.8310   89.7219 C   0  0  0  0  0  0  0  0  0  0  0  0
   67.7021   81.7975   88.4898 C   0  0  0  0  0  0  0  0  0  0  0  0
   67.4511   80.5619   87.8807 C   0  0  0  0  0  0  0  0  0  0  0  0
   67.2594   82.9597   87.8373 O   0  0  0  0  0  0  0  0  0  0  0  0
   67.8681   83.5411   86.6835 C   0  0  0  0  0  0  0  0  0  0  0  0
   69.0920   84.3309   87.0651 C   0  0  0  0  0  0  0  0  0  0  0  0
   68.9650   85.6615   87.4965 C   0  0  0  0  0  0  0  0  0  0  0  0
   70.0991   86.4011   87.8455 C   0  0  0  0  0  0  0  0  0  0  0  0
   71.3687   85.8210   87.7580 C   0  0  0  0  0  0  0  0  0  0  0  0
   72.7905   86.7498   88.1969 Cl  0  0  0  0  0  0  0  0  0  0  0  0
   71.5037   84.5006   87.3168 C   0  0  0  0  0  0  0  0  0  0  0  0
   70.3712   83.7586   86.9672 C   0  0  0  0  0  0  0  0  0  0  0  0
   66.5844   74.5040   88.8511 C   0  0  0  0  0  0  0  0  0  0  0  0
   67.7293   73.6856   89.0956 O   0  0  0  0  0  0  0  0  0  0  0  0
   69.6648   74.7453   92.0755 C   0  0  0  0  0  0  0  0  0  0  0  0
   68.9647   74.7636   90.8552 C   0  0  0  0  0  0  0  0  0  0  0  0
   68.4159   73.5948   90.3175 C   0  0  0  0  0  0  0  0  0  0  0  0
   68.5753   72.3820   91.0085 C   0  0  0  0  0  0  0  0  0  0  0  0
   69.2499   72.3528   92.2294 C   0  0  0  0  0  0  0  0  0  0  0  0
   69.7771   73.5240   92.7835 C   0  0  0  0  0  0  0  0  0  0  0  0
   70.3683   73.4382   94.0456 O   0  0  0  0  0  0  0  0  0  0  0  0
   70.4235   72.6107   94.4819 H   0  0  0  0  0  0  0  0  0  0  0  0
   71.0891   76.6277   91.8108 O   0  0  0  0  0  0  0  0  0  0  0  0
   70.2881   75.9986   92.5539 C   0  0  0  0  0  0  0  0  0  0  0  0
   70.0467   76.4629   93.8437 O   0  0  0  0  0  0  0  0  0  0  0  0
   69.4532   76.0026   94.4038 H   0  0  0  0  0  0  0  0  0  0  0  0
 32 33  2  0  0  0
 33 34  1  0  0  0
 33 24  1  0  0  0
 24 25  2  0  0  0
 25 26  1  0  0  0
 26 23  1  0  0  0
 23 22  1  0  0  0
 22  1  1  0  0  0
  1  2  2  0  0  0
  2  3  1  0  0  0
  3  4  2  0  0  0
  4  5  1  0  0  0
  5  7  1  0  0  0
  7  8  2  0  0  0
  8  9  1  0  0  0
  9 10  2  0  0  0
 10 11  1  0  0  0
 11 13  1  0  0  0
 13 14  1  0  0  0
 14 15  1  0  0  0
 15 16  2  0  0  0
 16 17  1  0  0  0
 17 18  2  0  0  0
 18 19  1  0  0  0
 18 20  1  0  0  0
 20 21  2  0  0  0
 11 12  2  0  0  0
  5  6  2  0  0  0
 26 27  2  0  0  0
 27 28  1  0  0  0
 28 29  2  0  0  0
 29 30  1  0  0  0
 29 24  1  0  0  0
  6  1  1  0  0  0
 12  7  1  0  0  0
 21 15  1  0  0  0
 34 35  1  0  0  0
 30 31  1  0  0  0
M  END
> <score>
-1.0183

> <minimizedAffinity>
-9.08743

> <CNNscore>
0.7416442633

> <CNNaffinity>
6.6047477722

> <CNN_VS>
4.8983731270

$$$$
HIPS6999


 35 38  0  0  0  0  0  0  0  0999 V2000
   67.1976   76.4338   88.0257 C   0  0  0  0  0  0  0  0  0  0  0  0
   67.2449   76.6837   86.6426 C   0  0  0  0  0  0  0  0  0  0  0  0
   67.2484   77.9946   86.1605 C   0  0  0  0  0  0  0  0  0  0  0  0
   67.2010   79.0700   87.0494 C   0  0  0  0  0  0  0  0  0  0  0  0
   67.1485   78.8421   88.4321 C   0  0  0  0  0  0  0  0  0  0  0  0
   67.1586   77.5235   88.9151 C   0  0  0  0  0  0  0  0  0  0  0  0
   67.6618   73.4410   90.3226 C   0  0  0  0  0  0  0  0  0  0  0  0
   67.1548   72.4051   89.5162 C   0  0  0  0  0  0  0  0  0  0  0  0
   66.6692   72.6843   88.2372 C   0  0  0  0  0  0  0  0  0  0  0  0
   66.6814   73.9926   87.7497 C   0  0  0  0  0  0  0  0  0  0  0  0
   67.1819   75.0413   88.5406 C   0  0  0  0  0  0  0  0  0  0  0  0
   67.6677   74.7513   89.8291 C   0  0  0  0  0  0  0  0  0  0  0  0
   68.1639   73.2181   91.6152 O   0  0  0  0  0  0  0  0  0  0  0  0
   68.0785   71.9862   92.3326 C   0  0  0  0  0  0  0  0  0  0  0  0
   73.3695   69.6378   92.9330 C   0  0  0  0  0  0  0  0  0  0  0  0
   71.9939   70.2205   92.7986 C   0  0  0  0  0  0  0  0  0  0  0  0
   71.5500   71.2009   93.6988 C   0  0  0  0  0  0  0  0  0  0  0  0
   70.2817   71.7706   93.5525 C   0  0  0  0  0  0  0  0  0  0  0  0
   69.4419   71.3697   92.5014 C   0  0  0  0  0  0  0  0  0  0  0  0
   69.8993   70.4114   91.5834 C   0  0  0  0  0  0  0  0  0  0  0  0
   71.1676   69.8422   91.7298 C   0  0  0  0  0  0  0  0  0  0  0  0
   67.0941   80.0078   89.3837 C   0  0  0  0  0  0  0  0  0  0  0  0
   67.7576   79.6899   90.6077 O   0  0  0  0  0  0  0  0  0  0  0  0
   68.9879   79.0205   90.7154 C   0  0  0  0  0  0  0  0  0  0  0  0
   70.1463   79.4498   90.0466 C   0  0  0  0  0  0  0  0  0  0  0  0
   71.3429   78.7479   90.1928 C   0  0  0  0  0  0  0  0  0  0  0  0
   71.4125   77.6142   91.0091 C   0  0  0  0  0  0  0  0  0  0  0  0
   72.6597   77.0063   91.1702 O   0  0  0  0  0  0  0  0  0  0  0  0
   70.2437   77.1496   91.6627 C   0  0  0  0  0  0  0  0  0  0  0  0
   69.0496   77.8793   91.5219 C   0  0  0  0  0  0  0  0  0  0  0  0
   73.4079   77.3454   90.7194 H   0  0  0  0  0  0  0  0  0  0  0  0
   70.2148   75.9065   92.4647 C   0  0  0  0  0  0  0  0  0  0  0  0
   70.5997   74.8123   91.9724 O   0  0  0  0  0  0  0  0  0  0  0  0
   69.6997   75.9286   93.7581 O   0  0  0  0  0  0  0  0  0  0  0  0
   69.4107   76.7371   94.1335 H   0  0  0  0  0  0  0  0  0  0  0  0
 15 16  1  0  0  0
 16 17  2  0  0  0
 17 18  1  0  0  0
 18 19  2  0  0  0
 19 14  1  0  0  0
 14 13  1  0  0  0
 13  7  1  0  0  0
  7  8  2  0  0  0
  8  9  1  0  0  0
  9 10  2  0  0  0
 10 11  1  0  0  0
 11  1  1  0  0  0
  1  2  2  0  0  0
  2  3  1  0  0  0
  3  4  2  0  0  0
  4  5  1  0  0  0
  5 22  1  0  0  0
 22 23  1  0  0  0
 23 24  1  0  0  0
 24 25  2  0  0  0
 25 26  1  0  0  0
 26 27  2  0  0  0
 27 28  1  0  0  0
 27 29  1  0  0  0
 29 32  1  0  0  0
 32 33  2  0  0  0
 32 34  1  0  0  0
 29 30  2  0  0  0
  5  6  2  0  0  0
 11 12  2  0  0  0
 19 20  1  0  0  0
 20 21  2  0  0  0
 21 16  1  0  0  0
 12  7  1  0  0  0
  6  1  1  0  0  0
 30 24  1  0  0  0
 28 31  1  0  0  0
 34 35  1  0  0  0
M  END
> <score>
-1.166813

> <minimizedAffinity>
-8.35341

> <CNNscore>
0.8163760304

> <CNNaffinity>
6.6299390793

> <CNN_VS>
5.4125232697

$$$$
HIPS6999


 35 38  0  0  0  0  0  0  0  0999 V2000
   66.8615   80.0634   91.2106 C   0  0  0  0  0  0  0  0  0  0  0  0
   67.4594   81.1647   91.8488 C   0  0  0  0  0  0  0  0  0  0  0  0
   67.3694   81.3135   93.2347 C   0  0  0  0  0  0  0  0  0  0  0  0
   66.6805   80.3702   93.9991 C   0  0  0  0  0  0  0  0  0  0  0  0
   66.0732   79.2674   93.3814 C   0  0  0  0  0  0  0  0  0  0  0  0
   66.1763   79.1128   91.9894 C   0  0  0  0  0  0  0  0  0  0  0  0
   67.3547   80.8738   87.5298 C   0  0  0  0  0  0  0  0  0  0  0  0
   67.1032   79.6188   86.9447 C   0  0  0  0  0  0  0  0  0  0  0  0
   66.7753   78.5234   87.7460 C   0  0  0  0  0  0  0  0  0  0  0  0
   66.6961   78.6643   89.1328 C   0  0  0  0  0  0  0  0  0  0  0  0
   66.9455   79.9090   89.7363 C   0  0  0  0  0  0  0  0  0  0  0  0
   67.2772   81.0073   88.9214 C   0  0  0  0  0  0  0  0  0  0  0  0
   67.6871   82.0094   86.7732 O   0  0  0  0  0  0  0  0  0  0  0  0
   67.4466   83.3615   87.1651 C   0  0  0  0  0  0  0  0  0  0  0  0
   72.4435   86.2770   87.7987 C   0  0  0  0  0  0  0  0  0  0  0  0
   71.1577   85.5298   87.6031 C   0  0  0  0  0  0  0  0  0  0  0  0
   71.1716   84.1448   87.3791 C   0  0  0  0  0  0  0  0  0  0  0  0
   69.9721   83.4418   87.2327 C   0  0  0  0  0  0  0  0  0  0  0  0
   68.7424   84.1144   87.3122 C   0  0  0  0  0  0  0  0  0  0  0  0
   68.7292   85.4946   87.5674 C   0  0  0  0  0  0  0  0  0  0  0  0
   69.9287   86.1972   87.7139 C   0  0  0  0  0  0  0  0  0  0  0  0
   65.3291   78.2566   94.2131 C   0  0  0  0  0  0  0  0  0  0  0  0
   65.5038   76.9420   93.6831 O   0  0  0  0  0  0  0  0  0  0  0  0
   66.3463   75.9544   94.2200 C   0  0  0  0  0  0  0  0  0  0  0  0
   66.0241   75.2315   95.3806 C   0  0  0  0  0  0  0  0  0  0  0  0
   66.8975   74.2588   95.8675 C   0  0  0  0  0  0  0  0  0  0  0  0
   68.0999   73.9821   95.2087 C   0  0  0  0  0  0  0  0  0  0  0  0
   68.8890   72.9433   95.7077 O   0  0  0  0  0  0  0  0  0  0  0  0
   68.4540   74.7274   94.0562 C   0  0  0  0  0  0  0  0  0  0  0  0
   67.5541   75.6907   93.5657 C   0  0  0  0  0  0  0  0  0  0  0  0
   68.6183   72.4753   96.4730 H   0  0  0  0  0  0  0  0  0  0  0  0
   69.7491   74.5600   93.3605 C   0  0  0  0  0  0  0  0  0  0  0  0
   70.3251   73.4397   93.3309 O   0  0  0  0  0  0  0  0  0  0  0  0
   70.3729   75.6628   92.7833 O   0  0  0  0  0  0  0  0  0  0  0  0
   69.9531   76.5004   92.7999 H   0  0  0  0  0  0  0  0  0  0  0  0
 15 16  1  0  0  0
 16 17  2  0  0  0
 17 18  1  0  0  0
 18 19  2  0  0  0
 19 14  1  0  0  0
 14 13  1  0  0  0
 13  7  1  0  0  0
  7  8  2  0  0  0
  8  9  1  0  0  0
  9 10  2  0  0  0
 10 11  1  0  0  0
 11  1  1  0  0  0
  1  2  2  0  0  0
  2  3  1  0  0  0
  3  4  2  0  0  0
  4  5  1  0  0  0
  5 22  1  0  0  0
 22 23  1  0  0  0
 23 24  1  0  0  0
 24 25  2  0  0  0
 25 26  1  0  0  0
 26 27  2  0  0  0
 27 28  1  0  0  0
 27 29  1  0  0  0
 29 32  1  0  0  0
 32 33  2  0  0  0
 32 34  1  0  0  0
 29 30  2  0  0  0
  5  6  2  0  0  0
 11 12  2  0  0  0
 19 20  1  0  0  0
 20 21  2  0  0  0
 21 16  1  0  0  0
 12  7  1  0  0  0
  6  1  1  0  0  0
 30 24  1  0  0  0
 28 31  1  0  0  0
 34 35  1  0  0  0
M  END
> <score>
-1.166813

> <minimizedAffinity>
-8.92893

> <CNNscore>
0.7508147955

> <CNNaffinity>
6.4212474823

> <CNN_VS>
4.8211674690

$$$$
HIPS6999


 35 38  0  0  0  0  0  0  0  0999 V2000
   67.2725   76.4338   88.1250 C   0  0  0  0  0  0  0  0  0  0  0  0
   66.9953   76.6443   86.7624 C   0  0  0  0  0  0  0  0  0  0  0  0
   66.9091   77.9409   86.2503 C   0  0  0  0  0  0  0  0  0  0  0  0
   67.0940   79.0412   87.0894 C   0  0  0  0  0  0  0  0  0  0  0  0
   67.3666   78.8528   88.4520 C   0  0  0  0  0  0  0  0  0  0  0  0
   67.4660   77.5482   88.9620 C   0  0  0  0  0  0  0  0  0  0  0  0
   68.1828   73.5006   90.3647 C   0  0  0  0  0  0  0  0  0  0  0  0
   67.5083   72.4501   89.7151 C   0  0  0  0  0  0  0  0  0  0  0  0
   66.7671   72.7003   88.5585 C   0  0  0  0  0  0  0  0  0  0  0  0
   66.6881   73.9939   88.0391 C   0  0  0  0  0  0  0  0  0  0  0  0
   67.3531   75.0568   88.6745 C   0  0  0  0  0  0  0  0  0  0  0  0
   68.0963   74.7962   89.8406 C   0  0  0  0  0  0  0  0  0  0  0  0
   68.9435   73.3069   91.5293 O   0  0  0  0  0  0  0  0  0  0  0  0
   68.5793   72.4623   92.6218 C   0  0  0  0  0  0  0  0  0  0  0  0
   65.5677   75.4794   96.5838 C   0  0  0  0  0  0  0  0  0  0  0  0
   66.3332   74.6741   95.5762 C   0  0  0  0  0  0  0  0  0  0  0  0
   65.7212   74.2726   94.3792 C   0  0  0  0  0  0  0  0  0  0  0  0
   66.4448   73.5531   93.4237 C   0  0  0  0  0  0  0  0  0  0  0  0
   67.7916   73.2288   93.6512 C   0  0  0  0  0  0  0  0  0  0  0  0
   68.4114   73.6580   94.8352 C   0  0  0  0  0  0  0  0  0  0  0  0
   67.6876   74.3776   95.7904 C   0  0  0  0  0  0  0  0  0  0  0  0
   67.5613   80.0452   89.3506 C   0  0  0  0  0  0  0  0  0  0  0  0
   67.4751   79.6607   90.7232 O   0  0  0  0  0  0  0  0  0  0  0  0
   68.2168   78.6320   91.3274 C   0  0  0  0  0  0  0  0  0  0  0  0
   67.6717   77.7710   92.2944 C   0  0  0  0  0  0  0  0  0  0  0  0
   68.4541   76.7636   92.8590 C   0  0  0  0  0  0  0  0  0  0  0  0
   69.7861   76.5887   92.4698 C   0  0  0  0  0  0  0  0  0  0  0  0
   70.4868   75.5127   93.0193 O   0  0  0  0  0  0  0  0  0  0  0  0
   70.3595   77.4716   91.5206 C   0  0  0  0  0  0  0  0  0  0  0  0
   69.5525   78.4696   90.9452 C   0  0  0  0  0  0  0  0  0  0  0  0
   70.0703   74.9526   93.6444 H   0  0  0  0  0  0  0  0  0  0  0  0
   71.7851   77.4113   91.1292 C   0  0  0  0  0  0  0  0  0  0  0  0
   72.6656   77.0489   91.9545 O   0  0  0  0  0  0  0  0  0  0  0  0
   72.1712   77.8175   89.8546 O   0  0  0  0  0  0  0  0  0  0  0  0
   71.5244   78.0889   89.2334 H   0  0  0  0  0  0  0  0  0  0  0  0
 15 16  1  0  0  0
 16 17  2  0  0  0
 17 18  1  0  0  0
 18 19  2  0  0  0
 19 14  1  0  0  0
 14 13  1  0  0  0
 13  7  1  0  0  0
  7  8  2  0  0  0
  8  9  1  0  0  0
  9 10  2  0  0  0
 10 11  1  0  0  0
 11  1  1  0  0  0
  1  2  2  0  0  0
  2  3  1  0  0  0
  3  4  2  0  0  0
  4  5  1  0  0  0
  5 22  1  0  0  0
 22 23  1  0  0  0
 23 24  1  0  0  0
 24 25  2  0  0  0
 25 26  1  0  0  0
 26 27  2  0  0  0
 27 28  1  0  0  0
 27 29  1  0  0  0
 29 32  1  0  0  0
 32 33  2  0  0  0
 32 34  1  0  0  0
 29 30  2  0  0  0
  5  6  2  0  0  0
 11 12  2  0  0  0
 19 20  1  0  0  0
 20 21  2  0  0  0
 21 16  1  0  0  0
 12  7  1  0  0  0
  6  1  1  0  0  0
 30 24  1  0  0  0
 28 31  1  0  0  0
 34 35  1  0  0  0
M  END
> <score>
-1.166813

> <minimizedAffinity>
-8.52913

> <CNNscore>
0.6508607268

> <CNNaffinity>
6.8995027542

> <CNN_VS>
4.4906153679

$$$$
HIPS7000


 38 41  0  0  0  0  0  0  0  0999 V2000
   69.1967   77.6654   90.9509 C   0  0  0  0  0  0  0  0  0  0  0  0
   70.3721   76.9042   91.0583 C   0  0  0  0  0  0  0  0  0  0  0  0
   71.6157   77.4945   90.8172 C   0  0  0  0  0  0  0  0  0  0  0  0
   71.6968   78.8418   90.4585 C   0  0  0  0  0  0  0  0  0  0  0  0
   70.5293   79.6182   90.3366 C   0  0  0  0  0  0  0  0  0  0  0  0
   69.2808   79.0167   90.5772 C   0  0  0  0  0  0  0  0  0  0  0  0
   70.6218   81.0498   89.9574 C   0  0  0  0  0  0  0  0  0  0  0  0
   71.8687   81.7068   89.9396 C   0  0  0  0  0  0  0  0  0  0  0  0
   71.9521   83.0466   89.5470 C   0  0  0  0  0  0  0  0  0  0  0  0
   70.7996   83.7472   89.1846 C   0  0  0  0  0  0  0  0  0  0  0  0
   69.5460   83.1114   89.2131 C   0  0  0  0  0  0  0  0  0  0  0  0
   69.4666   81.7692   89.6134 C   0  0  0  0  0  0  0  0  0  0  0  0
   68.3675   83.7924   88.9056 O   0  0  0  0  0  0  0  0  0  0  0  0
   67.5219   83.4467   87.8106 C   0  0  0  0  0  0  0  0  0  0  0  0
   67.2667   81.9659   87.7592 C   0  0  0  0  0  0  0  0  0  0  0  0
   67.7855   81.1901   86.7117 C   0  0  0  0  0  0  0  0  0  0  0  0
   67.5634   79.8094   86.6798 C   0  0  0  0  0  0  0  0  0  0  0  0
   66.8343   79.1809   87.7029 C   0  0  0  0  0  0  0  0  0  0  0  0
   66.2935   79.9668   88.7368 C   0  0  0  0  0  0  0  0  0  0  0  0
   66.5188   81.3463   88.7696 C   0  0  0  0  0  0  0  0  0  0  0  0
   66.5614   77.6982   87.6419 C   0  0  0  0  0  0  0  0  0  0  0  0
   65.9575   77.3571   86.4433 F   0  0  0  0  0  0  0  0  0  0  0  0
   67.7564   77.0118   87.7558 F   0  0  0  0  0  0  0  0  0  0  0  0
   65.7190   77.3148   88.6710 F   0  0  0  0  0  0  0  0  0  0  0  0
   67.8578   77.0147   91.1552 C   0  0  0  0  0  0  0  0  0  0  0  0
   67.4472   77.2109   92.5056 O   0  0  0  0  0  0  0  0  0  0  0  0
   68.2174   74.2854   94.6525 C   0  0  0  0  0  0  0  0  0  0  0  0
   68.3366   75.3353   93.7210 C   0  0  0  0  0  0  0  0  0  0  0  0
   67.2573   76.1810   93.4384 C   0  0  0  0  0  0  0  0  0  0  0  0
   66.0329   75.9737   94.0947 C   0  0  0  0  0  0  0  0  0  0  0  0
   65.8974   74.9381   95.0183 C   0  0  0  0  0  0  0  0  0  0  0  0
   66.9761   74.0913   95.3044 C   0  0  0  0  0  0  0  0  0  0  0  0
   66.8095   73.0653   96.2354 O   0  0  0  0  0  0  0  0  0  0  0  0
   65.9825   72.9475   96.6599 H   0  0  0  0  0  0  0  0  0  0  0  0
   69.4842   72.8103   96.0328 O   0  0  0  0  0  0  0  0  0  0  0  0
   69.3926   73.4194   94.9328 C   0  0  0  0  0  0  0  0  0  0  0  0
   70.4074   73.2635   93.9936 O   0  0  0  0  0  0  0  0  0  0  0  0
   70.3564   73.7084   93.1705 H   0  0  0  0  0  0  0  0  0  0  0  0
 35 36  2  0  0  0
 36 37  1  0  0  0
 36 27  1  0  0  0
 27 28  2  0  0  0
 28 29  1  0  0  0
 29 26  1  0  0  0
 26 25  1  0  0  0
 25  1  1  0  0  0
  1  2  2  0  0  0
  2  3  1  0  0  0
  3  4  2  0  0  0
  4  5  1  0  0  0
  5  7  1  0  0  0
  7  8  2  0  0  0
  8  9  1  0  0  0
  9 10  2  0  0  0
 10 11  1  0  0  0
 11 13  1  0  0  0
 13 14  1  0  0  0
 14 15  1  0  0  0
 15 16  2  0  0  0
 16 17  1  0  0  0
 17 18  2  0  0  0
 18 21  1  0  0  0
 21 22  1  0  0  0
 21 23  1  0  0  0
 21 24  1  0  0  0
 18 19  1  0  0  0
 19 20  2  0  0  0
 11 12  2  0  0  0
  5  6  2  0  0  0
 29 30  2  0  0  0
 30 31  1  0  0  0
 31 32  2  0  0  0
 32 33  1  0  0  0
 32 27  1  0  0  0
  6  1  1  0  0  0
 12  7  1  0  0  0
 20 15  1  0  0  0
 37 38  1  0  0  0
 33 34  1  0  0  0
M  END
> <score>
-1.222361

> <minimizedAffinity>
-9.24914

> <CNNscore>
0.7306235433

> <CNNaffinity>
7.1585083008

> <CNN_VS>
5.2301745415

$$$$
HIPS7000


 38 41  0  0  0  0  0  0  0  0999 V2000
   67.6263   79.4183   90.7346 C   0  0  0  0  0  0  0  0  0  0  0  0
   67.4446   79.6703   89.3648 C   0  0  0  0  0  0  0  0  0  0  0  0
   67.1780   80.9676   88.9187 C   0  0  0  0  0  0  0  0  0  0  0  0
   67.0809   82.0193   89.8324 C   0  0  0  0  0  0  0  0  0  0  0  0
   67.2505   81.7847   91.2096 C   0  0  0  0  0  0  0  0  0  0  0  0
   67.5151   80.4760   91.6520 C   0  0  0  0  0  0  0  0  0  0  0  0
   67.1486   82.9065   92.1755 C   0  0  0  0  0  0  0  0  0  0  0  0
   67.8027   82.8399   93.4222 C   0  0  0  0  0  0  0  0  0  0  0  0
   67.7310   83.9161   94.3125 C   0  0  0  0  0  0  0  0  0  0  0  0
   66.9986   85.0577   93.9796 C   0  0  0  0  0  0  0  0  0  0  0  0
   66.3262   85.1334   92.7471 C   0  0  0  0  0  0  0  0  0  0  0  0
   66.3963   84.0490   91.8600 C   0  0  0  0  0  0  0  0  0  0  0  0
   65.5449   86.2364   92.4007 O   0  0  0  0  0  0  0  0  0  0  0  0
   64.8584   87.0448   93.3540 C   0  0  0  0  0  0  0  0  0  0  0  0
   63.4909   86.4977   93.6555 C   0  0  0  0  0  0  0  0  0  0  0  0
   63.1302   86.1679   94.9706 C   0  0  0  0  0  0  0  0  0  0  0  0
   61.8493   85.6793   95.2491 C   0  0  0  0  0  0  0  0  0  0  0  0
   60.9045   85.5293   94.2204 C   0  0  0  0  0  0  0  0  0  0  0  0
   61.2795   85.8359   92.8997 C   0  0  0  0  0  0  0  0  0  0  0  0
   62.5588   86.3273   92.6228 C   0  0  0  0  0  0  0  0  0  0  0  0
   59.5385   84.9621   94.5192 C   0  0  0  0  0  0  0  0  0  0  0  0
   59.5321   84.3101   95.7409 F   0  0  0  0  0  0  0  0  0  0  0  0
   58.6169   85.9925   94.5534 F   0  0  0  0  0  0  0  0  0  0  0  0
   59.1648   84.0523   93.5455 F   0  0  0  0  0  0  0  0  0  0  0  0
   67.8565   78.0140   91.2170 C   0  0  0  0  0  0  0  0  0  0  0  0
   66.7659   77.6233   92.0469 O   0  0  0  0  0  0  0  0  0  0  0  0
   68.0126   74.6474   93.8772 C   0  0  0  0  0  0  0  0  0  0  0  0
   67.8962   75.7020   92.9508 C   0  0  0  0  0  0  0  0  0  0  0  0
   66.8159   76.5913   92.9953 C   0  0  0  0  0  0  0  0  0  0  0  0
   65.8293   76.4238   93.9808 C   0  0  0  0  0  0  0  0  0  0  0  0
   65.9284   75.3842   94.9046 C   0  0  0  0  0  0  0  0  0  0  0  0
   67.0091   74.4937   94.8635 C   0  0  0  0  0  0  0  0  0  0  0  0
   67.0811   73.4648   95.8034 O   0  0  0  0  0  0  0  0  0  0  0  0
   66.4101   73.3741   96.4512 H   0  0  0  0  0  0  0  0  0  0  0  0
   70.2473   74.1108   93.2413 O   0  0  0  0  0  0  0  0  0  0  0  0
   69.1831   73.7341   93.8025 C   0  0  0  0  0  0  0  0  0  0  0  0
   69.1291   72.4549   94.3475 O   0  0  0  0  0  0  0  0  0  0  0  0
   68.3465   72.1577   94.7685 H   0  0  0  0  0  0  0  0  0  0  0  0
 35 36  2  0  0  0
 36 37  1  0  0  0
 36 27  1  0  0  0
 27 28  2  0  0  0
 28 29  1  0  0  0
 29 26  1  0  0  0
 26 25  1  0  0  0
 25  1  1  0  0  0
  1  2  2  0  0  0
  2  3  1  0  0  0
  3  4  2  0  0  0
  4  5  1  0  0  0
  5  7  1  0  0  0
  7  8  2  0  0  0
  8  9  1  0  0  0
  9 10  2  0  0  0
 10 11  1  0  0  0
 11 13  1  0  0  0
 13 14  1  0  0  0
 14 15  1  0  0  0
 15 16  2  0  0  0
 16 17  1  0  0  0
 17 18  2  0  0  0
 18 21  1  0  0  0
 21 22  1  0  0  0
 21 23  1  0  0  0
 21 24  1  0  0  0
 18 19  1  0  0  0
 19 20  2  0  0  0
 11 12  2  0  0  0
  5  6  2  0  0  0
 29 30  2  0  0  0
 30 31  1  0  0  0
 31 32  2  0  0  0
 32 33  1  0  0  0
 32 27  1  0  0  0
  6  1  1  0  0  0
 12  7  1  0  0  0
 20 15  1  0  0  0
 37 38  1  0  0  0
 33 34  1  0  0  0
M  END
> <score>
-1.222361

> <minimizedAffinity>
-8.31663

> <CNNscore>
0.6539481878

> <CNNaffinity>
6.5374450684

> <CNN_VS>
4.2751502991

$$$$
HIPS7000


 38 41  0  0  0  0  0  0  0  0999 V2000
   68.1985   74.6476   94.9793 C   0  0  0  0  0  0  0  0  0  0  0  0
   67.0346   74.0719   95.5145 C   0  0  0  0  0  0  0  0  0  0  0  0
   65.7904   74.6689   95.2938 C   0  0  0  0  0  0  0  0  0  0  0  0
   65.6978   75.8463   94.5484 C   0  0  0  0  0  0  0  0  0  0  0  0
   66.8540   76.4430   94.0122 C   0  0  0  0  0  0  0  0  0  0  0  0
   68.1034   75.8388   94.2413 C   0  0  0  0  0  0  0  0  0  0  0  0
   66.7492   77.6927   93.2191 C   0  0  0  0  0  0  0  0  0  0  0  0
   65.8691   78.7202   93.6146 C   0  0  0  0  0  0  0  0  0  0  0  0
   65.8019   79.9096   92.8817 C   0  0  0  0  0  0  0  0  0  0  0  0
   66.5945   80.0818   91.7449 C   0  0  0  0  0  0  0  0  0  0  0  0
   67.4652   79.0600   91.3271 C   0  0  0  0  0  0  0  0  0  0  0  0
   67.5247   77.8666   92.0620 C   0  0  0  0  0  0  0  0  0  0  0  0
   68.2356   79.1762   90.1694 O   0  0  0  0  0  0  0  0  0  0  0  0
   69.5732   79.6705   90.1608 C   0  0  0  0  0  0  0  0  0  0  0  0
   69.6161   81.1343   89.8206 C   0  0  0  0  0  0  0  0  0  0  0  0
   68.6649   81.6916   88.9530 C   0  0  0  0  0  0  0  0  0  0  0  0
   68.6961   83.0583   88.6563 C   0  0  0  0  0  0  0  0  0  0  0  0
   69.6676   83.8914   89.2354 C   0  0  0  0  0  0  0  0  0  0  0  0
   70.6355   83.3232   90.0835 C   0  0  0  0  0  0  0  0  0  0  0  0
   70.6015   81.9577   90.3821 C   0  0  0  0  0  0  0  0  0  0  0  0
   69.7232   85.3566   88.8794 C   0  0  0  0  0  0  0  0  0  0  0  0
   69.5600   86.1442   90.0066 F   0  0  0  0  0  0  0  0  0  0  0  0
   70.9498   85.6382   88.3065 F   0  0  0  0  0  0  0  0  0  0  0  0
   68.7197   85.6786   87.9822 F   0  0  0  0  0  0  0  0  0  0  0  0
   69.5406   74.0354   95.2655 C   0  0  0  0  0  0  0  0  0  0  0  0
   70.1917   73.7457   94.0314 O   0  0  0  0  0  0  0  0  0  0  0  0
   70.5877   70.0842   93.5875 C   0  0  0  0  0  0  0  0  0  0  0  0
   70.5750   71.3741   94.1531 C   0  0  0  0  0  0  0  0  0  0  0  0
   70.1882   72.4916   93.4037 C   0  0  0  0  0  0  0  0  0  0  0  0
   69.8102   72.3205   92.0618 C   0  0  0  0  0  0  0  0  0  0  0  0
   69.8187   71.0508   91.4859 C   0  0  0  0  0  0  0  0  0  0  0  0
   70.2036   69.9306   92.2338 C   0  0  0  0  0  0  0  0  0  0  0  0
   70.1993   68.6727   91.6295 O   0  0  0  0  0  0  0  0  0  0  0  0
   69.9429   68.5848   90.7326 H   0  0  0  0  0  0  0  0  0  0  0  0
   72.0730   68.3181   94.1881 O   0  0  0  0  0  0  0  0  0  0  0  0
   70.9922   68.9231   94.4229 C   0  0  0  0  0  0  0  0  0  0  0  0
   70.1929   68.4843   95.4740 O   0  0  0  0  0  0  0  0  0  0  0  0
   69.3862   68.9217   95.6634 H   0  0  0  0  0  0  0  0  0  0  0  0
 35 36  2  0  0  0
 36 37  1  0  0  0
 36 27  1  0  0  0
 27 28  2  0  0  0
 28 29  1  0  0  0
 29 26  1  0  0  0
 26 25  1  0  0  0
 25  1  1  0  0  0
  1  2  2  0  0  0
  2  3  1  0  0  0
  3  4  2  0  0  0
  4  5  1  0  0  0
  5  7  1  0  0  0
  7  8  2  0  0  0
  8  9  1  0  0  0
  9 10  2  0  0  0
 10 11  1  0  0  0
 11 13  1  0  0  0
 13 14  1  0  0  0
 14 15  1  0  0  0
 15 16  2  0  0  0
 16 17  1  0  0  0
 17 18  2  0  0  0
 18 21  1  0  0  0
 21 22  1  0  0  0
 21 23  1  0  0  0
 21 24  1  0  0  0
 18 19  1  0  0  0
 19 20  2  0  0  0
 11 12  2  0  0  0
  5  6  2  0  0  0
 29 30  2  0  0  0
 30 31  1  0  0  0
 31 32  2  0  0  0
 32 33  1  0  0  0
 32 27  1  0  0  0
  6  1  1  0  0  0
 12  7  1  0  0  0
 20 15  1  0  0  0
 37 38  1  0  0  0
 33 34  1  0  0  0
M  END
> <score>
-1.222361

> <minimizedAffinity>
-8.93817

> <CNNscore>
0.6167016029

> <CNNaffinity>
6.4042968750

> <CNN_VS>
3.9495401382

$$$$
HIPS7001


 36 39  0  0  0  0  0  0  0  0999 V2000
   66.4072   79.2587   91.2219 C   0  0  0  0  0  0  0  0  0  0  0  0
   65.4488   79.9330   91.9979 C   0  0  0  0  0  0  0  0  0  0  0  0
   65.1887   79.5284   93.3089 C   0  0  0  0  0  0  0  0  0  0  0  0
   65.8798   78.4495   93.8616 C   0  0  0  0  0  0  0  0  0  0  0  0
   66.8206   77.7442   93.0949 C   0  0  0  0  0  0  0  0  0  0  0  0
   67.0865   78.1600   91.7798 C   0  0  0  0  0  0  0  0  0  0  0  0
   67.2005   81.5396   88.2772 C   0  0  0  0  0  0  0  0  0  0  0  0
   67.2481   80.6082   87.2351 C   0  0  0  0  0  0  0  0  0  0  0  0
   67.0583   79.2497   87.4897 C   0  0  0  0  0  0  0  0  0  0  0  0
   66.8025   78.8085   88.7887 C   0  0  0  0  0  0  0  0  0  0  0  0
   66.7309   79.7263   89.8508 C   0  0  0  0  0  0  0  0  0  0  0  0
   66.9373   81.0935   89.5878 C   0  0  0  0  0  0  0  0  0  0  0  0
   67.4118   82.8917   87.9636 O   0  0  0  0  0  0  0  0  0  0  0  0
   68.0653   83.3742   86.7901 C   0  0  0  0  0  0  0  0  0  0  0  0
   71.4105   85.8961   87.8187 C   0  0  0  0  0  0  0  0  0  0  0  0
   70.1177   86.4308   87.7502 C   0  0  0  0  0  0  0  0  0  0  0  0
   69.0349   85.6082   87.4245 C   0  0  0  0  0  0  0  0  0  0  0  0
   69.2352   84.2425   87.1659 C   0  0  0  0  0  0  0  0  0  0  0  0
   70.5320   83.7085   87.2448 C   0  0  0  0  0  0  0  0  0  0  0  0
   71.6151   84.5334   87.5675 C   0  0  0  0  0  0  0  0  0  0  0  0
   73.4242   87.4314   88.4001 N   0  0  0  0  0  0  0  0  0  0  0  0
   72.5273   86.7470   88.1399 C   0  0  0  0  0  0  0  0  0  0  0  0
   67.6163   76.6164   93.7023 C   0  0  0  0  0  0  0  0  0  0  0  0
   68.6793   76.1991   92.8442 O   0  0  0  0  0  0  0  0  0  0  0  0
   68.8884   74.8879   92.3874 C   0  0  0  0  0  0  0  0  0  0  0  0
   68.3597   74.5324   91.1451 C   0  0  0  0  0  0  0  0  0  0  0  0
   68.5465   73.2474   90.6360 C   0  0  0  0  0  0  0  0  0  0  0  0
   69.2744   72.2949   91.3562 C   0  0  0  0  0  0  0  0  0  0  0  0
   69.4949   71.0533   90.7558 O   0  0  0  0  0  0  0  0  0  0  0  0
   69.7877   72.6256   92.6338 C   0  0  0  0  0  0  0  0  0  0  0  0
   69.6020   73.9289   93.1298 C   0  0  0  0  0  0  0  0  0  0  0  0
   69.1380   70.8727   89.9085 H   0  0  0  0  0  0  0  0  0  0  0  0
   70.4985   71.6418   93.4767 C   0  0  0  0  0  0  0  0  0  0  0  0
   70.0215   70.4859   93.6303 O   0  0  0  0  0  0  0  0  0  0  0  0
   71.7193   71.9608   94.0635 O   0  0  0  0  0  0  0  0  0  0  0  0
   72.0816   72.8180   93.9547 H   0  0  0  0  0  0  0  0  0  0  0  0
 21 22  3  0  0  0
 22 15  1  0  0  0
 15 16  2  0  0  0
 16 17  1  0  0  0
 17 18  2  0  0  0
 18 14  1  0  0  0
 14 13  1  0  0  0
 13  7  1  0  0  0
  7  8  2  0  0  0
  8  9  1  0  0  0
  9 10  2  0  0  0
 10 11  1  0  0  0
 11  1  1  0  0  0
  1  2  2  0  0  0
  2  3  1  0  0  0
  3  4  2  0  0  0
  4  5  1  0  0  0
  5 23  1  0  0  0
 23 24  1  0  0  0
 24 25  1  0  0  0
 25 26  2  0  0  0
 26 27  1  0  0  0
 27 28  2  0  0  0
 28 29  1  0  0  0
 28 30  1  0  0  0
 30 33  1  0  0  0
 33 34  2  0  0  0
 33 35  1  0  0  0
 30 31  2  0  0  0
  5  6  2  0  0  0
 11 12  2  0  0  0
 18 19  1  0  0  0
 19 20  2  0  0  0
 20 15  1  0  0  0
 12  7  1  0  0  0
  6  1  1  0  0  0
 31 25  1  0  0  0
 29 32  1  0  0  0
 35 36  1  0  0  0
M  END
> <score>
-0.970519

> <minimizedAffinity>
-8.69584

> <CNNscore>
0.5668741465

> <CNNaffinity>
6.2035408020

> <CNN_VS>
3.5166268349

$$$$
HIPS7001


 36 39  0  0  0  0  0  0  0  0999 V2000
   70.3200   79.3944   90.4373 C   0  0  0  0  0  0  0  0  0  0  0  0
   71.4851   78.6253   90.5991 C   0  0  0  0  0  0  0  0  0  0  0  0
   71.3982   77.2543   90.8499 C   0  0  0  0  0  0  0  0  0  0  0  0
   70.1514   76.6343   90.9415 C   0  0  0  0  0  0  0  0  0  0  0  0
   68.9748   77.3887   90.8114 C   0  0  0  0  0  0  0  0  0  0  0  0
   69.0663   78.7657   90.5497 C   0  0  0  0  0  0  0  0  0  0  0  0
   69.3443   82.9448   89.4644 C   0  0  0  0  0  0  0  0  0  0  0  0
   70.6041   83.5477   89.3919 C   0  0  0  0  0  0  0  0  0  0  0  0
   71.7564   82.8192   89.6883 C   0  0  0  0  0  0  0  0  0  0  0  0
   71.6631   81.4735   90.0456 C   0  0  0  0  0  0  0  0  0  0  0  0
   70.4105   80.8390   90.1076 C   0  0  0  0  0  0  0  0  0  0  0  0
   69.2516   81.5845   89.8206 C   0  0  0  0  0  0  0  0  0  0  0  0
   68.2191   83.7303   89.1679 O   0  0  0  0  0  0  0  0  0  0  0  0
   67.1430   84.0024   90.0651 C   0  0  0  0  0  0  0  0  0  0  0  0
   68.7066   84.6269   94.0367 C   0  0  0  0  0  0  0  0  0  0  0  0
   68.8727   85.6071   93.0501 C   0  0  0  0  0  0  0  0  0  0  0  0
   68.3571   85.4043   91.7662 C   0  0  0  0  0  0  0  0  0  0  0  0
   67.6692   84.2195   91.4579 C   0  0  0  0  0  0  0  0  0  0  0  0
   67.4968   83.2431   92.4529 C   0  0  0  0  0  0  0  0  0  0  0  0
   68.0160   83.4459   93.7362 C   0  0  0  0  0  0  0  0  0  0  0  0
   69.6896   84.9944   96.4134 N   0  0  0  0  0  0  0  0  0  0  0  0
   69.2506   84.8301   95.3547 C   0  0  0  0  0  0  0  0  0  0  0  0
   67.6245   76.7182   90.8477 C   0  0  0  0  0  0  0  0  0  0  0  0
   66.9898   76.8793   92.1172 O   0  0  0  0  0  0  0  0  0  0  0  0
   67.0068   75.9390   93.1599 C   0  0  0  0  0  0  0  0  0  0  0  0
   65.8460   75.7776   93.9186 C   0  0  0  0  0  0  0  0  0  0  0  0
   65.8017   74.8498   94.9591 C   0  0  0  0  0  0  0  0  0  0  0  0
   66.9160   74.0583   95.2553 C   0  0  0  0  0  0  0  0  0  0  0  0
   66.7812   73.0921   96.2548 O   0  0  0  0  0  0  0  0  0  0  0  0
   68.1138   74.2328   94.5205 C   0  0  0  0  0  0  0  0  0  0  0  0
   68.1405   75.1637   93.4661 C   0  0  0  0  0  0  0  0  0  0  0  0
   65.9716   73.0079   96.7189 H   0  0  0  0  0  0  0  0  0  0  0  0
   69.3476   73.4827   94.8343 C   0  0  0  0  0  0  0  0  0  0  0  0
   69.4481   72.8698   95.9304 O   0  0  0  0  0  0  0  0  0  0  0  0
   70.3836   73.4018   93.9087 O   0  0  0  0  0  0  0  0  0  0  0  0
   70.3175   73.8543   93.0908 H   0  0  0  0  0  0  0  0  0  0  0  0
 21 22  3  0  0  0
 22 15  1  0  0  0
 15 16  2  0  0  0
 16 17  1  0  0  0
 17 18  2  0  0  0
 18 14  1  0  0  0
 14 13  1  0  0  0
 13  7  1  0  0  0
  7  8  2  0  0  0
  8  9  1  0  0  0
  9 10  2  0  0  0
 10 11  1  0  0  0
 11  1  1  0  0  0
  1  2  2  0  0  0
  2  3  1  0  0  0
  3  4  2  0  0  0
  4  5  1  0  0  0
  5 23  1  0  0  0
 23 24  1  0  0  0
 24 25  1  0  0  0
 25 26  2  0  0  0
 26 27  1  0  0  0
 27 28  2  0  0  0
 28 29  1  0  0  0
 28 30  1  0  0  0
 30 33  1  0  0  0
 33 34  2  0  0  0
 33 35  1  0  0  0
 30 31  2  0  0  0
  5  6  2  0  0  0
 11 12  2  0  0  0
 18 19  1  0  0  0
 19 20  2  0  0  0
 20 15  1  0  0  0
 12  7  1  0  0  0
  6  1  1  0  0  0
 31 25  1  0  0  0
 29 32  1  0  0  0
 35 36  1  0  0  0
M  END
> <score>
-0.970519

> <minimizedAffinity>
-8.61483

> <CNNscore>
0.5435866714

> <CNNaffinity>
6.4086751938

> <CNN_VS>
3.4836704731

$$$$
HIPS7001


 36 39  0  0  0  0  0  0  0  0999 V2000
   67.4384   80.7263   88.8311 C   0  0  0  0  0  0  0  0  0  0  0  0
   67.5589   81.1170   90.1758 C   0  0  0  0  0  0  0  0  0  0  0  0
   67.6209   82.4699   90.5161 C   0  0  0  0  0  0  0  0  0  0  0  0
   67.5630   83.4479   89.5225 C   0  0  0  0  0  0  0  0  0  0  0  0
   67.4713   83.0791   88.1712 C   0  0  0  0  0  0  0  0  0  0  0  0
   67.3995   81.7176   87.8334 C   0  0  0  0  0  0  0  0  0  0  0  0
   67.7645   76.9333   88.9349 C   0  0  0  0  0  0  0  0  0  0  0  0
   67.1387   76.5878   87.7330 C   0  0  0  0  0  0  0  0  0  0  0  0
   66.5865   77.5722   86.9130 C   0  0  0  0  0  0  0  0  0  0  0  0
   66.6681   78.9165   87.2784 C   0  0  0  0  0  0  0  0  0  0  0  0
   67.3082   79.2918   88.4720 C   0  0  0  0  0  0  0  0  0  0  0  0
   67.8506   78.2916   89.3006 C   0  0  0  0  0  0  0  0  0  0  0  0
   68.2905   75.8994   89.7258 O   0  0  0  0  0  0  0  0  0  0  0  0
   67.7690   74.5732   89.8037 C   0  0  0  0  0  0  0  0  0  0  0  0
   70.0260   72.1967   92.6084 C   0  0  0  0  0  0  0  0  0  0  0  0
   69.3582   71.5840   91.5403 C   0  0  0  0  0  0  0  0  0  0  0  0
   68.6345   72.3588   90.6287 C   0  0  0  0  0  0  0  0  0  0  0  0
   68.5735   73.7540   90.7762 C   0  0  0  0  0  0  0  0  0  0  0  0
   69.2522   74.3652   91.8433 C   0  0  0  0  0  0  0  0  0  0  0  0
   69.9733   73.5885   92.7567 C   0  0  0  0  0  0  0  0  0  0  0  0
   71.3487   70.7552   94.3180 N   0  0  0  0  0  0  0  0  0  0  0  0
   70.7591   71.3966   93.5554 C   0  0  0  0  0  0  0  0  0  0  0  0
   67.3465   84.1285   87.0953 C   0  0  0  0  0  0  0  0  0  0  0  0
   68.5930   84.3599   86.4373 O   0  0  0  0  0  0  0  0  0  0  0  0
   69.7255   84.9473   87.0240 C   0  0  0  0  0  0  0  0  0  0  0  0
   70.9199   84.2245   87.0156 C   0  0  0  0  0  0  0  0  0  0  0  0
   72.0792   84.7632   87.5735 C   0  0  0  0  0  0  0  0  0  0  0  0
   72.0683   86.0404   88.1430 C   0  0  0  0  0  0  0  0  0  0  0  0
   73.2794   86.5550   88.6110 O   0  0  0  0  0  0  0  0  0  0  0  0
   70.8582   86.7741   88.1931 C   0  0  0  0  0  0  0  0  0  0  0  0
   69.6994   86.2235   87.6161 C   0  0  0  0  0  0  0  0  0  0  0  0
   74.0591   86.0377   88.5603 H   0  0  0  0  0  0  0  0  0  0  0  0
   70.7638   88.0950   88.8488 C   0  0  0  0  0  0  0  0  0  0  0  0
   71.8117   88.7479   89.0993 O   0  0  0  0  0  0  0  0  0  0  0  0
   69.5239   88.6518   89.1476 O   0  0  0  0  0  0  0  0  0  0  0  0
   68.7392   88.1735   88.9647 H   0  0  0  0  0  0  0  0  0  0  0  0
 21 22  3  0  0  0
 22 15  1  0  0  0
 15 16  2  0  0  0
 16 17  1  0  0  0
 17 18  2  0  0  0
 18 14  1  0  0  0
 14 13  1  0  0  0
 13  7  1  0  0  0
  7  8  2  0  0  0
  8  9  1  0  0  0
  9 10  2  0  0  0
 10 11  1  0  0  0
 11  1  1  0  0  0
  1  2  2  0  0  0
  2  3  1  0  0  0
  3  4  2  0  0  0
  4  5  1  0  0  0
  5 23  1  0  0  0
 23 24  1  0  0  0
 24 25  1  0  0  0
 25 26  2  0  0  0
 26 27  1  0  0  0
 27 28  2  0  0  0
 28 29  1  0  0  0
 28 30  1  0  0  0
 30 33  1  0  0  0
 33 34  2  0  0  0
 33 35  1  0  0  0
 30 31  2  0  0  0
  5  6  2  0  0  0
 11 12  2  0  0  0
 18 19  1  0  0  0
 19 20  2  0  0  0
 20 15  1  0  0  0
 12  7  1  0  0  0
  6  1  1  0  0  0
 31 25  1  0  0  0
 29 32  1  0  0  0
 35 36  1  0  0  0
M  END
> <score>
-0.970519

> <minimizedAffinity>
-8.52766

> <CNNscore>
0.5269332528

> <CNNaffinity>
6.1339578629

> <CNN_VS>
3.2321863174

$$$$
HIPS7002


 39 42  0  0  0  0  0  0  0  0999 V2000
   67.2582   81.9516   88.0332 C   0  0  0  0  0  0  0  0  0  0  0  0
   67.2479   80.8542   87.1561 C   0  0  0  0  0  0  0  0  0  0  0  0
   67.0715   79.5603   87.6517 C   0  0  0  0  0  0  0  0  0  0  0  0
   66.9130   79.3479   89.0239 C   0  0  0  0  0  0  0  0  0  0  0  0
   66.9363   80.4319   89.9174 C   0  0  0  0  0  0  0  0  0  0  0  0
   67.0983   81.7341   89.4108 C   0  0  0  0  0  0  0  0  0  0  0  0
   66.8119   80.2055   91.3771 C   0  0  0  0  0  0  0  0  0  0  0  0
   67.2997   81.1512   92.2933 C   0  0  0  0  0  0  0  0  0  0  0  0
   67.1704   80.9337   93.6670 C   0  0  0  0  0  0  0  0  0  0  0  0
   66.5433   79.7803   94.1411 C   0  0  0  0  0  0  0  0  0  0  0  0
   66.0356   78.8290   93.2369 C   0  0  0  0  0  0  0  0  0  0  0  0
   66.1865   79.0437   91.8624 C   0  0  0  0  0  0  0  0  0  0  0  0
   65.3680   77.6663   93.6554 O   0  0  0  0  0  0  0  0  0  0  0  0
   65.9883   76.4043   93.9106 C   0  0  0  0  0  0  0  0  0  0  0  0
   67.3806   76.3482   93.3348 C   0  0  0  0  0  0  0  0  0  0  0  0
   67.5792   75.9095   92.0170 C   0  0  0  0  0  0  0  0  0  0  0  0
   68.8687   75.8380   91.4812 C   0  0  0  0  0  0  0  0  0  0  0  0
   69.9835   76.1974   92.2626 C   0  0  0  0  0  0  0  0  0  0  0  0
   69.7827   76.6171   93.5824 C   0  0  0  0  0  0  0  0  0  0  0  0
   68.4950   76.6811   94.1209 C   0  0  0  0  0  0  0  0  0  0  0  0
   71.2992   76.1497   91.7760 O   0  0  0  0  0  0  0  0  0  0  0  0
   72.1266   77.2816   91.5225 C   0  0  0  0  0  0  0  0  0  0  0  0
   72.8207   77.6319   92.6654 F   0  0  0  0  0  0  0  0  0  0  0  0
   73.0336   76.9591   90.5323 F   0  0  0  0  0  0  0  0  0  0  0  0
   71.3569   78.3484   91.0934 F   0  0  0  0  0  0  0  0  0  0  0  0
   67.3934   83.3567   87.5100 C   0  0  0  0  0  0  0  0  0  0  0  0
   68.6352   83.5078   86.8200 O   0  0  0  0  0  0  0  0  0  0  0  0
   70.6513   86.2923   88.3198 C   0  0  0  0  0  0  0  0  0  0  0  0
   69.5423   85.5287   87.9110 C   0  0  0  0  0  0  0  0  0  0  0  0
   69.7143   84.3004   87.2463 C   0  0  0  0  0  0  0  0  0  0  0  0
   71.0075   83.8509   86.9751 C   0  0  0  0  0  0  0  0  0  0  0  0
   72.1174   84.5876   87.3888 C   0  0  0  0  0  0  0  0  0  0  0  0
   71.9566   85.7916   88.0809 C   0  0  0  0  0  0  0  0  0  0  0  0
   73.1091   86.4354   88.5392 O   0  0  0  0  0  0  0  0  0  0  0  0
   73.9529   86.0700   88.3591 H   0  0  0  0  0  0  0  0  0  0  0  0
   71.1349   88.5970   88.7087 O   0  0  0  0  0  0  0  0  0  0  0  0
   70.3995   87.6049   88.9581 C   0  0  0  0  0  0  0  0  0  0  0  0
   69.3021   87.7650   89.8003 O   0  0  0  0  0  0  0  0  0  0  0  0
   68.7485   87.0339   89.9925 H   0  0  0  0  0  0  0  0  0  0  0  0
 36 37  2  0  0  0
 37 38  1  0  0  0
 37 28  1  0  0  0
 28 29  2  0  0  0
 29 30  1  0  0  0
 30 27  1  0  0  0
 27 26  1  0  0  0
 26  1  1  0  0  0
  1  2  2  0  0  0
  2  3  1  0  0  0
  3  4  2  0  0  0
  4  5  1  0  0  0
  5  7  1  0  0  0
  7  8  2  0  0  0
  8  9  1  0  0  0
  9 10  2  0  0  0
 10 11  1  0  0  0
 11 13  1  0  0  0
 13 14  1  0  0  0
 14 15  1  0  0  0
 15 16  2  0  0  0
 16 17  1  0  0  0
 17 18  2  0  0  0
 18 21  1  0  0  0
 21 22  1  0  0  0
 22 23  1  0  0  0
 22 24  1  0  0  0
 22 25  1  0  0  0
 18 19  1  0  0  0
 19 20  2  0  0  0
 11 12  2  0  0  0
  5  6  2  0  0  0
 30 31  2  0  0  0
 31 32  1  0  0  0
 32 33  2  0  0  0
 33 34  1  0  0  0
 33 28  1  0  0  0
  6  1  1  0  0  0
 12  7  1  0  0  0
 20 15  1  0  0  0
 38 39  1  0  0  0
 34 35  1  0  0  0
M  END
> <score>
-1.326906

> <minimizedAffinity>
-8.49001

> <CNNscore>
0.7330015898

> <CNNaffinity>
7.0850591660

> <CNN_VS>
5.1933598518

$$$$
HIPS7002


 39 42  0  0  0  0  0  0  0  0999 V2000
   66.7755   75.4053   87.9512 C   0  0  0  0  0  0  0  0  0  0  0  0
   67.0445   75.1676   86.5930 C   0  0  0  0  0  0  0  0  0  0  0  0
   67.3218   76.2339   85.7346 C   0  0  0  0  0  0  0  0  0  0  0  0
   67.3246   77.5449   86.2191 C   0  0  0  0  0  0  0  0  0  0  0  0
   67.0424   77.8027   87.5709 C   0  0  0  0  0  0  0  0  0  0  0  0
   66.7796   76.7235   88.4340 C   0  0  0  0  0  0  0  0  0  0  0  0
   67.0019   79.1951   88.0780 C   0  0  0  0  0  0  0  0  0  0  0  0
   67.3500   80.2713   87.2461 C   0  0  0  0  0  0  0  0  0  0  0  0
   67.3006   81.5808   87.7297 C   0  0  0  0  0  0  0  0  0  0  0  0
   66.8919   81.8321   89.0405 C   0  0  0  0  0  0  0  0  0  0  0  0
   66.5254   80.7666   89.8835 C   0  0  0  0  0  0  0  0  0  0  0  0
   66.5966   79.4558   89.3987 C   0  0  0  0  0  0  0  0  0  0  0  0
   66.0767   80.9615   91.2001 O   0  0  0  0  0  0  0  0  0  0  0  0
   66.8310   80.6772   92.3802 C   0  0  0  0  0  0  0  0  0  0  0  0
   66.5014   79.3124   92.9295 C   0  0  0  0  0  0  0  0  0  0  0  0
   67.1905   78.1822   92.4643 C   0  0  0  0  0  0  0  0  0  0  0  0
   66.8790   76.9109   92.9560 C   0  0  0  0  0  0  0  0  0  0  0  0
   65.8630   76.7505   93.9176 C   0  0  0  0  0  0  0  0  0  0  0  0
   65.1658   77.8780   94.3655 C   0  0  0  0  0  0  0  0  0  0  0  0
   65.4712   79.1477   93.8687 C   0  0  0  0  0  0  0  0  0  0  0  0
   65.5112   75.5000   94.4493 O   0  0  0  0  0  0  0  0  0  0  0  0
   66.4064   74.4118   94.6604 C   0  0  0  0  0  0  0  0  0  0  0  0
   65.9320   73.5909   95.6662 F   0  0  0  0  0  0  0  0  0  0  0  0
   66.5004   73.6781   93.4943 F   0  0  0  0  0  0  0  0  0  0  0  0
   67.6631   74.8858   94.9928 F   0  0  0  0  0  0  0  0  0  0  0  0
   66.5277   74.2634   88.9004 C   0  0  0  0  0  0  0  0  0  0  0  0
   67.7475   73.5671   89.1621 O   0  0  0  0  0  0  0  0  0  0  0  0
   69.7339   74.7131   92.1299 C   0  0  0  0  0  0  0  0  0  0  0  0
   69.0377   74.7444   90.9074 C   0  0  0  0  0  0  0  0  0  0  0  0
   68.4495   73.5804   90.3792 C   0  0  0  0  0  0  0  0  0  0  0  0
   68.5811   72.3778   91.0752 C   0  0  0  0  0  0  0  0  0  0  0  0
   69.2532   72.3334   92.2966 C   0  0  0  0  0  0  0  0  0  0  0  0
   69.8104   73.4917   92.8466 C   0  0  0  0  0  0  0  0  0  0  0  0
   70.3957   73.3925   94.1116 O   0  0  0  0  0  0  0  0  0  0  0  0
   70.4253   72.5653   94.5506 H   0  0  0  0  0  0  0  0  0  0  0  0
   71.0671   76.6670   91.8110 O   0  0  0  0  0  0  0  0  0  0  0  0
   70.3824   75.9601   92.5974 C   0  0  0  0  0  0  0  0  0  0  0  0
   70.1876   76.3916   93.9070 O   0  0  0  0  0  0  0  0  0  0  0  0
   69.6800   75.8736   94.5004 H   0  0  0  0  0  0  0  0  0  0  0  0
 36 37  2  0  0  0
 37 38  1  0  0  0
 37 28  1  0  0  0
 28 29  2  0  0  0
 29 30  1  0  0  0
 30 27  1  0  0  0
 27 26  1  0  0  0
 26  1  1  0  0  0
  1  2  2  0  0  0
  2  3  1  0  0  0
  3  4  2  0  0  0
  4  5  1  0  0  0
  5  7  1  0  0  0
  7  8  2  0  0  0
  8  9  1  0  0  0
  9 10  2  0  0  0
 10 11  1  0  0  0
 11 13  1  0  0  0
 13 14  1  0  0  0
 14 15  1  0  0  0
 15 16  2  0  0  0
 16 17  1  0  0  0
 17 18  2  0  0  0
 18 21  1  0  0  0
 21 22  1  0  0  0
 22 23  1  0  0  0
 22 24  1  0  0  0
 22 25  1  0  0  0
 18 19  1  0  0  0
 19 20  2  0  0  0
 11 12  2  0  0  0
  5  6  2  0  0  0
 30 31  2  0  0  0
 31 32  1  0  0  0
 32 33  2  0  0  0
 33 34  1  0  0  0
 33 28  1  0  0  0
  6  1  1  0  0  0
 12  7  1  0  0  0
 20 15  1  0  0  0
 38 39  1  0  0  0
 34 35  1  0  0  0
M  END
> <score>
-1.326906

> <minimizedAffinity>
-8.74461

> <CNNscore>
0.6356977820

> <CNNaffinity>
7.3442897797

> <CNN_VS>
4.6687488556

$$$$
HIPS7002


 39 42  0  0  0  0  0  0  0  0999 V2000
   68.2527   74.0949   94.6611 C   0  0  0  0  0  0  0  0  0  0  0  0
   67.2250   73.6301   95.4985 C   0  0  0  0  0  0  0  0  0  0  0  0
   66.0324   74.3483   95.6123 C   0  0  0  0  0  0  0  0  0  0  0  0
   65.8572   75.5385   94.9009 C   0  0  0  0  0  0  0  0  0  0  0  0
   66.8802   76.0266   94.0709 C   0  0  0  0  0  0  0  0  0  0  0  0
   68.0726   75.2907   93.9479 C   0  0  0  0  0  0  0  0  0  0  0  0
   66.7141   77.3107   93.3491 C   0  0  0  0  0  0  0  0  0  0  0  0
   65.7547   78.2478   93.7651 C   0  0  0  0  0  0  0  0  0  0  0  0
   65.6111   79.4591   93.0843 C   0  0  0  0  0  0  0  0  0  0  0  0
   66.4291   79.7542   91.9926 C   0  0  0  0  0  0  0  0  0  0  0  0
   67.4057   78.8328   91.5712 C   0  0  0  0  0  0  0  0  0  0  0  0
   67.5305   77.6129   92.2452 C   0  0  0  0  0  0  0  0  0  0  0  0
   68.2772   79.0889   90.4999 O   0  0  0  0  0  0  0  0  0  0  0  0
   67.9632   79.8774   89.3502 C   0  0  0  0  0  0  0  0  0  0  0  0
   68.8458   81.0965   89.2601 C   0  0  0  0  0  0  0  0  0  0  0  0
   70.0599   81.1387   89.9622 C   0  0  0  0  0  0  0  0  0  0  0  0
   70.8759   82.2723   89.8978 C   0  0  0  0  0  0  0  0  0  0  0  0
   70.4829   83.3881   89.1341 C   0  0  0  0  0  0  0  0  0  0  0  0
   69.2628   83.3489   88.4501 C   0  0  0  0  0  0  0  0  0  0  0  0
   68.4432   82.2196   88.5204 C   0  0  0  0  0  0  0  0  0  0  0  0
   71.2635   84.5499   89.0297 O   0  0  0  0  0  0  0  0  0  0  0  0
   72.6091   84.6007   88.5641 C   0  0  0  0  0  0  0  0  0  0  0  0
   73.4496   83.9691   89.4616 F   0  0  0  0  0  0  0  0  0  0  0  0
   72.6861   83.9497   87.3486 F   0  0  0  0  0  0  0  0  0  0  0  0
   73.0052   85.9153   88.3929 F   0  0  0  0  0  0  0  0  0  0  0  0
   69.5223   73.3052   94.4860 C   0  0  0  0  0  0  0  0  0  0  0  0
   69.2535   72.0896   93.7852 O   0  0  0  0  0  0  0  0  0  0  0  0
   72.5166   70.4753   92.8831 C   0  0  0  0  0  0  0  0  0  0  0  0
   71.5832   71.3169   93.5161 C   0  0  0  0  0  0  0  0  0  0  0  0
   70.2179   71.2667   93.1793 C   0  0  0  0  0  0  0  0  0  0  0  0
   69.7959   70.3802   92.1873 C   0  0  0  0  0  0  0  0  0  0  0  0
   70.7057   69.5273   91.5625 C   0  0  0  0  0  0  0  0  0  0  0  0
   72.0584   69.5452   91.9155 C   0  0  0  0  0  0  0  0  0  0  0  0
   72.8991   68.6070   91.3108 O   0  0  0  0  0  0  0  0  0  0  0  0
   72.5550   68.0102   90.6757 H   0  0  0  0  0  0  0  0  0  0  0  0
   74.8528   70.3038   92.4254 O   0  0  0  0  0  0  0  0  0  0  0  0
   73.9465   70.6236   93.2399 C   0  0  0  0  0  0  0  0  0  0  0  0
   74.2987   71.1778   94.4679 O   0  0  0  0  0  0  0  0  0  0  0  0
   73.6328   71.4193   95.0812 H   0  0  0  0  0  0  0  0  0  0  0  0
 36 37  2  0  0  0
 37 38  1  0  0  0
 37 28  1  0  0  0
 28 29  2  0  0  0
 29 30  1  0  0  0
 30 27  1  0  0  0
 27 26  1  0  0  0
 26  1  1  0  0  0
  1  2  2  0  0  0
  2  3  1  0  0  0
  3  4  2  0  0  0
  4  5  1  0  0  0
  5  7  1  0  0  0
  7  8  2  0  0  0
  8  9  1  0  0  0
  9 10  2  0  0  0
 10 11  1  0  0  0
 11 13  1  0  0  0
 13 14  1  0  0  0
 14 15  1  0  0  0
 15 16  2  0  0  0
 16 17  1  0  0  0
 17 18  2  0  0  0
 18 21  1  0  0  0
 21 22  1  0  0  0
 22 23  1  0  0  0
 22 24  1  0  0  0
 22 25  1  0  0  0
 18 19  1  0  0  0
 19 20  2  0  0  0
 11 12  2  0  0  0
  5  6  2  0  0  0
 30 31  2  0  0  0
 31 32  1  0  0  0
 32 33  2  0  0  0
 33 34  1  0  0  0
 33 28  1  0  0  0
  6  1  1  0  0  0
 12  7  1  0  0  0
 20 15  1  0  0  0
 38 39  1  0  0  0
 34 35  1  0  0  0
M  END
> <score>
-1.326906

> <minimizedAffinity>
-9.31026

> <CNNscore>
0.6215515137

> <CNNaffinity>
6.1220693588

> <CNN_VS>
3.8051815033

$$$$
HIPS7003


 34 37  0  0  0  0  0  0  0  0999 V2000
   67.0363   75.3265   87.0737 C   0  0  0  0  0  0  0  0  0  0  0  0
   67.3797   75.4815   85.7225 C   0  0  0  0  0  0  0  0  0  0  0  0
   67.6142   76.7537   85.1988 C   0  0  0  0  0  0  0  0  0  0  0  0
   67.4992   77.8818   86.0140 C   0  0  0  0  0  0  0  0  0  0  0  0
   67.1405   77.7490   87.3667 C   0  0  0  0  0  0  0  0  0  0  0  0
   66.9067   76.4634   87.8871 C   0  0  0  0  0  0  0  0  0  0  0  0
   67.0069   78.9477   88.2316 C   0  0  0  0  0  0  0  0  0  0  0  0
   66.6812   78.8219   89.5919 C   0  0  0  0  0  0  0  0  0  0  0  0
   66.5665   79.9265   90.3739 N   0  0  0  0  0  0  0  0  0  0  0  0
   66.7598   81.1785   89.8838 C   0  0  0  0  0  0  0  0  0  0  0  0
   67.0875   81.3626   88.5295 C   0  0  0  0  0  0  0  0  0  0  0  0
   67.2074   80.2364   87.7109 C   0  0  0  0  0  0  0  0  0  0  0  0
   67.3074   82.6281   87.9618 O   0  0  0  0  0  0  0  0  0  0  0  0
   68.0544   82.8797   86.7713 C   0  0  0  0  0  0  0  0  0  0  0  0
   69.1344   83.8972   87.0238 C   0  0  0  0  0  0  0  0  0  0  0  0
   68.8317   85.2687   87.0596 C   0  0  0  0  0  0  0  0  0  0  0  0
   69.8385   86.2060   87.3112 C   0  0  0  0  0  0  0  0  0  0  0  0
   71.1501   85.7810   87.5368 C   0  0  0  0  0  0  0  0  0  0  0  0
   71.4570   84.4178   87.5131 C   0  0  0  0  0  0  0  0  0  0  0  0
   70.4534   83.4776   87.2607 C   0  0  0  0  0  0  0  0  0  0  0  0
   66.7904   73.9575   87.6500 C   0  0  0  0  0  0  0  0  0  0  0  0
   66.6584   74.0247   89.0706 O   0  0  0  0  0  0  0  0  0  0  0  0
   69.3436   74.6624   91.5464 C   0  0  0  0  0  0  0  0  0  0  0  0
   68.2963   74.8499   90.6265 C   0  0  0  0  0  0  0  0  0  0  0  0
   67.6837   73.7630   89.9946 C   0  0  0  0  0  0  0  0  0  0  0  0
   68.1163   72.4618   90.2984 C   0  0  0  0  0  0  0  0  0  0  0  0
   69.1405   72.2602   91.2237 C   0  0  0  0  0  0  0  0  0  0  0  0
   69.7467   73.3440   91.8667 C   0  0  0  0  0  0  0  0  0  0  0  0
   70.7129   73.0676   92.8355 O   0  0  0  0  0  0  0  0  0  0  0  0
   70.9524   72.1805   93.0186 H   0  0  0  0  0  0  0  0  0  0  0  0
   71.2436   76.0334   91.9312 O   0  0  0  0  0  0  0  0  0  0  0  0
   70.0096   75.8544   92.1141 C   0  0  0  0  0  0  0  0  0  0  0  0
   69.2987   76.7565   92.9007 O   0  0  0  0  0  0  0  0  0  0  0  0
   68.3810   76.6323   93.0428 H   0  0  0  0  0  0  0  0  0  0  0  0
 31 32  2  0  0  0
 32 33  1  0  0  0
 32 23  1  0  0  0
 23 24  2  0  0  0
 24 25  1  0  0  0
 25 22  1  0  0  0
 22 21  1  0  0  0
 21  1  1  0  0  0
  1  2  2  0  0  0
  2  3  1  0  0  0
  3  4  2  0  0  0
  4  5  1  0  0  0
  5  7  1  0  0  0
  7  8  2  0  0  0
  8  9  2  0  0  0
  9 10  2  0  0  0
 10 11  1  0  0  0
 11 13  1  0  0  0
 13 14  1  0  0  0
 14 15  1  0  0  0
 15 16  2  0  0  0
 16 17  1  0  0  0
 17 18  2  0  0  0
 18 19  1  0  0  0
 19 20  2  0  0  0
 11 12  2  0  0  0
  5  6  2  0  0  0
 25 26  2  0  0  0
 26 27  1  0  0  0
 27 28  2  0  0  0
 28 29  1  0  0  0
 28 23  1  0  0  0
  6  1  1  0  0  0
 12  7  1  0  0  0
 20 15  1  0  0  0
 33 34  1  0  0  0
 29 30  1  0  0  0
M  END
> <score>
0.271496

> <minimizedAffinity>
-8.81026

> <CNNscore>
0.7050135136

> <CNNaffinity>
6.5183420181

> <CNN_VS>
4.5955190659

$$$$
HIPS7003


 34 37  0  0  0  0  0  0  0  0999 V2000
   66.5802   79.6854   91.2051 C   0  0  0  0  0  0  0  0  0  0  0  0
   65.9764   79.1375   90.0637 C   0  0  0  0  0  0  0  0  0  0  0  0
   66.5570   79.3167   88.8072 C   0  0  0  0  0  0  0  0  0  0  0  0
   67.7380   80.0507   88.6767 C   0  0  0  0  0  0  0  0  0  0  0  0
   68.3500   80.6213   89.8062 C   0  0  0  0  0  0  0  0  0  0  0  0
   67.7590   80.4355   91.0689 C   0  0  0  0  0  0  0  0  0  0  0  0
   69.5990   81.4110   89.6676 C   0  0  0  0  0  0  0  0  0  0  0  0
   70.8072   80.9504   90.2158 C   0  0  0  0  0  0  0  0  0  0  0  0
   71.9443   81.6803   90.0782 N   0  0  0  0  0  0  0  0  0  0  0  0
   71.9628   82.8656   89.4148 C   0  0  0  0  0  0  0  0  0  0  0  0
   70.7821   83.3740   88.8467 C   0  0  0  0  0  0  0  0  0  0  0  0
   69.6030   82.6361   88.9811 C   0  0  0  0  0  0  0  0  0  0  0  0
   70.7342   84.5881   88.1427 O   0  0  0  0  0  0  0  0  0  0  0  0
   69.5627   85.3790   87.9408 C   0  0  0  0  0  0  0  0  0  0  0  0
   69.4477   86.4427   88.9994 C   0  0  0  0  0  0  0  0  0  0  0  0
   68.8028   86.1730   90.2182 C   0  0  0  0  0  0  0  0  0  0  0  0
   68.7149   87.1622   91.2027 C   0  0  0  0  0  0  0  0  0  0  0  0
   69.2765   88.4221   90.9812 C   0  0  0  0  0  0  0  0  0  0  0  0
   69.9286   88.6946   89.7756 C   0  0  0  0  0  0  0  0  0  0  0  0
   70.0175   87.7086   88.7882 C   0  0  0  0  0  0  0  0  0  0  0  0
   65.9662   79.4897   92.5658 C   0  0  0  0  0  0  0  0  0  0  0  0
   66.8731   78.8100   93.4352 O   0  0  0  0  0  0  0  0  0  0  0  0
   68.4093   75.4357   93.4551 C   0  0  0  0  0  0  0  0  0  0  0  0
   68.2334   76.8280   93.3608 C   0  0  0  0  0  0  0  0  0  0  0  0
   66.9810   77.4156   93.5663 C   0  0  0  0  0  0  0  0  0  0  0  0
   65.8852   76.5974   93.8865 C   0  0  0  0  0  0  0  0  0  0  0  0
   66.0496   75.2171   94.0027 C   0  0  0  0  0  0  0  0  0  0  0  0
   67.3029   74.6275   93.8102 C   0  0  0  0  0  0  0  0  0  0  0  0
   67.4123   73.2510   94.0148 O   0  0  0  0  0  0  0  0  0  0  0  0
   66.6555   72.7506   94.2491 H   0  0  0  0  0  0  0  0  0  0  0  0
   70.1525   73.8535   93.7640 O   0  0  0  0  0  0  0  0  0  0  0  0
   69.7374   74.8667   93.1402 C   0  0  0  0  0  0  0  0  0  0  0  0
   70.5635   75.4738   92.1985 O   0  0  0  0  0  0  0  0  0  0  0  0
   70.2642   76.2276   91.7293 H   0  0  0  0  0  0  0  0  0  0  0  0
 31 32  2  0  0  0
 32 33  1  0  0  0
 32 23  1  0  0  0
 23 24  2  0  0  0
 24 25  1  0  0  0
 25 22  1  0  0  0
 22 21  1  0  0  0
 21  1  1  0  0  0
  1  2  2  0  0  0
  2  3  1  0  0  0
  3  4  2  0  0  0
  4  5  1  0  0  0
  5  7  1  0  0  0
  7  8  2  0  0  0
  8  9  2  0  0  0
  9 10  2  0  0  0
 10 11  1  0  0  0
 11 13  1  0  0  0
 13 14  1  0  0  0
 14 15  1  0  0  0
 15 16  2  0  0  0
 16 17  1  0  0  0
 17 18  2  0  0  0
 18 19  1  0  0  0
 19 20  2  0  0  0
 11 12  2  0  0  0
  5  6  2  0  0  0
 25 26  2  0  0  0
 26 27  1  0  0  0
 27 28  2  0  0  0
 28 29  1  0  0  0
 28 23  1  0  0  0
  6  1  1  0  0  0
 12  7  1  0  0  0
 20 15  1  0  0  0
 33 34  1  0  0  0
 29 30  1  0  0  0
M  END
> <score>
0.271496

> <minimizedAffinity>
-7.94480

> <CNNscore>
0.6110506058

> <CNNaffinity>
6.2904348373

> <CNN_VS>
3.8437740803

$$$$
HIPS7003


 34 37  0  0  0  0  0  0  0  0999 V2000
   67.3879   77.9312   90.4150 C   0  0  0  0  0  0  0  0  0  0  0  0
   66.9619   76.9495   89.5083 C   0  0  0  0  0  0  0  0  0  0  0  0
   66.7188   77.2829   88.1749 C   0  0  0  0  0  0  0  0  0  0  0  0
   66.8887   78.5980   87.7368 C   0  0  0  0  0  0  0  0  0  0  0  0
   67.2996   79.5996   88.6334 C   0  0  0  0  0  0  0  0  0  0  0  0
   67.5434   79.2554   89.9752 C   0  0  0  0  0  0  0  0  0  0  0  0
   67.4699   80.9999   88.1719 C   0  0  0  0  0  0  0  0  0  0  0  0
   67.5320   81.3045   86.8023 C   0  0  0  0  0  0  0  0  0  0  0  0
   67.6834   82.5906   86.3926 N   0  0  0  0  0  0  0  0  0  0  0  0
   67.7780   83.6201   87.2737 C   0  0  0  0  0  0  0  0  0  0  0  0
   67.7221   83.3724   88.6561 C   0  0  0  0  0  0  0  0  0  0  0  0
   67.5686   82.0543   89.0941 C   0  0  0  0  0  0  0  0  0  0  0  0
   67.8065   84.3912   89.6189 O   0  0  0  0  0  0  0  0  0  0  0  0
   68.8736   84.5571   90.5530 C   0  0  0  0  0  0  0  0  0  0  0  0
   70.2062   84.3591   89.8819 C   0  0  0  0  0  0  0  0  0  0  0  0
   71.0176   83.2605   90.2115 C   0  0  0  0  0  0  0  0  0  0  0  0
   72.2469   83.0753   89.5712 C   0  0  0  0  0  0  0  0  0  0  0  0
   72.6700   83.9790   88.5934 C   0  0  0  0  0  0  0  0  0  0  0  0
   71.8637   85.0684   88.2528 C   0  0  0  0  0  0  0  0  0  0  0  0
   70.6344   85.2578   88.8915 C   0  0  0  0  0  0  0  0  0  0  0  0
   67.6616   77.5794   91.8531 C   0  0  0  0  0  0  0  0  0  0  0  0
   66.6165   76.7603   92.3795 O   0  0  0  0  0  0  0  0  0  0  0  0
   68.1672   74.1631   94.5234 C   0  0  0  0  0  0  0  0  0  0  0  0
   67.9628   75.1230   93.5160 C   0  0  0  0  0  0  0  0  0  0  0  0
   66.7606   75.8318   93.4237 C   0  0  0  0  0  0  0  0  0  0  0  0
   65.7476   75.5868   94.3653 C   0  0  0  0  0  0  0  0  0  0  0  0
   65.9445   74.6518   95.3815 C   0  0  0  0  0  0  0  0  0  0  0  0
   67.1499   73.9504   95.4842 C   0  0  0  0  0  0  0  0  0  0  0  0
   67.3082   73.0849   96.5678 O   0  0  0  0  0  0  0  0  0  0  0  0
   66.6103   72.9713   97.1827 H   0  0  0  0  0  0  0  0  0  0  0  0
   69.6963   72.6170   95.4770 O   0  0  0  0  0  0  0  0  0  0  0  0
   69.4243   73.3843   94.5151 C   0  0  0  0  0  0  0  0  0  0  0  0
   70.3432   73.5326   93.4799 O   0  0  0  0  0  0  0  0  0  0  0  0
   70.1505   74.1007   92.7602 H   0  0  0  0  0  0  0  0  0  0  0  0
 31 32  2  0  0  0
 32 33  1  0  0  0
 32 23  1  0  0  0
 23 24  2  0  0  0
 24 25  1  0  0  0
 25 22  1  0  0  0
 22 21  1  0  0  0
 21  1  1  0  0  0
  1  2  2  0  0  0
  2  3  1  0  0  0
  3  4  2  0  0  0
  4  5  1  0  0  0
  5  7  1  0  0  0
  7  8  2  0  0  0
  8  9  2  0  0  0
  9 10  2  0  0  0
 10 11  1  0  0  0
 11 13  1  0  0  0
 13 14  1  0  0  0
 14 15  1  0  0  0
 15 16  2  0  0  0
 16 17  1  0  0  0
 17 18  2  0  0  0
 18 19  1  0  0  0
 19 20  2  0  0  0
 11 12  2  0  0  0
  5  6  2  0  0  0
 25 26  2  0  0  0
 26 27  1  0  0  0
 27 28  2  0  0  0
 28 29  1  0  0  0
 28 23  1  0  0  0
  6  1  1  0  0  0
 12  7  1  0  0  0
 20 15  1  0  0  0
 33 34  1  0  0  0
 29 30  1  0  0  0
M  END
> <score>
0.271496

> <minimizedAffinity>
-8.43754

> <CNNscore>
0.6075108051

> <CNNaffinity>
6.2541093826

> <CNN_VS>
3.7994389534

$$$$
HIPS7004


 34 37  0  0  0  0  0  0  0  0999 V2000
   67.6845   78.0143   90.3422 C   0  0  0  0  0  0  0  0  0  0  0  0
   67.3183   77.0263   89.4168 C   0  0  0  0  0  0  0  0  0  0  0  0
   67.0406   77.3716   88.0933 C   0  0  0  0  0  0  0  0  0  0  0  0
   67.1199   78.7041   87.6818 C   0  0  0  0  0  0  0  0  0  0  0  0
   67.4808   79.7123   88.5955 C   0  0  0  0  0  0  0  0  0  0  0  0
   67.7470   79.3549   89.9300 C   0  0  0  0  0  0  0  0  0  0  0  0
   67.5600   81.1369   88.1844 C   0  0  0  0  0  0  0  0  0  0  0  0
   67.4309   81.5274   86.8393 C   0  0  0  0  0  0  0  0  0  0  0  0
   67.5240   82.8793   86.5038 C   0  0  0  0  0  0  0  0  0  0  0  0
   67.7490   83.8306   87.4985 C   0  0  0  0  0  0  0  0  0  0  0  0
   67.8833   83.4161   88.8247 C   0  0  0  0  0  0  0  0  0  0  0  0
   67.7870   82.0919   89.1303 N   0  0  0  0  0  0  0  0  0  0  0  0
   68.1181   84.3688   89.8225 O   0  0  0  0  0  0  0  0  0  0  0  0
   69.1771   84.2673   90.7733 C   0  0  0  0  0  0  0  0  0  0  0  0
   70.5002   84.0733   90.0814 C   0  0  0  0  0  0  0  0  0  0  0  0
   71.3611   83.0308   90.4636 C   0  0  0  0  0  0  0  0  0  0  0  0
   72.5885   82.8583   89.8162 C   0  0  0  0  0  0  0  0  0  0  0  0
   72.9681   83.7286   88.7907 C   0  0  0  0  0  0  0  0  0  0  0  0
   72.1210   84.7731   88.4110 C   0  0  0  0  0  0  0  0  0  0  0  0
   70.8925   84.9485   89.0552 C   0  0  0  0  0  0  0  0  0  0  0  0
   67.9693   77.6467   91.7757 C   0  0  0  0  0  0  0  0  0  0  0  0
   66.8593   76.9667   92.3641 O   0  0  0  0  0  0  0  0  0  0  0  0
   68.1642   74.2400   94.5812 C   0  0  0  0  0  0  0  0  0  0  0  0
   68.1161   75.2217   93.5740 C   0  0  0  0  0  0  0  0  0  0  0  0
   66.9459   75.9711   93.3510 C   0  0  0  0  0  0  0  0  0  0  0  0
   65.8176   75.7201   94.1339 C   0  0  0  0  0  0  0  0  0  0  0  0
   65.8560   74.7619   95.1466 C   0  0  0  0  0  0  0  0  0  0  0  0
   67.0243   74.0346   95.3962 C   0  0  0  0  0  0  0  0  0  0  0  0
   67.0222   73.1504   96.4770 O   0  0  0  0  0  0  0  0  0  0  0  0
   66.2472   73.0424   96.9924 H   0  0  0  0  0  0  0  0  0  0  0  0
   69.6122   72.8002   95.7946 O   0  0  0  0  0  0  0  0  0  0  0  0
   69.3956   73.4333   94.7259 C   0  0  0  0  0  0  0  0  0  0  0  0
   70.3518   73.4123   93.7149 O   0  0  0  0  0  0  0  0  0  0  0  0
   70.2003   73.8795   92.9169 H   0  0  0  0  0  0  0  0  0  0  0  0
 31 32  2  0  0  0
 32 33  1  0  0  0
 32 23  1  0  0  0
 23 24  2  0  0  0
 24 25  1  0  0  0
 25 22  1  0  0  0
 22 21  1  0  0  0
 21  1  1  0  0  0
  1  2  2  0  0  0
  2  3  1  0  0  0
  3  4  2  0  0  0
  4  5  1  0  0  0
  5  7  1  0  0  0
  7  8  2  0  0  0
  8  9  1  0  0  0
  9 10  2  0  0  0
 10 11  1  0  0  0
 11 13  1  0  0  0
 13 14  1  0  0  0
 14 15  1  0  0  0
 15 16  2  0  0  0
 16 17  1  0  0  0
 17 18  2  0  0  0
 18 19  1  0  0  0
 19 20  2  0  0  0
 11 12  2  0  0  0
  5  6  2  0  0  0
 25 26  2  0  0  0
 26 27  1  0  0  0
 27 28  2  0  0  0
 28 29  1  0  0  0
 28 23  1  0  0  0
  6  1  1  0  0  0
 12  7  2  0  0  0
 20 15  1  0  0  0
 33 34  1  0  0  0
 29 30  1  0  0  0
M  END
> <score>
-0.9805

> <minimizedAffinity>
-8.67387

> <CNNscore>
0.6096997857

> <CNNaffinity>
6.2352991104

> <CNN_VS>
3.8016605377

$$$$
HIPS7004


 34 37  0  0  0  0  0  0  0  0999 V2000
   68.0194   78.5607   89.5024 C   0  0  0  0  0  0  0  0  0  0  0  0
   66.7496   79.1511   89.5793 C   0  0  0  0  0  0  0  0  0  0  0  0
   66.6235   80.5390   89.6538 C   0  0  0  0  0  0  0  0  0  0  0  0
   67.7608   81.3502   89.6579 C   0  0  0  0  0  0  0  0  0  0  0  0
   69.0450   80.7780   89.5864 C   0  0  0  0  0  0  0  0  0  0  0  0
   69.1612   79.3773   89.5237 C   0  0  0  0  0  0  0  0  0  0  0  0
   70.2687   81.6189   89.6014 C   0  0  0  0  0  0  0  0  0  0  0  0
   71.2754   81.4436   90.5680 C   0  0  0  0  0  0  0  0  0  0  0  0
   72.4017   82.2681   90.5450 C   0  0  0  0  0  0  0  0  0  0  0  0
   72.5198   83.2602   89.5719 C   0  0  0  0  0  0  0  0  0  0  0  0
   71.5021   83.4201   88.6299 C   0  0  0  0  0  0  0  0  0  0  0  0
   70.4125   82.6032   88.6693 N   0  0  0  0  0  0  0  0  0  0  0  0
   71.6153   84.4211   87.6586 O   0  0  0  0  0  0  0  0  0  0  0  0
   70.9210   85.6658   87.7273 C   0  0  0  0  0  0  0  0  0  0  0  0
   69.5652   85.4878   88.3574 C   0  0  0  0  0  0  0  0  0  0  0  0
   69.3661   85.7727   89.7187 C   0  0  0  0  0  0  0  0  0  0  0  0
   68.1038   85.6038   90.2961 C   0  0  0  0  0  0  0  0  0  0  0  0
   67.0355   85.1423   89.5221 C   0  0  0  0  0  0  0  0  0  0  0  0
   67.2279   84.8485   88.1696 C   0  0  0  0  0  0  0  0  0  0  0  0
   68.4883   85.0168   87.5883 C   0  0  0  0  0  0  0  0  0  0  0  0
   68.1593   77.0615   89.4380 C   0  0  0  0  0  0  0  0  0  0  0  0
   68.0141   76.4739   90.7320 O   0  0  0  0  0  0  0  0  0  0  0  0
   69.3686   73.5204   92.6016 C   0  0  0  0  0  0  0  0  0  0  0  0
   69.0230   74.8488   92.2907 C   0  0  0  0  0  0  0  0  0  0  0  0
   68.3852   75.1638   91.0764 C   0  0  0  0  0  0  0  0  0  0  0  0
   68.1091   74.1408   90.1674 C   0  0  0  0  0  0  0  0  0  0  0  0
   68.4307   72.8178   90.4695 C   0  0  0  0  0  0  0  0  0  0  0  0
   69.0361   72.4913   91.6873 C   0  0  0  0  0  0  0  0  0  0  0  0
   69.2564   71.1403   91.9632 O   0  0  0  0  0  0  0  0  0  0  0  0
   69.0223   70.4889   91.3316 H   0  0  0  0  0  0  0  0  0  0  0  0
   70.9858   72.3578   93.8959 O   0  0  0  0  0  0  0  0  0  0  0  0
   70.1005   73.2549   93.8594 C   0  0  0  0  0  0  0  0  0  0  0  0
   69.7808   73.9455   95.0247 O   0  0  0  0  0  0  0  0  0  0  0  0
   69.1244   74.6139   95.0080 H   0  0  0  0  0  0  0  0  0  0  0  0
 31 32  2  0  0  0
 32 33  1  0  0  0
 32 23  1  0  0  0
 23 24  2  0  0  0
 24 25  1  0  0  0
 25 22  1  0  0  0
 22 21  1  0  0  0
 21  1  1  0  0  0
  1  2  2  0  0  0
  2  3  1  0  0  0
  3  4  2  0  0  0
  4  5  1  0  0  0
  5  7  1  0  0  0
  7  8  2  0  0  0
  8  9  1  0  0  0
  9 10  2  0  0  0
 10 11  1  0  0  0
 11 13  1  0  0  0
 13 14  1  0  0  0
 14 15  1  0  0  0
 15 16  2  0  0  0
 16 17  1  0  0  0
 17 18  2  0  0  0
 18 19  1  0  0  0
 19 20  2  0  0  0
 11 12  2  0  0  0
  5  6  2  0  0  0
 25 26  2  0  0  0
 26 27  1  0  0  0
 27 28  2  0  0  0
 28 29  1  0  0  0
 28 23  1  0  0  0
  6  1  1  0  0  0
 12  7  2  0  0  0
 20 15  1  0  0  0
 33 34  1  0  0  0
 29 30  1  0  0  0
M  END
> <score>
-0.9805

> <minimizedAffinity>
-7.99360

> <CNNscore>
0.6012891531

> <CNNaffinity>
6.2216005325

> <CNN_VS>
3.7409808636

$$$$
HIPS7004


 34 37  0  0  0  0  0  0  0  0999 V2000
   68.7561   78.1630   91.1392 C   0  0  0  0  0  0  0  0  0  0  0  0
   69.7089   77.1360   91.0754 C   0  0  0  0  0  0  0  0  0  0  0  0
   71.0069   77.4079   90.6404 C   0  0  0  0  0  0  0  0  0  0  0  0
   71.3652   78.7034   90.2602 C   0  0  0  0  0  0  0  0  0  0  0  0
   70.4231   79.7480   90.3119 C   0  0  0  0  0  0  0  0  0  0  0  0
   69.1142   79.4606   90.7405 C   0  0  0  0  0  0  0  0  0  0  0  0
   70.7771   81.1304   89.9014 C   0  0  0  0  0  0  0  0  0  0  0  0
   71.9769   81.7398   90.3110 C   0  0  0  0  0  0  0  0  0  0  0  0
   72.2577   83.0461   89.9064 C   0  0  0  0  0  0  0  0  0  0  0  0
   71.3490   83.7388   89.1066 C   0  0  0  0  0  0  0  0  0  0  0  0
   70.1609   83.1149   88.7220 C   0  0  0  0  0  0  0  0  0  0  0  0
   69.9079   81.8388   89.1263 N   0  0  0  0  0  0  0  0  0  0  0  0
   69.2443   83.8122   87.9270 O   0  0  0  0  0  0  0  0  0  0  0  0
   68.2217   84.6532   88.4591 C   0  0  0  0  0  0  0  0  0  0  0  0
   68.8028   85.9468   88.9652 C   0  0  0  0  0  0  0  0  0  0  0  0
   68.6172   86.3399   90.3013 C   0  0  0  0  0  0  0  0  0  0  0  0
   69.1596   87.5433   90.7628 C   0  0  0  0  0  0  0  0  0  0  0  0
   69.8822   88.3650   89.8935 C   0  0  0  0  0  0  0  0  0  0  0  0
   70.0634   87.9850   88.5611 C   0  0  0  0  0  0  0  0  0  0  0  0
   69.5235   86.7820   88.0958 C   0  0  0  0  0  0  0  0  0  0  0  0
   67.3494   77.8693   91.5933 C   0  0  0  0  0  0  0  0  0  0  0  0
   67.1013   76.4629   91.6267 O   0  0  0  0  0  0  0  0  0  0  0  0
   68.2771   74.1452   94.3284 C   0  0  0  0  0  0  0  0  0  0  0  0
   68.2798   74.9318   93.1614 C   0  0  0  0  0  0  0  0  0  0  0  0
   67.1372   75.6581   92.7772 C   0  0  0  0  0  0  0  0  0  0  0  0
   65.9852   75.5794   93.5619 C   0  0  0  0  0  0  0  0  0  0  0  0
   65.9734   74.8172   94.7298 C   0  0  0  0  0  0  0  0  0  0  0  0
   67.1142   74.1174   95.1362 C   0  0  0  0  0  0  0  0  0  0  0  0
   67.0625   73.4412   96.3569 O   0  0  0  0  0  0  0  0  0  0  0  0
   66.2736   73.4465   96.8624 H   0  0  0  0  0  0  0  0  0  0  0  0
   70.3810   73.1897   93.7785 O   0  0  0  0  0  0  0  0  0  0  0  0
   69.4809   73.3470   94.6474 C   0  0  0  0  0  0  0  0  0  0  0  0
   69.6055   72.7145   95.8809 O   0  0  0  0  0  0  0  0  0  0  0  0
   68.9420   72.8252   96.5332 H   0  0  0  0  0  0  0  0  0  0  0  0
 31 32  2  0  0  0
 32 33  1  0  0  0
 32 23  1  0  0  0
 23 24  2  0  0  0
 24 25  1  0  0  0
 25 22  1  0  0  0
 22 21  1  0  0  0
 21  1  1  0  0  0
  1  2  2  0  0  0
  2  3  1  0  0  0
  3  4  2  0  0  0
  4  5  1  0  0  0
  5  7  1  0  0  0
  7  8  2  0  0  0
  8  9  1  0  0  0
  9 10  2  0  0  0
 10 11  1  0  0  0
 11 13  1  0  0  0
 13 14  1  0  0  0
 14 15  1  0  0  0
 15 16  2  0  0  0
 16 17  1  0  0  0
 17 18  2  0  0  0
 18 19  1  0  0  0
 19 20  2  0  0  0
 11 12  2  0  0  0
  5  6  2  0  0  0
 25 26  2  0  0  0
 26 27  1  0  0  0
 27 28  2  0  0  0
 28 29  1  0  0  0
 28 23  1  0  0  0
  6  1  1  0  0  0
 12  7  2  0  0  0
 20 15  1  0  0  0
 33 34  1  0  0  0
 29 30  1  0  0  0
M  END
> <score>
-0.9805

> <minimizedAffinity>
-8.77800

> <CNNscore>
0.5883072019

> <CNNaffinity>
6.0572052002

> <CNN_VS>
3.5634975433

$$$$
HIPS7005


 35 38  0  0  0  0  0  0  0  0999 V2000
   66.8894   79.1365   91.9372 C   0  0  0  0  0  0  0  0  0  0  0  0
   65.7607   79.8089   92.4329 C   0  0  0  0  0  0  0  0  0  0  0  0
   65.0380   79.2753   93.5030 C   0  0  0  0  0  0  0  0  0  0  0  0
   65.4303   78.0649   94.0815 C   0  0  0  0  0  0  0  0  0  0  0  0
   66.5465   77.3696   93.5854 C   0  0  0  0  0  0  0  0  0  0  0  0
   67.2686   77.9115   92.5080 C   0  0  0  0  0  0  0  0  0  0  0  0
   66.9684   76.0882   94.1963 C   0  0  0  0  0  0  0  0  0  0  0  0
   66.0965   75.3838   95.0426 C   0  0  0  0  0  0  0  0  0  0  0  0
   66.4964   74.1763   95.6195 C   0  0  0  0  0  0  0  0  0  0  0  0
   67.7599   73.6501   95.3421 C   0  0  0  0  0  0  0  0  0  0  0  0
   68.6342   74.3256   94.4845 C   0  0  0  0  0  0  0  0  0  0  0  0
   68.2439   75.5598   93.9335 C   0  0  0  0  0  0  0  0  0  0  0  0
   69.8972   73.7692   94.2328 O   0  0  0  0  0  0  0  0  0  0  0  0
   70.1326   72.5335   93.6116 C   0  0  0  0  0  0  0  0  0  0  0  0
   69.6631   72.2476   92.3153 C   0  0  0  0  0  0  0  0  0  0  0  0
   69.9014   70.9954   91.7408 C   0  0  0  0  0  0  0  0  0  0  0  0
   70.5995   70.0130   92.4580 C   0  0  0  0  0  0  0  0  0  0  0  0
   70.8410   68.7608   91.8980 O   0  0  0  0  0  0  0  0  0  0  0  0
   71.0477   70.2875   93.7546 C   0  0  0  0  0  0  0  0  0  0  0  0
   70.8080   71.5381   94.3320 C   0  0  0  0  0  0  0  0  0  0  0  0
   70.5435   68.5705   91.0301 H   0  0  0  0  0  0  0  0  0  0  0  0
   67.7068   79.7248   90.8176 C   0  0  0  0  0  0  0  0  0  0  0  0
   66.8539   80.2160   89.7820 O   0  0  0  0  0  0  0  0  0  0  0  0
   67.6931   83.5937   88.5041 C   0  0  0  0  0  0  0  0  0  0  0  0
   67.3688   82.5284   89.3626 C   0  0  0  0  0  0  0  0  0  0  0  0
   67.1873   81.2311   88.8713 C   0  0  0  0  0  0  0  0  0  0  0  0
   67.3486   80.9908   87.4969 C   0  0  0  0  0  0  0  0  0  0  0  0
   67.6571   82.0406   86.6308 C   0  0  0  0  0  0  0  0  0  0  0  0
   67.8061   83.3451   87.1131 C   0  0  0  0  0  0  0  0  0  0  0  0
   68.0275   84.3606   86.1805 O   0  0  0  0  0  0  0  0  0  0  0  0
   68.0961   84.1531   85.2693 H   0  0  0  0  0  0  0  0  0  0  0  0
   67.3911   85.2377   90.2031 O   0  0  0  0  0  0  0  0  0  0  0  0
   67.9135   84.9301   89.0984 C   0  0  0  0  0  0  0  0  0  0  0  0
   68.6551   85.8836   88.4044 O   0  0  0  0  0  0  0  0  0  0  0  0
   69.0475   85.6645   87.5822 H   0  0  0  0  0  0  0  0  0  0  0  0
 32 33  2  0  0  0
 33 34  1  0  0  0
 33 24  1  0  0  0
 24 25  2  0  0  0
 25 26  1  0  0  0
 26 23  1  0  0  0
 23 22  1  0  0  0
 22  1  1  0  0  0
  1  2  2  0  0  0
  2  3  1  0  0  0
  3  4  2  0  0  0
  4  5  1  0  0  0
  5  7  1  0  0  0
  7  8  2  0  0  0
  8  9  1  0  0  0
  9 10  2  0  0  0
 10 11  1  0  0  0
 11 13  1  0  0  0
 13 14  1  0  0  0
 14 15  2  0  0  0
 15 16  1  0  0  0
 16 17  2  0  0  0
 17 18  1  0  0  0
 17 19  1  0  0  0
 19 20  2  0  0  0
 11 12  2  0  0  0
  5  6  2  0  0  0
 26 27  2  0  0  0
 27 28  1  0  0  0
 28 29  2  0  0  0
 29 30  1  0  0  0
 29 24  1  0  0  0
  6  1  1  0  0  0
 12  7  1  0  0  0
 20 14  1  0  0  0
 34 35  1  0  0  0
 18 21  1  0  0  0
 30 31  1  0  0  0
M  END
> <score>
-0.73298

> <minimizedAffinity>
-8.42864

> <CNNscore>
0.5987755060

> <CNNaffinity>
6.0036678314

> <CNN_VS>
3.5948493481

$$$$
HIPS7005


 35 38  0  0  0  0  0  0  0  0999 V2000
   66.7709   79.0480   91.8190 C   0  0  0  0  0  0  0  0  0  0  0  0
   65.6954   79.7655   92.3669 C   0  0  0  0  0  0  0  0  0  0  0  0
   65.0372   79.2877   93.5029 C   0  0  0  0  0  0  0  0  0  0  0  0
   65.4411   78.0883   94.0964 C   0  0  0  0  0  0  0  0  0  0  0  0
   66.5037   77.3482   93.5498 C   0  0  0  0  0  0  0  0  0  0  0  0
   67.1609   77.8341   92.4062 C   0  0  0  0  0  0  0  0  0  0  0  0
   66.9377   76.0783   94.1761 C   0  0  0  0  0  0  0  0  0  0  0  0
   66.0756   75.3802   95.0374 C   0  0  0  0  0  0  0  0  0  0  0  0
   66.4871   74.1836   95.6288 C   0  0  0  0  0  0  0  0  0  0  0  0
   67.7523   73.6620   95.3511 C   0  0  0  0  0  0  0  0  0  0  0  0
   68.6169   74.3311   94.4788 C   0  0  0  0  0  0  0  0  0  0  0  0
   68.2151   75.5547   93.9129 C   0  0  0  0  0  0  0  0  0  0  0  0
   69.8821   73.7795   94.2273 O   0  0  0  0  0  0  0  0  0  0  0  0
   70.1281   72.6091   93.4938 C   0  0  0  0  0  0  0  0  0  0  0  0
   69.4407   72.3173   92.3000 C   0  0  0  0  0  0  0  0  0  0  0  0
   69.7009   71.1291   91.6106 C   0  0  0  0  0  0  0  0  0  0  0  0
   70.6400   70.2158   92.1113 C   0  0  0  0  0  0  0  0  0  0  0  0
   70.9063   69.0274   91.4353 O   0  0  0  0  0  0  0  0  0  0  0  0
   71.3081   70.4936   93.3087 C   0  0  0  0  0  0  0  0  0  0  0  0
   71.0473   71.6798   94.0011 C   0  0  0  0  0  0  0  0  0  0  0  0
   70.4623   68.8352   90.6329 H   0  0  0  0  0  0  0  0  0  0  0  0
   67.5213   79.5763   90.6251 C   0  0  0  0  0  0  0  0  0  0  0  0
   66.7547   79.3940   89.4333 O   0  0  0  0  0  0  0  0  0  0  0  0
   67.7520   77.4426   86.4428 C   0  0  0  0  0  0  0  0  0  0  0  0
   67.6036   78.4860   87.3735 C   0  0  0  0  0  0  0  0  0  0  0  0
   66.8725   78.3070   88.5528 C   0  0  0  0  0  0  0  0  0  0  0  0
   66.2913   77.0554   88.8145 C   0  0  0  0  0  0  0  0  0  0  0  0
   66.4186   76.0145   87.8938 C   0  0  0  0  0  0  0  0  0  0  0  0
   67.1202   76.1995   86.6979 C   0  0  0  0  0  0  0  0  0  0  0  0
   67.1337   75.1443   85.7834 O   0  0  0  0  0  0  0  0  0  0  0  0
   66.7034   74.3384   85.9915 H   0  0  0  0  0  0  0  0  0  0  0  0
   68.2569   78.5875   84.4143 O   0  0  0  0  0  0  0  0  0  0  0  0
   68.5751   77.6894   85.2390 C   0  0  0  0  0  0  0  0  0  0  0  0
   69.6803   76.8825   84.9776 O   0  0  0  0  0  0  0  0  0  0  0  0
   69.9249   76.2120   85.5847 H   0  0  0  0  0  0  0  0  0  0  0  0
 32 33  2  0  0  0
 33 34  1  0  0  0
 33 24  1  0  0  0
 24 25  2  0  0  0
 25 26  1  0  0  0
 26 23  1  0  0  0
 23 22  1  0  0  0
 22  1  1  0  0  0
  1  2  2  0  0  0
  2  3  1  0  0  0
  3  4  2  0  0  0
  4  5  1  0  0  0
  5  7  1  0  0  0
  7  8  2  0  0  0
  8  9  1  0  0  0
  9 10  2  0  0  0
 10 11  1  0  0  0
 11 13  1  0  0  0
 13 14  1  0  0  0
 14 15  2  0  0  0
 15 16  1  0  0  0
 16 17  2  0  0  0
 17 18  1  0  0  0
 17 19  1  0  0  0
 19 20  2  0  0  0
 11 12  2  0  0  0
  5  6  2  0  0  0
 26 27  2  0  0  0
 27 28  1  0  0  0
 28 29  2  0  0  0
 29 30  1  0  0  0
 29 24  1  0  0  0
  6  1  1  0  0  0
 12  7  1  0  0  0
 20 14  1  0  0  0
 34 35  1  0  0  0
 18 21  1  0  0  0
 30 31  1  0  0  0
M  END
> <score>
-0.73298

> <minimizedAffinity>
-8.21979

> <CNNscore>
0.4975347221

> <CNNaffinity>
6.1572198868

> <CNN_VS>
3.0634307861

$$$$
HIPS7005


 35 38  0  0  0  0  0  0  0  0999 V2000
   68.8300   77.4893   90.5108 C   0  0  0  0  0  0  0  0  0  0  0  0
   70.2258   77.3365   90.5120 C   0  0  0  0  0  0  0  0  0  0  0  0
   71.0552   78.4509   90.3630 C   0  0  0  0  0  0  0  0  0  0  0  0
   70.4998   79.7238   90.2044 C   0  0  0  0  0  0  0  0  0  0  0  0
   69.1045   79.8919   90.1822 C   0  0  0  0  0  0  0  0  0  0  0  0
   68.2758   78.7664   90.3317 C   0  0  0  0  0  0  0  0  0  0  0  0
   68.5106   81.2385   90.0174 C   0  0  0  0  0  0  0  0  0  0  0  0
   67.4825   81.6706   90.8710 C   0  0  0  0  0  0  0  0  0  0  0  0
   66.9221   82.9402   90.7132 C   0  0  0  0  0  0  0  0  0  0  0  0
   67.3949   83.7975   89.7174 C   0  0  0  0  0  0  0  0  0  0  0  0
   68.4330   83.3938   88.8715 C   0  0  0  0  0  0  0  0  0  0  0  0
   68.9712   82.1012   89.0080 C   0  0  0  0  0  0  0  0  0  0  0  0
   68.8789   84.2800   87.8795 O   0  0  0  0  0  0  0  0  0  0  0  0
   69.9715   85.1518   87.9990 C   0  0  0  0  0  0  0  0  0  0  0  0
   71.2936   84.7296   87.7614 C   0  0  0  0  0  0  0  0  0  0  0  0
   72.3564   85.6255   87.9123 C   0  0  0  0  0  0  0  0  0  0  0  0
   72.1117   86.9470   88.3128 C   0  0  0  0  0  0  0  0  0  0  0  0
   73.1619   87.8485   88.4693 O   0  0  0  0  0  0  0  0  0  0  0  0
   70.8009   87.3627   88.5706 C   0  0  0  0  0  0  0  0  0  0  0  0
   69.7371   86.4675   88.4231 C   0  0  0  0  0  0  0  0  0  0  0  0
   74.0421   87.5765   88.2983 H   0  0  0  0  0  0  0  0  0  0  0  0
   67.9249   76.3041   90.7206 C   0  0  0  0  0  0  0  0  0  0  0  0
   67.0643   76.5256   91.8394 O   0  0  0  0  0  0  0  0  0  0  0  0
   68.1797   74.1348   94.4445 C   0  0  0  0  0  0  0  0  0  0  0  0
   68.1477   74.9494   93.2988 C   0  0  0  0  0  0  0  0  0  0  0  0
   67.0346   75.7446   93.0056 C   0  0  0  0  0  0  0  0  0  0  0  0
   65.9379   75.7373   93.8831 C   0  0  0  0  0  0  0  0  0  0  0  0
   65.9497   74.9238   95.0168 C   0  0  0  0  0  0  0  0  0  0  0  0
   67.0466   74.1019   95.2958 C   0  0  0  0  0  0  0  0  0  0  0  0
   66.9552   73.2492   96.3979 O   0  0  0  0  0  0  0  0  0  0  0  0
   66.1879   73.2590   96.9354 H   0  0  0  0  0  0  0  0  0  0  0  0
   69.5678   72.7706   95.8202 O   0  0  0  0  0  0  0  0  0  0  0  0
   69.4066   73.3544   94.7151 C   0  0  0  0  0  0  0  0  0  0  0  0
   70.4248   73.3120   93.7652 O   0  0  0  0  0  0  0  0  0  0  0  0
   70.3144   73.7430   92.9405 H   0  0  0  0  0  0  0  0  0  0  0  0
 32 33  2  0  0  0
 33 34  1  0  0  0
 33 24  1  0  0  0
 24 25  2  0  0  0
 25 26  1  0  0  0
 26 23  1  0  0  0
 23 22  1  0  0  0
 22  1  1  0  0  0
  1  2  2  0  0  0
  2  3  1  0  0  0
  3  4  2  0  0  0
  4  5  1  0  0  0
  5  7  1  0  0  0
  7  8  2  0  0  0
  8  9  1  0  0  0
  9 10  2  0  0  0
 10 11  1  0  0  0
 11 13  1  0  0  0
 13 14  1  0  0  0
 14 15  2  0  0  0
 15 16  1  0  0  0
 16 17  2  0  0  0
 17 18  1  0  0  0
 17 19  1  0  0  0
 19 20  2  0  0  0
 11 12  2  0  0  0
  5  6  2  0  0  0
 26 27  2  0  0  0
 27 28  1  0  0  0
 28 29  2  0  0  0
 29 30  1  0  0  0
 29 24  1  0  0  0
  6  1  1  0  0  0
 12  7  1  0  0  0
 20 14  1  0  0  0
 34 35  1  0  0  0
 18 21  1  0  0  0
 30 31  1  0  0  0
M  END
> <score>
-0.73298

> <minimizedAffinity>
-9.08908

> <CNNscore>
0.4530795813

> <CNNaffinity>
6.0445585251

> <CNN_VS>
2.7386660576

$$$$
HIPS7006


 36 39  0  0  0  0  0  0  0  0999 V2000
   68.2454   74.2970   95.1408 C   0  0  0  0  0  0  0  0  0  0  0  0
   67.2353   73.5783   95.7994 C   0  0  0  0  0  0  0  0  0  0  0  0
   65.9122   74.0188   95.7484 C   0  0  0  0  0  0  0  0  0  0  0  0
   65.5874   75.1920   95.0641 C   0  0  0  0  0  0  0  0  0  0  0  0
   66.5892   75.9507   94.4311 C   0  0  0  0  0  0  0  0  0  0  0  0
   67.9197   75.4926   94.4801 C   0  0  0  0  0  0  0  0  0  0  0  0
   66.2516   77.2251   93.7401 C   0  0  0  0  0  0  0  0  0  0  0  0
   65.2269   78.0531   94.2345 C   0  0  0  0  0  0  0  0  0  0  0  0
   64.9173   79.2550   93.5963 C   0  0  0  0  0  0  0  0  0  0  0  0
   65.6296   79.6522   92.4648 C   0  0  0  0  0  0  0  0  0  0  0  0
   66.6585   78.8534   91.9566 C   0  0  0  0  0  0  0  0  0  0  0  0
   66.9614   77.6328   92.5927 C   0  0  0  0  0  0  0  0  0  0  0  0
   67.3540   79.3145   90.8272 O   0  0  0  0  0  0  0  0  0  0  0  0
   67.9374   78.4879   89.8193 C   0  0  0  0  0  0  0  0  0  0  0  0
   69.3173   78.0314   90.2146 C   0  0  0  0  0  0  0  0  0  0  0  0
   69.4775   76.9195   91.0575 C   0  0  0  0  0  0  0  0  0  0  0  0
   70.7532   76.5290   91.4751 C   0  0  0  0  0  0  0  0  0  0  0  0
   71.8819   77.2453   91.0548 C   0  0  0  0  0  0  0  0  0  0  0  0
   73.1586   76.8631   91.4600 O   0  0  0  0  0  0  0  0  0  0  0  0
   71.7263   78.3594   90.2243 C   0  0  0  0  0  0  0  0  0  0  0  0
   70.4509   78.7589   89.8146 C   0  0  0  0  0  0  0  0  0  0  0  0
   73.2699   76.1175   92.0165 H   0  0  0  0  0  0  0  0  0  0  0  0
   69.6813   73.8360   95.1865 C   0  0  0  0  0  0  0  0  0  0  0  0
   70.2288   73.6631   93.8779 O   0  0  0  0  0  0  0  0  0  0  0  0
   71.0591   70.1626   92.8252 C   0  0  0  0  0  0  0  0  0  0  0  0
   71.0271   71.3456   93.5859 C   0  0  0  0  0  0  0  0  0  0  0  0
   70.2688   72.4538   93.1640 C   0  0  0  0  0  0  0  0  0  0  0  0
   69.5249   72.3610   91.9858 C   0  0  0  0  0  0  0  0  0  0  0  0
   69.5493   71.1944   91.2216 C   0  0  0  0  0  0  0  0  0  0  0  0
   70.3268   70.1007   91.6153 C   0  0  0  0  0  0  0  0  0  0  0  0
   70.3732   68.9940   90.7649 O   0  0  0  0  0  0  0  0  0  0  0  0
   69.8736   68.9910   89.9722 H   0  0  0  0  0  0  0  0  0  0  0  0
   71.7040   68.6352   94.5222 O   0  0  0  0  0  0  0  0  0  0  0  0
   71.8450   69.0181   93.3294 C   0  0  0  0  0  0  0  0  0  0  0  0
   72.7056   68.3243   92.4838 O   0  0  0  0  0  0  0  0  0  0  0  0
   72.8156   68.6030   91.5960 H   0  0  0  0  0  0  0  0  0  0  0  0
 33 34  2  0  0  0
 34 35  1  0  0  0
 34 25  1  0  0  0
 25 26  2  0  0  0
 26 27  1  0  0  0
 27 24  1  0  0  0
 24 23  1  0  0  0
 23  1  1  0  0  0
  1  2  2  0  0  0
  2  3  1  0  0  0
  3  4  2  0  0  0
  4  5  1  0  0  0
  5  7  1  0  0  0
  7  8  2  0  0  0
  8  9  1  0  0  0
  9 10  2  0  0  0
 10 11  1  0  0  0
 11 13  1  0  0  0
 13 14  1  0  0  0
 14 15  1  0  0  0
 15 16  2  0  0  0
 16 17  1  0  0  0
 17 18  2  0  0  0
 18 19  1  0  0  0
 18 20  1  0  0  0
 20 21  2  0  0  0
 11 12  2  0  0  0
  5  6  2  0  0  0
 27 28  2  0  0  0
 28 29  1  0  0  0
 29 30  2  0  0  0
 30 31  1  0  0  0
 30 25  1  0  0  0
  6  1  1  0  0  0
 12  7  1  0  0  0
 21 15  1  0  0  0
 35 36  1  0  0  0
 19 22  1  0  0  0
 31 32  1  0  0  0
M  END
> <score>
-1.116919

> <minimizedAffinity>
-8.85716

> <CNNscore>
0.7382545471

> <CNNaffinity>
6.5908069611

> <CNN_VS>
4.8656930923

$$$$
HIPS7006


 36 39  0  0  0  0  0  0  0  0999 V2000
   67.0557   75.4344   86.9102 C   0  0  0  0  0  0  0  0  0  0  0  0
   67.4398   75.6168   85.5725 C   0  0  0  0  0  0  0  0  0  0  0  0
   67.7121   76.8967   85.0879 C   0  0  0  0  0  0  0  0  0  0  0  0
   67.5789   78.0080   85.9230 C   0  0  0  0  0  0  0  0  0  0  0  0
   67.1558   77.8535   87.2560 C   0  0  0  0  0  0  0  0  0  0  0  0
   66.8929   76.5570   87.7382 C   0  0  0  0  0  0  0  0  0  0  0  0
   66.9695   79.0407   88.1343 C   0  0  0  0  0  0  0  0  0  0  0  0
   66.4471   78.8909   89.4323 C   0  0  0  0  0  0  0  0  0  0  0  0
   66.2838   80.0005   90.2627 C   0  0  0  0  0  0  0  0  0  0  0  0
   66.6471   81.2708   89.8155 C   0  0  0  0  0  0  0  0  0  0  0  0
   67.1766   81.4480   88.5336 C   0  0  0  0  0  0  0  0  0  0  0  0
   67.3280   80.3292   87.6900 C   0  0  0  0  0  0  0  0  0  0  0  0
   67.5432   82.7469   88.1460 O   0  0  0  0  0  0  0  0  0  0  0  0
   68.1190   83.7349   89.0015 C   0  0  0  0  0  0  0  0  0  0  0  0
   69.5862   83.4790   89.2262 C   0  0  0  0  0  0  0  0  0  0  0  0
   70.0243   82.8951   90.4259 C   0  0  0  0  0  0  0  0  0  0  0  0
   71.3896   82.7110   90.6633 C   0  0  0  0  0  0  0  0  0  0  0  0
   72.3311   83.1082   89.7045 C   0  0  0  0  0  0  0  0  0  0  0  0
   73.6939   82.9254   89.9272 O   0  0  0  0  0  0  0  0  0  0  0  0
   71.9000   83.6998   88.5131 C   0  0  0  0  0  0  0  0  0  0  0  0
   70.5359   83.8956   88.2781 C   0  0  0  0  0  0  0  0  0  0  0  0
   73.9895   82.5296   90.7234 H   0  0  0  0  0  0  0  0  0  0  0  0
   66.7562   74.0579   87.4506 C   0  0  0  0  0  0  0  0  0  0  0  0
   66.5846   74.0666   88.8694 O   0  0  0  0  0  0  0  0  0  0  0  0
   69.3413   74.5997   91.3527 C   0  0  0  0  0  0  0  0  0  0  0  0
   68.3157   74.8779   90.4309 C   0  0  0  0  0  0  0  0  0  0  0  0
   67.5979   73.8357   89.8146 C   0  0  0  0  0  0  0  0  0  0  0  0
   67.8998   72.5129   90.1449 C   0  0  0  0  0  0  0  0  0  0  0  0
   68.9155   72.2235   91.0561 C   0  0  0  0  0  0  0  0  0  0  0  0
   69.6566   73.2514   91.6474 C   0  0  0  0  0  0  0  0  0  0  0  0
   70.7134   72.8933   92.4872 O   0  0  0  0  0  0  0  0  0  0  0  0
   70.8905   71.9892   92.6579 H   0  0  0  0  0  0  0  0  0  0  0  0
   70.3591   75.6634   93.2132 O   0  0  0  0  0  0  0  0  0  0  0  0
   70.0416   75.7306   91.9950 C   0  0  0  0  0  0  0  0  0  0  0  0
   70.3999   76.8528   91.2539 O   0  0  0  0  0  0  0  0  0  0  0  0
   70.1674   76.9098   90.3480 H   0  0  0  0  0  0  0  0  0  0  0  0
 33 34  2  0  0  0
 34 35  1  0  0  0
 34 25  1  0  0  0
 25 26  2  0  0  0
 26 27  1  0  0  0
 27 24  1  0  0  0
 24 23  1  0  0  0
 23  1  1  0  0  0
  1  2  2  0  0  0
  2  3  1  0  0  0
  3  4  2  0  0  0
  4  5  1  0  0  0
  5  7  1  0  0  0
  7  8  2  0  0  0
  8  9  1  0  0  0
  9 10  2  0  0  0
 10 11  1  0  0  0
 11 13  1  0  0  0
 13 14  1  0  0  0
 14 15  1  0  0  0
 15 16  2  0  0  0
 16 17  1  0  0  0
 17 18  2  0  0  0
 18 19  1  0  0  0
 18 20  1  0  0  0
 20 21  2  0  0  0
 11 12  2  0  0  0
  5  6  2  0  0  0
 27 28  2  0  0  0
 28 29  1  0  0  0
 29 30  2  0  0  0
 30 31  1  0  0  0
 30 25  1  0  0  0
  6  1  1  0  0  0
 12  7  1  0  0  0
 21 15  1  0  0  0
 35 36  1  0  0  0
 19 22  1  0  0  0
 31 32  1  0  0  0
M  END
> <score>
-1.116919

> <minimizedAffinity>
-8.68096

> <CNNscore>
0.6124129891

> <CNNaffinity>
6.4597024918

> <CNN_VS>
3.9560058117

$$$$
HIPS7006


 36 39  0  0  0  0  0  0  0  0999 V2000
   67.5535   77.5091   89.9712 C   0  0  0  0  0  0  0  0  0  0  0  0
   66.7989   77.6555   88.7966 C   0  0  0  0  0  0  0  0  0  0  0  0
   66.8170   78.8619   88.0957 C   0  0  0  0  0  0  0  0  0  0  0  0
   67.5648   79.9409   88.5718 C   0  0  0  0  0  0  0  0  0  0  0  0
   68.2964   79.8305   89.7687 C   0  0  0  0  0  0  0  0  0  0  0  0
   68.2794   78.6059   90.4634 C   0  0  0  0  0  0  0  0  0  0  0  0
   69.0574   80.9935   90.3016 C   0  0  0  0  0  0  0  0  0  0  0  0
   68.4073   81.9787   91.0676 C   0  0  0  0  0  0  0  0  0  0  0  0
   69.1210   83.0632   91.5798 C   0  0  0  0  0  0  0  0  0  0  0  0
   70.4912   83.1753   91.3442 C   0  0  0  0  0  0  0  0  0  0  0  0
   71.1645   82.2067   90.5937 C   0  0  0  0  0  0  0  0  0  0  0  0
   70.4409   81.1192   90.0645 C   0  0  0  0  0  0  0  0  0  0  0  0
   72.5476   82.3619   90.4068 O   0  0  0  0  0  0  0  0  0  0  0  0
   73.1633   83.2863   89.5090 C   0  0  0  0  0  0  0  0  0  0  0  0
   72.1364   84.0196   88.6865 C   0  0  0  0  0  0  0  0  0  0  0  0
   71.4637   83.3583   87.6460 C   0  0  0  0  0  0  0  0  0  0  0  0
   70.5541   84.0513   86.8418 C   0  0  0  0  0  0  0  0  0  0  0  0
   70.3072   85.4119   87.0690 C   0  0  0  0  0  0  0  0  0  0  0  0
   69.3994   86.1119   86.2777 O   0  0  0  0  0  0  0  0  0  0  0  0
   70.9827   86.0768   88.0969 C   0  0  0  0  0  0  0  0  0  0  0  0
   71.9014   85.3890   88.8952 C   0  0  0  0  0  0  0  0  0  0  0  0
   68.9434   85.6724   85.5872 H   0  0  0  0  0  0  0  0  0  0  0  0
   67.5447   76.2124   90.7425 C   0  0  0  0  0  0  0  0  0  0  0  0
   66.7353   76.2950   91.9173 O   0  0  0  0  0  0  0  0  0  0  0  0
   68.2178   74.0262   94.5067 C   0  0  0  0  0  0  0  0  0  0  0  0
   68.0797   74.7773   93.3253 C   0  0  0  0  0  0  0  0  0  0  0  0
   66.9269   75.5510   93.0935 C   0  0  0  0  0  0  0  0  0  0  0  0
   65.9230   75.5846   94.0636 C   0  0  0  0  0  0  0  0  0  0  0  0
   66.0469   74.8432   95.2385 C   0  0  0  0  0  0  0  0  0  0  0  0
   67.1732   74.0449   95.4620 C   0  0  0  0  0  0  0  0  0  0  0  0
   67.1992   73.2635   96.6191 O   0  0  0  0  0  0  0  0  0  0  0  0
   66.4880   73.3039   97.2278 H   0  0  0  0  0  0  0  0  0  0  0  0
   70.4096   73.3592   93.8904 O   0  0  0  0  0  0  0  0  0  0  0  0
   69.4615   73.2570   94.7150 C   0  0  0  0  0  0  0  0  0  0  0  0
   69.6169   72.4561   95.8426 O   0  0  0  0  0  0  0  0  0  0  0  0
   68.9166   72.3753   96.4599 H   0  0  0  0  0  0  0  0  0  0  0  0
 33 34  2  0  0  0
 34 35  1  0  0  0
 34 25  1  0  0  0
 25 26  2  0  0  0
 26 27  1  0  0  0
 27 24  1  0  0  0
 24 23  1  0  0  0
 23  1  1  0  0  0
  1  2  2  0  0  0
  2  3  1  0  0  0
  3  4  2  0  0  0
  4  5  1  0  0  0
  5  7  1  0  0  0
  7  8  2  0  0  0
  8  9  1  0  0  0
  9 10  2  0  0  0
 10 11  1  0  0  0
 11 13  1  0  0  0
 13 14  1  0  0  0
 14 15  1  0  0  0
 15 16  2  0  0  0
 16 17  1  0  0  0
 17 18  2  0  0  0
 18 19  1  0  0  0
 18 20  1  0  0  0
 20 21  2  0  0  0
 11 12  2  0  0  0
  5  6  2  0  0  0
 27 28  2  0  0  0
 28 29  1  0  0  0
 29 30  2  0  0  0
 30 31  1  0  0  0
 30 25  1  0  0  0
  6  1  1  0  0  0
 12  7  1  0  0  0
 21 15  1  0  0  0
 35 36  1  0  0  0
 19 22  1  0  0  0
 31 32  1  0  0  0
M  END
> <score>
-1.116919

> <minimizedAffinity>
-8.85903

> <CNNscore>
0.6100103259

> <CNNaffinity>
6.2389240265

> <CNN_VS>
3.8058080673

$$$$
HIPS7007


 34 37  0  0  0  0  0  0  0  0999 V2000
   66.7532   74.5883   87.9501 C   0  0  0  0  0  0  0  0  0  0  0  0
   66.9575   74.2957   86.5954 C   0  0  0  0  0  0  0  0  0  0  0  0
   67.1349   75.3001   85.6979 N   0  0  0  0  0  0  0  0  0  0  0  0
   67.1287   76.6067   86.0715 C   0  0  0  0  0  0  0  0  0  0  0  0
   66.9398   76.9578   87.4180 C   0  0  0  0  0  0  0  0  0  0  0  0
   66.7700   75.9291   88.3584 C   0  0  0  0  0  0  0  0  0  0  0  0
   66.8952   78.3810   87.8364 C   0  0  0  0  0  0  0  0  0  0  0  0
   67.1854   79.4074   86.9215 C   0  0  0  0  0  0  0  0  0  0  0  0
   67.1387   80.7442   87.3234 C   0  0  0  0  0  0  0  0  0  0  0  0
   66.7943   81.0714   88.6365 C   0  0  0  0  0  0  0  0  0  0  0  0
   66.4901   80.0674   89.5619 C   0  0  0  0  0  0  0  0  0  0  0  0
   66.5514   78.7201   89.1578 C   0  0  0  0  0  0  0  0  0  0  0  0
   66.1312   80.4501   90.8651 O   0  0  0  0  0  0  0  0  0  0  0  0
   66.9289   80.2487   92.0333 C   0  0  0  0  0  0  0  0  0  0  0  0
   66.4601   79.0379   92.7967 C   0  0  0  0  0  0  0  0  0  0  0  0
   65.4733   79.1720   93.7873 C   0  0  0  0  0  0  0  0  0  0  0  0
   65.0301   78.0517   94.4970 C   0  0  0  0  0  0  0  0  0  0  0  0
   65.5720   76.7924   94.2267 C   0  0  0  0  0  0  0  0  0  0  0  0
   66.5605   76.6521   93.2493 C   0  0  0  0  0  0  0  0  0  0  0  0
   67.0084   77.7699   92.5386 C   0  0  0  0  0  0  0  0  0  0  0  0
   66.5774   73.4771   88.9530 C   0  0  0  0  0  0  0  0  0  0  0  0
   67.8325   73.0601   89.4949 O   0  0  0  0  0  0  0  0  0  0  0  0
   69.6521   75.2150   91.9645 C   0  0  0  0  0  0  0  0  0  0  0  0
   69.0795   74.7752   90.7569 C   0  0  0  0  0  0  0  0  0  0  0  0
   68.4060   73.5416   90.6834 C   0  0  0  0  0  0  0  0  0  0  0  0
   68.3029   72.7525   91.8304 C   0  0  0  0  0  0  0  0  0  0  0  0
   68.8444   73.1863   93.0400 C   0  0  0  0  0  0  0  0  0  0  0  0
   69.4995   74.4187   93.1276 C   0  0  0  0  0  0  0  0  0  0  0  0
   69.9517   74.8243   94.3852 O   0  0  0  0  0  0  0  0  0  0  0  0
   69.8307   74.2671   95.1287 H   0  0  0  0  0  0  0  0  0  0  0  0
   71.3580   76.6728   92.7735 O   0  0  0  0  0  0  0  0  0  0  0  0
   70.4185   76.4812   91.9560 C   0  0  0  0  0  0  0  0  0  0  0  0
   70.1431   77.4512   90.9957 O   0  0  0  0  0  0  0  0  0  0  0  0
   69.4467   77.3192   90.3828 H   0  0  0  0  0  0  0  0  0  0  0  0
 31 32  2  0  0  0
 32 33  1  0  0  0
 32 23  1  0  0  0
 23 24  2  0  0  0
 24 25  1  0  0  0
 25 22  1  0  0  0
 22 21  1  0  0  0
 21  1  1  0  0  0
  1  2  2  0  0  0
  2  3  2  0  0  0
  3  4  2  0  0  0
  4  5  1  0  0  0
  5  7  1  0  0  0
  7  8  2  0  0  0
  8  9  1  0  0  0
  9 10  2  0  0  0
 10 11  1  0  0  0
 11 13  1  0  0  0
 13 14  1  0  0  0
 14 15  1  0  0  0
 15 16  2  0  0  0
 16 17  1  0  0  0
 17 18  2  0  0  0
 18 19  1  0  0  0
 19 20  2  0  0  0
 11 12  2  0  0  0
  5  6  2  0  0  0
 25 26  2  0  0  0
 26 27  1  0  0  0
 27 28  2  0  0  0
 28 29  1  0  0  0
 28 23  1  0  0  0
  6  1  1  0  0  0
 12  7  1  0  0  0
 20 15  1  0  0  0
 33 34  1  0  0  0
 29 30  1  0  0  0
M  END
> <score>
0.012237

> <minimizedAffinity>
-7.73227

> <CNNscore>
0.6012956500

> <CNNaffinity>
6.6680507660

> <CNN_VS>
4.0094699860

$$$$
HIPS7007


 34 37  0  0  0  0  0  0  0  0999 V2000
   67.3213   78.1405   90.4892 C   0  0  0  0  0  0  0  0  0  0  0  0
   66.8439   77.1891   89.5785 C   0  0  0  0  0  0  0  0  0  0  0  0
   66.5772   77.5447   88.2947 N   0  0  0  0  0  0  0  0  0  0  0  0
   66.7657   78.8139   87.8470 C   0  0  0  0  0  0  0  0  0  0  0  0
   67.2533   79.8059   88.7131 C   0  0  0  0  0  0  0  0  0  0  0  0
   67.5472   79.4485   90.0388 C   0  0  0  0  0  0  0  0  0  0  0  0
   67.4310   81.2041   88.2488 C   0  0  0  0  0  0  0  0  0  0  0  0
   67.5080   81.5006   86.8773 C   0  0  0  0  0  0  0  0  0  0  0  0
   67.6730   82.8198   86.4492 C   0  0  0  0  0  0  0  0  0  0  0  0
   67.7539   83.8560   87.3817 C   0  0  0  0  0  0  0  0  0  0  0  0
   67.6682   83.5867   88.7517 C   0  0  0  0  0  0  0  0  0  0  0  0
   67.5157   82.2544   89.1810 C   0  0  0  0  0  0  0  0  0  0  0  0
   67.7362   84.6665   89.6477 O   0  0  0  0  0  0  0  0  0  0  0  0
   68.8819   85.0247   90.4227 C   0  0  0  0  0  0  0  0  0  0  0  0
   70.1499   84.7516   89.6572 C   0  0  0  0  0  0  0  0  0  0  0  0
   70.5890   85.6603   88.6801 C   0  0  0  0  0  0  0  0  0  0  0  0
   71.7675   85.4154   87.9686 C   0  0  0  0  0  0  0  0  0  0  0  0
   72.5121   84.2609   88.2235 C   0  0  0  0  0  0  0  0  0  0  0  0
   72.0773   83.3475   89.1873 C   0  0  0  0  0  0  0  0  0  0  0  0
   70.8982   83.5870   89.8998 C   0  0  0  0  0  0  0  0  0  0  0  0
   67.6393   77.7463   91.9087 C   0  0  0  0  0  0  0  0  0  0  0  0
   66.6313   76.8903   92.4506 O   0  0  0  0  0  0  0  0  0  0  0  0
   68.1915   74.1966   94.5396 C   0  0  0  0  0  0  0  0  0  0  0  0
   68.0300   75.1743   93.5408 C   0  0  0  0  0  0  0  0  0  0  0  0
   66.8377   75.9153   93.4407 C   0  0  0  0  0  0  0  0  0  0  0  0
   65.8084   75.6758   94.3529 C   0  0  0  0  0  0  0  0  0  0  0  0
   65.9632   74.7269   95.3630 C   0  0  0  0  0  0  0  0  0  0  0  0
   67.1510   73.9986   95.4821 C   0  0  0  0  0  0  0  0  0  0  0  0
   67.2665   73.1191   96.5609 O   0  0  0  0  0  0  0  0  0  0  0  0
   66.5542   73.0178   97.1611 H   0  0  0  0  0  0  0  0  0  0  0  0
   69.6279   72.5019   95.4081 O   0  0  0  0  0  0  0  0  0  0  0  0
   69.4353   73.3942   94.5396 C   0  0  0  0  0  0  0  0  0  0  0  0
   70.3802   73.5810   93.5341 O   0  0  0  0  0  0  0  0  0  0  0  0
   70.2472   74.2417   92.8831 H   0  0  0  0  0  0  0  0  0  0  0  0
 31 32  2  0  0  0
 32 33  1  0  0  0
 32 23  1  0  0  0
 23 24  2  0  0  0
 24 25  1  0  0  0
 25 22  1  0  0  0
 22 21  1  0  0  0
 21  1  1  0  0  0
  1  2  2  0  0  0
  2  3  2  0  0  0
  3  4  2  0  0  0
  4  5  1  0  0  0
  5  7  1  0  0  0
  7  8  2  0  0  0
  8  9  1  0  0  0
  9 10  2  0  0  0
 10 11  1  0  0  0
 11 13  1  0  0  0
 13 14  1  0  0  0
 14 15  1  0  0  0
 15 16  2  0  0  0
 16 17  1  0  0  0
 17 18  2  0  0  0
 18 19  1  0  0  0
 19 20  2  0  0  0
 11 12  2  0  0  0
  5  6  2  0  0  0
 25 26  2  0  0  0
 26 27  1  0  0  0
 27 28  2  0  0  0
 28 29  1  0  0  0
 28 23  1  0  0  0
  6  1  1  0  0  0
 12  7  1  0  0  0
 20 15  1  0  0  0
 33 34  1  0  0  0
 29 30  1  0  0  0
M  END
> <score>
0.012237

> <minimizedAffinity>
-8.51003

> <CNNscore>
0.5999318957

> <CNNaffinity>
6.2016801834

> <CNN_VS>
3.7205858231

$$$$
HIPS7007


 34 37  0  0  0  0  0  0  0  0999 V2000
   66.8839   78.8354   91.7835 C   0  0  0  0  0  0  0  0  0  0  0  0
   66.7620   79.5731   92.9681 C   0  0  0  0  0  0  0  0  0  0  0  0
   66.8209   80.9301   92.9379 N   0  0  0  0  0  0  0  0  0  0  0  0
   66.9905   81.6161   91.7770 C   0  0  0  0  0  0  0  0  0  0  0  0
   67.1069   80.9286   90.5582 C   0  0  0  0  0  0  0  0  0  0  0  0
   67.0328   79.5265   90.5731 C   0  0  0  0  0  0  0  0  0  0  0  0
   67.3279   81.6615   89.2868 C   0  0  0  0  0  0  0  0  0  0  0  0
   67.2886   80.9879   88.0540 C   0  0  0  0  0  0  0  0  0  0  0  0
   67.4954   81.6859   86.8622 C   0  0  0  0  0  0  0  0  0  0  0  0
   67.7342   83.0616   86.8861 C   0  0  0  0  0  0  0  0  0  0  0  0
   67.7664   83.7556   88.1002 C   0  0  0  0  0  0  0  0  0  0  0  0
   67.5714   83.0470   89.3011 C   0  0  0  0  0  0  0  0  0  0  0  0
   67.9916   85.1418   88.0685 O   0  0  0  0  0  0  0  0  0  0  0  0
   68.8829   85.8529   88.9297 C   0  0  0  0  0  0  0  0  0  0  0  0
   70.2874   85.3258   88.7958 C   0  0  0  0  0  0  0  0  0  0  0  0
   70.6679   84.1609   89.4823 C   0  0  0  0  0  0  0  0  0  0  0  0
   71.9689   83.6634   89.3593 C   0  0  0  0  0  0  0  0  0  0  0  0
   72.8992   84.3273   88.5554 C   0  0  0  0  0  0  0  0  0  0  0  0
   72.5313   85.4918   87.8767 C   0  0  0  0  0  0  0  0  0  0  0  0
   71.2321   85.9943   87.9984 C   0  0  0  0  0  0  0  0  0  0  0  0
   66.7976   77.3309   91.8088 C   0  0  0  0  0  0  0  0  0  0  0  0
   67.8822   76.7584   92.5426 O   0  0  0  0  0  0  0  0  0  0  0  0
   68.6306   73.9585   94.9205 C   0  0  0  0  0  0  0  0  0  0  0  0
   68.7996   74.9150   93.9025 C   0  0  0  0  0  0  0  0  0  0  0  0
   67.7589   75.7986   93.5610 C   0  0  0  0  0  0  0  0  0  0  0  0
   66.5476   75.7235   94.2510 C   0  0  0  0  0  0  0  0  0  0  0  0
   66.3737   74.7969   95.2785 C   0  0  0  0  0  0  0  0  0  0  0  0
   67.4079   73.9269   95.6376 C   0  0  0  0  0  0  0  0  0  0  0  0
   67.1915   73.0763   96.7240 O   0  0  0  0  0  0  0  0  0  0  0  0
   66.3678   73.0872   97.1707 H   0  0  0  0  0  0  0  0  0  0  0  0
   70.7102   72.9209   94.3839 O   0  0  0  0  0  0  0  0  0  0  0  0
   69.7328   73.0039   95.1746 C   0  0  0  0  0  0  0  0  0  0  0  0
   69.7253   72.2293   96.3317 O   0  0  0  0  0  0  0  0  0  0  0  0
   69.0036   72.2830   96.9268 H   0  0  0  0  0  0  0  0  0  0  0  0
 31 32  2  0  0  0
 32 33  1  0  0  0
 32 23  1  0  0  0
 23 24  2  0  0  0
 24 25  1  0  0  0
 25 22  1  0  0  0
 22 21  1  0  0  0
 21  1  1  0  0  0
  1  2  2  0  0  0
  2  3  2  0  0  0
  3  4  2  0  0  0
  4  5  1  0  0  0
  5  7  1  0  0  0
  7  8  2  0  0  0
  8  9  1  0  0  0
  9 10  2  0  0  0
 10 11  1  0  0  0
 11 13  1  0  0  0
 13 14  1  0  0  0
 14 15  1  0  0  0
 15 16  2  0  0  0
 16 17  1  0  0  0
 17 18  2  0  0  0
 18 19  1  0  0  0
 19 20  2  0  0  0
 11 12  2  0  0  0
  5  6  2  0  0  0
 25 26  2  0  0  0
 26 27  1  0  0  0
 27 28  2  0  0  0
 28 29  1  0  0  0
 28 23  1  0  0  0
  6  1  1  0  0  0
 12  7  1  0  0  0
 20 15  1  0  0  0
 33 34  1  0  0  0
 29 30  1  0  0  0
M  END
> <score>
0.012237

> <minimizedAffinity>
-8.22157

> <CNNscore>
0.5423665643

> <CNNaffinity>
6.0779485703

> <CNN_VS>
3.2964761257

$$$$
HIPS7008


 34 37  0  0  0  0  0  0  0  0999 V2000
   66.7396   78.6474   88.5715 C   0  0  0  0  0  0  0  0  0  0  0  0
   66.6880   78.7247   87.1749 C   0  0  0  0  0  0  0  0  0  0  0  0
   66.8251   77.5634   86.4169 C   0  0  0  0  0  0  0  0  0  0  0  0
   67.0206   76.3689   87.0314 N   0  0  0  0  0  0  0  0  0  0  0  0
   67.0852   76.2473   88.3864 C   0  0  0  0  0  0  0  0  0  0  0  0
   66.9486   77.4018   89.1802 C   0  0  0  0  0  0  0  0  0  0  0  0
   67.3518   74.9088   88.9816 C   0  0  0  0  0  0  0  0  0  0  0  0
   66.8193   73.7587   88.3684 C   0  0  0  0  0  0  0  0  0  0  0  0
   67.0629   72.4917   88.9006 C   0  0  0  0  0  0  0  0  0  0  0  0
   67.8423   72.3506   90.0492 C   0  0  0  0  0  0  0  0  0  0  0  0
   68.3778   73.4745   90.6843 C   0  0  0  0  0  0  0  0  0  0  0  0
   68.1190   74.7560   90.1555 C   0  0  0  0  0  0  0  0  0  0  0  0
   69.1634   73.2765   91.8298 O   0  0  0  0  0  0  0  0  0  0  0  0
   68.7995   72.4422   92.9259 C   0  0  0  0  0  0  0  0  0  0  0  0
   67.8803   73.2006   93.8379 C   0  0  0  0  0  0  0  0  0  0  0  0
   66.5653   73.4877   93.4393 C   0  0  0  0  0  0  0  0  0  0  0  0
   65.6947   74.1502   94.3114 C   0  0  0  0  0  0  0  0  0  0  0  0
   66.1255   74.5151   95.5903 C   0  0  0  0  0  0  0  0  0  0  0  0
   67.4289   74.2214   95.9988 C   0  0  0  0  0  0  0  0  0  0  0  0
   68.3028   73.5604   95.1288 C   0  0  0  0  0  0  0  0  0  0  0  0
   66.6681   79.9048   89.3936 C   0  0  0  0  0  0  0  0  0  0  0  0
   67.9608   80.2156   89.9157 O   0  0  0  0  0  0  0  0  0  0  0  0
   69.5854   77.5251   91.9685 C   0  0  0  0  0  0  0  0  0  0  0  0
   68.6225   78.4433   91.5110 C   0  0  0  0  0  0  0  0  0  0  0  0
   68.8920   79.2918   90.4183 C   0  0  0  0  0  0  0  0  0  0  0  0
   70.1448   79.2313   89.8047 C   0  0  0  0  0  0  0  0  0  0  0  0
   71.1046   78.3180   90.2401 C   0  0  0  0  0  0  0  0  0  0  0  0
   70.8332   77.4466   91.3015 C   0  0  0  0  0  0  0  0  0  0  0  0
   71.8089   76.5052   91.6372 O   0  0  0  0  0  0  0  0  0  0  0  0
   72.6217   76.4863   91.1714 H   0  0  0  0  0  0  0  0  0  0  0  0
   70.1320   75.9491   93.6685 O   0  0  0  0  0  0  0  0  0  0  0  0
   69.2614   76.6995   93.1515 C   0  0  0  0  0  0  0  0  0  0  0  0
   68.0006   76.7923   93.7391 O   0  0  0  0  0  0  0  0  0  0  0  0
   67.3474   77.3479   93.3613 H   0  0  0  0  0  0  0  0  0  0  0  0
 31 32  2  0  0  0
 32 33  1  0  0  0
 32 23  1  0  0  0
 23 24  2  0  0  0
 24 25  1  0  0  0
 25 22  1  0  0  0
 22 21  1  0  0  0
 21  1  1  0  0  0
  1  2  2  0  0  0
  2  3  1  0  0  0
  3  4  2  0  0  0
  4  5  2  0  0  0
  5  7  1  0  0  0
  7  8  2  0  0  0
  8  9  1  0  0  0
  9 10  2  0  0  0
 10 11  1  0  0  0
 11 13  1  0  0  0
 13 14  1  0  0  0
 14 15  1  0  0  0
 15 16  2  0  0  0
 16 17  1  0  0  0
 17 18  2  0  0  0
 18 19  1  0  0  0
 19 20  2  0  0  0
 11 12  2  0  0  0
  5  6  2  0  0  0
 25 26  2  0  0  0
 26 27  1  0  0  0
 27 28  2  0  0  0
 28 29  1  0  0  0
 28 23  1  0  0  0
  6  1  1  0  0  0
 12  7  1  0  0  0
 20 15  1  0  0  0
 33 34  1  0  0  0
 29 30  1  0  0  0
M  END
> <score>
-0.236922

> <minimizedAffinity>
-8.07222

> <CNNscore>
0.5685050488

> <CNNaffinity>
6.5373668671

> <CNN_VS>
3.7165260315

$$$$
HIPS7008


 34 37  0  0  0  0  0  0  0  0999 V2000
   67.2683   78.6533   89.9505 C   0  0  0  0  0  0  0  0  0  0  0  0
   66.1722   79.2055   89.2776 C   0  0  0  0  0  0  0  0  0  0  0  0
   66.2860   80.4682   88.6991 C   0  0  0  0  0  0  0  0  0  0  0  0
   67.4490   81.1609   88.8008 N   0  0  0  0  0  0  0  0  0  0  0  0
   68.5382   80.6666   89.4522 C   0  0  0  0  0  0  0  0  0  0  0  0
   68.4556   79.3928   90.0458 C   0  0  0  0  0  0  0  0  0  0  0  0
   69.7606   81.5095   89.5622 C   0  0  0  0  0  0  0  0  0  0  0  0
   70.6684   81.2806   90.6139 C   0  0  0  0  0  0  0  0  0  0  0  0
   71.8266   82.0502   90.7334 C   0  0  0  0  0  0  0  0  0  0  0  0
   72.0996   83.0567   89.8065 C   0  0  0  0  0  0  0  0  0  0  0  0
   71.2133   83.3122   88.7566 C   0  0  0  0  0  0  0  0  0  0  0  0
   70.0353   82.5451   88.6445 C   0  0  0  0  0  0  0  0  0  0  0  0
   71.5406   84.3281   87.8459 O   0  0  0  0  0  0  0  0  0  0  0  0
   70.7141   85.4522   87.5567 C   0  0  0  0  0  0  0  0  0  0  0  0
   71.3485   86.6884   88.1235 C   0  0  0  0  0  0  0  0  0  0  0  0
   70.5618   87.6577   88.7654 C   0  0  0  0  0  0  0  0  0  0  0  0
   71.1620   88.7846   89.3376 C   0  0  0  0  0  0  0  0  0  0  0  0
   72.5500   88.9425   89.2870 C   0  0  0  0  0  0  0  0  0  0  0  0
   73.3409   87.9756   88.6610 C   0  0  0  0  0  0  0  0  0  0  0  0
   72.7440   86.8482   88.0863 C   0  0  0  0  0  0  0  0  0  0  0  0
   67.1301   77.3247   90.6417 C   0  0  0  0  0  0  0  0  0  0  0  0
   67.2009   77.5059   92.0568 O   0  0  0  0  0  0  0  0  0  0  0  0
   68.0275   74.5304   94.1911 C   0  0  0  0  0  0  0  0  0  0  0  0
   68.1397   75.5212   93.1985 C   0  0  0  0  0  0  0  0  0  0  0  0
   67.1304   76.4894   93.0236 C   0  0  0  0  0  0  0  0  0  0  0  0
   65.9947   76.4400   93.8344 C   0  0  0  0  0  0  0  0  0  0  0  0
   65.8754   75.4707   94.8300 C   0  0  0  0  0  0  0  0  0  0  0  0
   66.8888   74.5270   95.0346 C   0  0  0  0  0  0  0  0  0  0  0  0
   66.7414   73.6329   96.0975 O   0  0  0  0  0  0  0  0  0  0  0  0
   65.9725   73.6633   96.6322 H   0  0  0  0  0  0  0  0  0  0  0  0
   70.0935   73.6992   95.0357 O   0  0  0  0  0  0  0  0  0  0  0  0
   69.0949   73.5121   94.2900 C   0  0  0  0  0  0  0  0  0  0  0  0
   68.9717   72.3074   93.5992 O   0  0  0  0  0  0  0  0  0  0  0  0
   68.2325   72.1600   93.0427 H   0  0  0  0  0  0  0  0  0  0  0  0
 31 32  2  0  0  0
 32 33  1  0  0  0
 32 23  1  0  0  0
 23 24  2  0  0  0
 24 25  1  0  0  0
 25 22  1  0  0  0
 22 21  1  0  0  0
 21  1  1  0  0  0
  1  2  2  0  0  0
  2  3  1  0  0  0
  3  4  2  0  0  0
  4  5  2  0  0  0
  5  7  1  0  0  0
  7  8  2  0  0  0
  8  9  1  0  0  0
  9 10  2  0  0  0
 10 11  1  0  0  0
 11 13  1  0  0  0
 13 14  1  0  0  0
 14 15  1  0  0  0
 15 16  2  0  0  0
 16 17  1  0  0  0
 17 18  2  0  0  0
 18 19  1  0  0  0
 19 20  2  0  0  0
 11 12  2  0  0  0
  5  6  2  0  0  0
 25 26  2  0  0  0
 26 27  1  0  0  0
 27 28  2  0  0  0
 28 29  1  0  0  0
 28 23  1  0  0  0
  6  1  1  0  0  0
 12  7  1  0  0  0
 20 15  1  0  0  0
 33 34  1  0  0  0
 29 30  1  0  0  0
M  END
> <score>
-0.236922

> <minimizedAffinity>
-8.67269

> <CNNscore>
0.5439914465

> <CNNaffinity>
5.9694080353

> <CNN_VS>
3.2473068237

$$$$
HIPS7008


 34 37  0  0  0  0  0  0  0  0999 V2000
   68.0175   78.1234   90.7764 C   0  0  0  0  0  0  0  0  0  0  0  0
   69.3588   77.8302   90.5046 C   0  0  0  0  0  0  0  0  0  0  0  0
   70.2336   78.8620   90.1699 C   0  0  0  0  0  0  0  0  0  0  0  0
   69.7817   80.1399   90.0959 N   0  0  0  0  0  0  0  0  0  0  0  0
   68.4841   80.4706   90.3445 C   0  0  0  0  0  0  0  0  0  0  0  0
   67.5759   79.4510   90.6868 C   0  0  0  0  0  0  0  0  0  0  0  0
   68.0565   81.8888   90.1936 C   0  0  0  0  0  0  0  0  0  0  0  0
   67.7729   82.6534   91.3414 C   0  0  0  0  0  0  0  0  0  0  0  0
   67.3800   83.9878   91.2276 C   0  0  0  0  0  0  0  0  0  0  0  0
   67.2662   84.5815   89.9700 C   0  0  0  0  0  0  0  0  0  0  0  0
   67.5336   83.8454   88.8125 C   0  0  0  0  0  0  0  0  0  0  0  0
   67.9157   82.4927   88.9265 C   0  0  0  0  0  0  0  0  0  0  0  0
   67.4147   84.4931   87.5736 O   0  0  0  0  0  0  0  0  0  0  0  0
   68.3981   84.4551   86.5432 C   0  0  0  0  0  0  0  0  0  0  0  0
   69.7302   84.8355   87.1199 C   0  0  0  0  0  0  0  0  0  0  0  0
   70.8056   83.9344   87.0736 C   0  0  0  0  0  0  0  0  0  0  0  0
   72.0601   84.3104   87.5661 C   0  0  0  0  0  0  0  0  0  0  0  0
   72.2527   85.5913   88.0918 C   0  0  0  0  0  0  0  0  0  0  0  0
   71.1904   86.4981   88.1296 C   0  0  0  0  0  0  0  0  0  0  0  0
   69.9341   86.1251   87.6395 C   0  0  0  0  0  0  0  0  0  0  0  0
   67.0511   77.0074   91.0643 C   0  0  0  0  0  0  0  0  0  0  0  0
   66.6455   77.0597   92.4329 O   0  0  0  0  0  0  0  0  0  0  0  0
   68.1600   74.2608   94.4239 C   0  0  0  0  0  0  0  0  0  0  0  0
   68.0015   75.2477   93.4338 C   0  0  0  0  0  0  0  0  0  0  0  0
   66.8457   76.0532   93.3921 C   0  0  0  0  0  0  0  0  0  0  0  0
   65.8375   75.8432   94.3351 C   0  0  0  0  0  0  0  0  0  0  0  0
   65.9863   74.8765   95.3292 C   0  0  0  0  0  0  0  0  0  0  0  0
   67.1461   74.0960   95.4002 C   0  0  0  0  0  0  0  0  0  0  0  0
   67.2643   73.2002   96.4653 O   0  0  0  0  0  0  0  0  0  0  0  0
   66.5706   73.1210   97.0901 H   0  0  0  0  0  0  0  0  0  0  0  0
   69.5186   72.4645   95.1988 O   0  0  0  0  0  0  0  0  0  0  0  0
   69.3710   73.4134   94.3828 C   0  0  0  0  0  0  0  0  0  0  0  0
   70.3340   73.6257   93.3972 O   0  0  0  0  0  0  0  0  0  0  0  0
   70.2322   74.3289   92.7865 H   0  0  0  0  0  0  0  0  0  0  0  0
 31 32  2  0  0  0
 32 33  1  0  0  0
 32 23  1  0  0  0
 23 24  2  0  0  0
 24 25  1  0  0  0
 25 22  1  0  0  0
 22 21  1  0  0  0
 21  1  1  0  0  0
  1  2  2  0  0  0
  2  3  1  0  0  0
  3  4  2  0  0  0
  4  5  2  0  0  0
  5  7  1  0  0  0
  7  8  2  0  0  0
  8  9  1  0  0  0
  9 10  2  0  0  0
 10 11  1  0  0  0
 11 13  1  0  0  0
 13 14  1  0  0  0
 14 15  1  0  0  0
 15 16  2  0  0  0
 16 17  1  0  0  0
 17 18  2  0  0  0
 18 19  1  0  0  0
 19 20  2  0  0  0
 11 12  2  0  0  0
  5  6  2  0  0  0
 25 26  2  0  0  0
 26 27  1  0  0  0
 27 28  2  0  0  0
 28 29  1  0  0  0
 28 23  1  0  0  0
  6  1  1  0  0  0
 12  7  1  0  0  0
 20 15  1  0  0  0
 33 34  1  0  0  0
 29 30  1  0  0  0
M  END
> <score>
-0.236922

> <minimizedAffinity>
-8.75168

> <CNNscore>
0.5416338444

> <CNNaffinity>
6.1017313004

> <CNN_VS>
3.3049042225

$$$$
HIPS7009


 34 37  0  0  0  0  0  0  0  0999 V2000
   66.0344   78.9175   93.2791 C   0  0  0  0  0  0  0  0  0  0  0  0
   66.5632   80.0022   93.9888 C   0  0  0  0  0  0  0  0  0  0  0  0
   67.2033   81.0265   93.2922 C   0  0  0  0  0  0  0  0  0  0  0  0
   67.3246   80.9568   91.9035 C   0  0  0  0  0  0  0  0  0  0  0  0
   66.8056   79.8441   91.2168 C   0  0  0  0  0  0  0  0  0  0  0  0
   66.1764   78.8646   91.9265 N   0  0  0  0  0  0  0  0  0  0  0  0
   66.9092   79.7190   89.7404 C   0  0  0  0  0  0  0  0  0  0  0  0
   66.6893   78.4725   89.1279 C   0  0  0  0  0  0  0  0  0  0  0  0
   66.7867   78.3368   87.7415 C   0  0  0  0  0  0  0  0  0  0  0  0
   67.1127   79.4378   86.9480 C   0  0  0  0  0  0  0  0  0  0  0  0
   67.3513   80.6908   87.5415 C   0  0  0  0  0  0  0  0  0  0  0  0
   67.2497   80.8216   88.9323 C   0  0  0  0  0  0  0  0  0  0  0  0
   67.6938   81.8251   86.7907 O   0  0  0  0  0  0  0  0  0  0  0  0
   67.4255   83.1669   87.1875 C   0  0  0  0  0  0  0  0  0  0  0  0
   68.7028   83.9534   87.1575 C   0  0  0  0  0  0  0  0  0  0  0  0
   68.6726   85.3555   87.2379 C   0  0  0  0  0  0  0  0  0  0  0  0
   69.8654   86.0856   87.2494 C   0  0  0  0  0  0  0  0  0  0  0  0
   71.0939   85.4216   87.1928 C   0  0  0  0  0  0  0  0  0  0  0  0
   71.1320   84.0258   87.1296 C   0  0  0  0  0  0  0  0  0  0  0  0
   69.9416   83.2919   87.1184 C   0  0  0  0  0  0  0  0  0  0  0  0
   65.3658   77.7895   93.9991 C   0  0  0  0  0  0  0  0  0  0  0  0
   65.7535   76.5561   93.4003 O   0  0  0  0  0  0  0  0  0  0  0  0
   68.6375   74.2215   93.9125 C   0  0  0  0  0  0  0  0  0  0  0  0
   67.7655   75.1377   93.2948 C   0  0  0  0  0  0  0  0  0  0  0  0
   66.6404   75.6356   93.9782 C   0  0  0  0  0  0  0  0  0  0  0  0
   66.3911   75.2082   95.2841 C   0  0  0  0  0  0  0  0  0  0  0  0
   67.2361   74.2854   95.9007 C   0  0  0  0  0  0  0  0  0  0  0  0
   68.3458   73.7699   95.2228 C   0  0  0  0  0  0  0  0  0  0  0  0
   69.1057   72.7911   95.8669 O   0  0  0  0  0  0  0  0  0  0  0  0
   68.8805   72.5188   96.7347 H   0  0  0  0  0  0  0  0  0  0  0  0
   70.6539   72.9817   93.7153 O   0  0  0  0  0  0  0  0  0  0  0  0
   69.8486   73.7909   93.1806 C   0  0  0  0  0  0  0  0  0  0  0  0
   70.0805   74.2248   91.8786 O   0  0  0  0  0  0  0  0  0  0  0  0
   69.4876   74.8262   91.4726 H   0  0  0  0  0  0  0  0  0  0  0  0
 31 32  2  0  0  0
 32 33  1  0  0  0
 32 23  1  0  0  0
 23 24  2  0  0  0
 24 25  1  0  0  0
 25 22  1  0  0  0
 22 21  1  0  0  0
 21  1  1  0  0  0
  1  2  2  0  0  0
  2  3  1  0  0  0
  3  4  2  0  0  0
  4  5  1  0  0  0
  5  7  1  0  0  0
  7  8  2  0  0  0
  8  9  1  0  0  0
  9 10  2  0  0  0
 10 11  1  0  0  0
 11 13  1  0  0  0
 13 14  1  0  0  0
 14 15  1  0  0  0
 15 16  2  0  0  0
 16 17  1  0  0  0
 17 18  2  0  0  0
 18 19  1  0  0  0
 19 20  2  0  0  0
 11 12  2  0  0  0
  5  6  2  0  0  0
 25 26  2  0  0  0
 26 27  1  0  0  0
 27 28  2  0  0  0
 28 29  1  0  0  0
 28 23  1  0  0  0
  6  1  2  0  0  0
 12  7  1  0  0  0
 20 15  1  0  0  0
 33 34  1  0  0  0
 29 30  1  0  0  0
M  END
> <score>
-0.565679

> <minimizedAffinity>
-8.28986

> <CNNscore>
0.6835917830

> <CNNaffinity>
6.2494935989

> <CNN_VS>
4.2721023560

$$$$
HIPS7009


 34 37  0  0  0  0  0  0  0  0999 V2000
   67.1332   78.1436   88.0641 C   0  0  0  0  0  0  0  0  0  0  0  0
   67.0495   79.1714   87.1174 C   0  0  0  0  0  0  0  0  0  0  0  0
   66.9231   80.4904   87.5516 C   0  0  0  0  0  0  0  0  0  0  0  0
   66.8666   80.7735   88.9171 C   0  0  0  0  0  0  0  0  0  0  0  0
   66.9286   79.7200   89.8472 C   0  0  0  0  0  0  0  0  0  0  0  0
   67.0623   78.4424   89.3900 N   0  0  0  0  0  0  0  0  0  0  0  0
   66.8708   79.9654   91.3109 C   0  0  0  0  0  0  0  0  0  0  0  0
   67.3913   81.1595   91.8401 C   0  0  0  0  0  0  0  0  0  0  0  0
   67.3485   81.4041   93.2143 C   0  0  0  0  0  0  0  0  0  0  0  0
   66.7949   80.4595   94.0801 C   0  0  0  0  0  0  0  0  0  0  0  0
   66.2818   79.2516   93.5734 C   0  0  0  0  0  0  0  0  0  0  0  0
   66.3252   79.0128   92.1940 C   0  0  0  0  0  0  0  0  0  0  0  0
   65.7264   78.2649   94.4014 O   0  0  0  0  0  0  0  0  0  0  0  0
   65.1969   77.0263   93.9375 C   0  0  0  0  0  0  0  0  0  0  0  0
   65.9442   75.8983   94.5858 C   0  0  0  0  0  0  0  0  0  0  0  0
   65.7789   75.6348   95.9557 C   0  0  0  0  0  0  0  0  0  0  0  0
   66.4455   74.5590   96.5509 C   0  0  0  0  0  0  0  0  0  0  0  0
   67.2705   73.7338   95.7817 C   0  0  0  0  0  0  0  0  0  0  0  0
   67.4265   73.9799   94.4146 C   0  0  0  0  0  0  0  0  0  0  0  0
   66.7613   75.0543   93.8154 C   0  0  0  0  0  0  0  0  0  0  0  0
   67.2419   76.7159   87.6306 C   0  0  0  0  0  0  0  0  0  0  0  0
   66.8177   75.8694   88.6953 O   0  0  0  0  0  0  0  0  0  0  0  0
   69.3914   75.3014   91.3569 C   0  0  0  0  0  0  0  0  0  0  0  0
   68.5452   75.9663   90.4497 C   0  0  0  0  0  0  0  0  0  0  0  0
   67.6819   75.2429   89.6057 C   0  0  0  0  0  0  0  0  0  0  0  0
   67.6726   73.8482   89.6731 C   0  0  0  0  0  0  0  0  0  0  0  0
   68.5205   73.1760   90.5535 C   0  0  0  0  0  0  0  0  0  0  0  0
   69.3961   73.8853   91.3823 C   0  0  0  0  0  0  0  0  0  0  0  0
   70.2738   73.1511   92.1829 O   0  0  0  0  0  0  0  0  0  0  0  0
   70.2459   72.2145   92.1717 H   0  0  0  0  0  0  0  0  0  0  0  0
   71.3994   76.4198   91.9560 O   0  0  0  0  0  0  0  0  0  0  0  0
   70.2203   76.1101   92.2770 C   0  0  0  0  0  0  0  0  0  0  0  0
   69.6914   76.5856   93.4734 O   0  0  0  0  0  0  0  0  0  0  0  0
   68.8160   76.3609   93.7207 H   0  0  0  0  0  0  0  0  0  0  0  0
 31 32  2  0  0  0
 32 33  1  0  0  0
 32 23  1  0  0  0
 23 24  2  0  0  0
 24 25  1  0  0  0
 25 22  1  0  0  0
 22 21  1  0  0  0
 21  1  1  0  0  0
  1  2  2  0  0  0
  2  3  1  0  0  0
  3  4  2  0  0  0
  4  5  1  0  0  0
  5  7  1  0  0  0
  7  8  2  0  0  0
  8  9  1  0  0  0
  9 10  2  0  0  0
 10 11  1  0  0  0
 11 13  1  0  0  0
 13 14  1  0  0  0
 14 15  1  0  0  0
 15 16  2  0  0  0
 16 17  1  0  0  0
 17 18  2  0  0  0
 18 19  1  0  0  0
 19 20  2  0  0  0
 11 12  2  0  0  0
  5  6  2  0  0  0
 25 26  2  0  0  0
 26 27  1  0  0  0
 27 28  2  0  0  0
 28 29  1  0  0  0
 28 23  1  0  0  0
  6  1  2  0  0  0
 12  7  1  0  0  0
 20 15  1  0  0  0
 33 34  1  0  0  0
 29 30  1  0  0  0
M  END
> <score>
-0.565679

> <minimizedAffinity>
-7.97237

> <CNNscore>
0.6434535980

> <CNNaffinity>
6.6765689850

> <CNN_VS>
4.2960624695

$$$$
HIPS7009


 34 37  0  0  0  0  0  0  0  0999 V2000
   67.9106   78.3878   89.4936 C   0  0  0  0  0  0  0  0  0  0  0  0
   67.2984   77.5988   88.5126 C   0  0  0  0  0  0  0  0  0  0  0  0
   66.9022   78.1877   87.3124 C   0  0  0  0  0  0  0  0  0  0  0  0
   67.1038   79.5531   87.1047 C   0  0  0  0  0  0  0  0  0  0  0  0
   67.6994   80.3282   88.1164 C   0  0  0  0  0  0  0  0  0  0  0  0
   68.0846   79.7197   89.2741 N   0  0  0  0  0  0  0  0  0  0  0  0
   67.9352   81.7849   87.9481 C   0  0  0  0  0  0  0  0  0  0  0  0
   67.0180   82.5613   87.2179 C   0  0  0  0  0  0  0  0  0  0  0  0
   67.2268   83.9314   87.0470 C   0  0  0  0  0  0  0  0  0  0  0  0
   68.3555   84.5445   87.5931 C   0  0  0  0  0  0  0  0  0  0  0  0
   69.2935   83.7839   88.3146 C   0  0  0  0  0  0  0  0  0  0  0  0
   69.0776   82.4106   88.4851 C   0  0  0  0  0  0  0  0  0  0  0  0
   70.4497   84.3490   88.8728 O   0  0  0  0  0  0  0  0  0  0  0  0
   71.5895   84.7605   88.1237 C   0  0  0  0  0  0  0  0  0  0  0  0
   71.8581   86.2116   88.3941 C   0  0  0  0  0  0  0  0  0  0  0  0
   73.1695   86.7118   88.3343 C   0  0  0  0  0  0  0  0  0  0  0  0
   73.4143   88.0721   88.5479 C   0  0  0  0  0  0  0  0  0  0  0  0
   72.3526   88.9423   88.8101 C   0  0  0  0  0  0  0  0  0  0  0  0
   71.0434   88.4547   88.8545 C   0  0  0  0  0  0  0  0  0  0  0  0
   70.7942   87.0952   88.6410 C   0  0  0  0  0  0  0  0  0  0  0  0
   68.3226   77.7919   90.8024 C   0  0  0  0  0  0  0  0  0  0  0  0
   69.2708   76.7548   90.5673 O   0  0  0  0  0  0  0  0  0  0  0  0
   69.5713   73.6333   92.6159 C   0  0  0  0  0  0  0  0  0  0  0  0
   69.7428   74.9651   92.1938 C   0  0  0  0  0  0  0  0  0  0  0  0
   69.1311   75.4329   91.0158 C   0  0  0  0  0  0  0  0  0  0  0  0
   68.3480   74.5579   90.2600 C   0  0  0  0  0  0  0  0  0  0  0  0
   68.1861   73.2302   90.6563 C   0  0  0  0  0  0  0  0  0  0  0  0
   68.8060   72.7508   91.8149 C   0  0  0  0  0  0  0  0  0  0  0  0
   68.6687   71.3934   92.1130 O   0  0  0  0  0  0  0  0  0  0  0  0
   68.1534   70.8416   91.5581 H   0  0  0  0  0  0  0  0  0  0  0  0
   71.0159   72.2805   93.9291 O   0  0  0  0  0  0  0  0  0  0  0  0
   70.1692   73.2141   93.9021 C   0  0  0  0  0  0  0  0  0  0  0  0
   69.8507   73.8811   95.0815 O   0  0  0  0  0  0  0  0  0  0  0  0
   69.2226   74.5763   95.0715 H   0  0  0  0  0  0  0  0  0  0  0  0
 31 32  2  0  0  0
 32 33  1  0  0  0
 32 23  1  0  0  0
 23 24  2  0  0  0
 24 25  1  0  0  0
 25 22  1  0  0  0
 22 21  1  0  0  0
 21  1  1  0  0  0
  1  2  2  0  0  0
  2  3  1  0  0  0
  3  4  2  0  0  0
  4  5  1  0  0  0
  5  7  1  0  0  0
  7  8  2  0  0  0
  8  9  1  0  0  0
  9 10  2  0  0  0
 10 11  1  0  0  0
 11 13  1  0  0  0
 13 14  1  0  0  0
 14 15  1  0  0  0
 15 16  2  0  0  0
 16 17  1  0  0  0
 17 18  2  0  0  0
 18 19  1  0  0  0
 19 20  2  0  0  0
 11 12  2  0  0  0
  5  6  2  0  0  0
 25 26  2  0  0  0
 26 27  1  0  0  0
 27 28  2  0  0  0
 28 29  1  0  0  0
 28 23  1  0  0  0
  6  1  2  0  0  0
 12  7  1  0  0  0
 20 15  1  0  0  0
 33 34  1  0  0  0
 29 30  1  0  0  0
M  END
> <score>
-0.565679

> <minimizedAffinity>
-8.30814

> <CNNscore>
0.6405419707

> <CNNaffinity>
6.0662279129

> <CNN_VS>
3.8856735229

$$$$
HIPS7010


 34 37  0  0  0  0  0  0  0  0999 V2000
   67.3680   78.5795   88.6930 C   0  0  0  0  0  0  0  0  0  0  0  0
   66.4229   78.4743   89.7238 C   0  0  0  0  0  0  0  0  0  0  0  0
   65.8851   79.6246   90.3044 C   0  0  0  0  0  0  0  0  0  0  0  0
   66.2752   80.8884   89.8546 C   0  0  0  0  0  0  0  0  0  0  0  0
   67.1989   81.0166   88.8029 C   0  0  0  0  0  0  0  0  0  0  0  0
   67.7406   79.8504   88.2271 C   0  0  0  0  0  0  0  0  0  0  0  0
   67.6230   82.3640   88.3462 C   0  0  0  0  0  0  0  0  0  0  0  0
   68.3560   83.2230   89.1830 C   0  0  0  0  0  0  0  0  0  0  0  0
   68.6747   84.5210   88.7483 C   0  0  0  0  0  0  0  0  0  0  0  0
   68.3050   84.9130   87.4596 C   0  0  0  0  0  0  0  0  0  0  0  0
   67.6134   84.0225   86.6374 C   0  0  0  0  0  0  0  0  0  0  0  0
   67.2849   82.7863   87.0957 N   0  0  0  0  0  0  0  0  0  0  0  0
   69.3453   85.4474   89.5643 O   0  0  0  0  0  0  0  0  0  0  0  0
   69.4240   86.8538   89.3209 C   0  0  0  0  0  0  0  0  0  0  0  0
   70.8204   87.2566   88.9201 C   0  0  0  0  0  0  0  0  0  0  0  0
   71.2800   88.5659   89.1465 C   0  0  0  0  0  0  0  0  0  0  0  0
   72.5714   88.9362   88.7597 C   0  0  0  0  0  0  0  0  0  0  0  0
   73.4179   88.0005   88.1601 C   0  0  0  0  0  0  0  0  0  0  0  0
   72.9733   86.6935   87.9424 C   0  0  0  0  0  0  0  0  0  0  0  0
   71.6803   86.3202   88.3229 C   0  0  0  0  0  0  0  0  0  0  0  0
   67.9527   77.3394   88.0660 C   0  0  0  0  0  0  0  0  0  0  0  0
   67.1918   76.1798   88.4103 O   0  0  0  0  0  0  0  0  0  0  0  0
   69.0277   74.4632   91.1369 C   0  0  0  0  0  0  0  0  0  0  0  0
   68.5502   75.4531   90.2585 C   0  0  0  0  0  0  0  0  0  0  0  0
   67.6298   75.1438   89.2514 C   0  0  0  0  0  0  0  0  0  0  0  0
   67.1828   73.8189   89.1147 C   0  0  0  0  0  0  0  0  0  0  0  0
   67.6333   72.8317   89.9913 C   0  0  0  0  0  0  0  0  0  0  0  0
   68.5336   73.1419   91.0157 C   0  0  0  0  0  0  0  0  0  0  0  0
   68.8820   72.1245   91.9066 O   0  0  0  0  0  0  0  0  0  0  0  0
   68.5337   71.2622   91.7925 H   0  0  0  0  0  0  0  0  0  0  0  0
   70.0332   74.3222   93.2840 O   0  0  0  0  0  0  0  0  0  0  0  0
   70.0571   74.8333   92.1320 C   0  0  0  0  0  0  0  0  0  0  0  0
   71.0234   75.7882   91.8291 O   0  0  0  0  0  0  0  0  0  0  0  0
   71.0495   76.1740   90.9756 H   0  0  0  0  0  0  0  0  0  0  0  0
 31 32  2  0  0  0
 32 33  1  0  0  0
 32 23  1  0  0  0
 23 24  2  0  0  0
 24 25  1  0  0  0
 25 22  1  0  0  0
 22 21  1  0  0  0
 21  1  1  0  0  0
  1  2  2  0  0  0
  2  3  1  0  0  0
  3  4  2  0  0  0
  4  5  1  0  0  0
  5  7  1  0  0  0
  7  8  2  0  0  0
  8  9  1  0  0  0
  9 13  1  0  0  0
 13 14  1  0  0  0
 14 15  1  0  0  0
 15 16  2  0  0  0
 16 17  1  0  0  0
 17 18  2  0  0  0
 18 19  1  0  0  0
 19 20  2  0  0  0
  9 10  2  0  0  0
 10 11  1  0  0  0
 11 12  2  0  0  0
  5  6  2  0  0  0
 25 26  2  0  0  0
 26 27  1  0  0  0
 27 28  2  0  0  0
 28 29  1  0  0  0
 28 23  1  0  0  0
  6  1  1  0  0  0
 12  7  2  0  0  0
 20 15  1  0  0  0
 33 34  1  0  0  0
 29 30  1  0  0  0
M  END
> <score>
-0.038268

> <minimizedAffinity>
-8.21520

> <CNNscore>
0.6610059738

> <CNNaffinity>
6.1944150925

> <CNN_VS>
4.0945453644

$$$$
HIPS7010


 34 37  0  0  0  0  0  0  0  0999 V2000
   66.9631   75.3046   87.4909 C   0  0  0  0  0  0  0  0  0  0  0  0
   67.0962   75.8359   86.1999 C   0  0  0  0  0  0  0  0  0  0  0  0
   67.1105   77.2187   86.0069 C   0  0  0  0  0  0  0  0  0  0  0  0
   67.0048   78.0830   87.0994 C   0  0  0  0  0  0  0  0  0  0  0  0
   66.9001   77.5721   88.4046 C   0  0  0  0  0  0  0  0  0  0  0  0
   66.8807   76.1754   88.5891 C   0  0  0  0  0  0  0  0  0  0  0  0
   66.7671   78.4984   89.5570 C   0  0  0  0  0  0  0  0  0  0  0  0
   66.8588   78.0366   90.8813 C   0  0  0  0  0  0  0  0  0  0  0  0
   66.6512   78.9260   91.9495 C   0  0  0  0  0  0  0  0  0  0  0  0
   66.4151   80.2744   91.6714 C   0  0  0  0  0  0  0  0  0  0  0  0
   66.3705   80.7099   90.3463 C   0  0  0  0  0  0  0  0  0  0  0  0
   66.5375   79.8223   89.3312 N   0  0  0  0  0  0  0  0  0  0  0  0
   66.6627   78.5105   93.2915 O   0  0  0  0  0  0  0  0  0  0  0  0
   65.7260   77.6063   93.8818 C   0  0  0  0  0  0  0  0  0  0  0  0
   66.3777   76.2856   94.2042 C   0  0  0  0  0  0  0  0  0  0  0  0
   65.6529   75.0855   94.0986 C   0  0  0  0  0  0  0  0  0  0  0  0
   66.2597   73.8658   94.4124 C   0  0  0  0  0  0  0  0  0  0  0  0
   67.5963   73.8327   94.8175 C   0  0  0  0  0  0  0  0  0  0  0  0
   68.3277   75.0197   94.9134 C   0  0  0  0  0  0  0  0  0  0  0  0
   67.7231   76.2426   94.6056 C   0  0  0  0  0  0  0  0  0  0  0  0
   66.9444   73.8120   87.7024 C   0  0  0  0  0  0  0  0  0  0  0  0
   66.7285   73.4889   89.0777 O   0  0  0  0  0  0  0  0  0  0  0  0
   69.2810   71.8712   91.2269 C   0  0  0  0  0  0  0  0  0  0  0  0
   68.2671   72.0776   90.2735 C   0  0  0  0  0  0  0  0  0  0  0  0
   67.7369   73.3519   90.0456 C   0  0  0  0  0  0  0  0  0  0  0  0
   68.2240   74.4400   90.7890 C   0  0  0  0  0  0  0  0  0  0  0  0
   69.2426   74.2525   91.7235 C   0  0  0  0  0  0  0  0  0  0  0  0
   69.7934   72.9846   91.9359 C   0  0  0  0  0  0  0  0  0  0  0  0
   70.8637   72.8804   92.8267 O   0  0  0  0  0  0  0  0  0  0  0  0
   71.1741   73.6412   93.2772 H   0  0  0  0  0  0  0  0  0  0  0  0
   70.1944   69.7928   90.5292 O   0  0  0  0  0  0  0  0  0  0  0  0
   69.7484   70.4910   91.4791 C   0  0  0  0  0  0  0  0  0  0  0  0
   69.6475   69.9305   92.7491 O   0  0  0  0  0  0  0  0  0  0  0  0
   69.3172   70.4413   93.4618 H   0  0  0  0  0  0  0  0  0  0  0  0
 31 32  2  0  0  0
 32 33  1  0  0  0
 32 23  1  0  0  0
 23 24  2  0  0  0
 24 25  1  0  0  0
 25 22  1  0  0  0
 22 21  1  0  0  0
 21  1  1  0  0  0
  1  2  2  0  0  0
  2  3  1  0  0  0
  3  4  2  0  0  0
  4  5  1  0  0  0
  5  7  1  0  0  0
  7  8  2  0  0  0
  8  9  1  0  0  0
  9 13  1  0  0  0
 13 14  1  0  0  0
 14 15  1  0  0  0
 15 16  2  0  0  0
 16 17  1  0  0  0
 17 18  2  0  0  0
 18 19  1  0  0  0
 19 20  2  0  0  0
  9 10  2  0  0  0
 10 11  1  0  0  0
 11 12  2  0  0  0
  5  6  2  0  0  0
 25 26  2  0  0  0
 26 27  1  0  0  0
 27 28  2  0  0  0
 28 29  1  0  0  0
 28 23  1  0  0  0
  6  1  1  0  0  0
 12  7  2  0  0  0
 20 15  1  0  0  0
 33 34  1  0  0  0
 29 30  1  0  0  0
M  END
> <score>
-0.038268

> <minimizedAffinity>
-7.54444

> <CNNscore>
0.6395350695

> <CNNaffinity>
6.6698722839

> <CNN_VS>
4.2656173706

$$$$
HIPS7010


 34 37  0  0  0  0  0  0  0  0999 V2000
   66.9072   76.0446   87.9459 C   0  0  0  0  0  0  0  0  0  0  0  0
   67.1649   75.8773   86.5775 C   0  0  0  0  0  0  0  0  0  0  0  0
   67.5689   76.9645   85.8003 C   0  0  0  0  0  0  0  0  0  0  0  0
   67.7313   78.2242   86.3822 C   0  0  0  0  0  0  0  0  0  0  0  0
   67.5069   78.4079   87.7575 C   0  0  0  0  0  0  0  0  0  0  0  0
   67.0939   77.3064   88.5328 C   0  0  0  0  0  0  0  0  0  0  0  0
   67.6617   79.7548   88.3624 C   0  0  0  0  0  0  0  0  0  0  0  0
   67.2954   80.9175   87.6629 C   0  0  0  0  0  0  0  0  0  0  0  0
   67.5269   82.1808   88.2336 C   0  0  0  0  0  0  0  0  0  0  0  0
   68.0660   82.2538   89.5201 C   0  0  0  0  0  0  0  0  0  0  0  0
   68.3815   81.0798   90.2055 C   0  0  0  0  0  0  0  0  0  0  0  0
   68.1823   79.8719   89.6161 N   0  0  0  0  0  0  0  0  0  0  0  0
   67.2451   83.3788   87.5559 O   0  0  0  0  0  0  0  0  0  0  0  0
   68.0228   83.9230   86.4871 C   0  0  0  0  0  0  0  0  0  0  0  0
   69.3065   84.5226   87.0023 C   0  0  0  0  0  0  0  0  0  0  0  0
   69.3218   85.8170   87.5511 C   0  0  0  0  0  0  0  0  0  0  0  0
   70.5183   86.3720   88.0143 C   0  0  0  0  0  0  0  0  0  0  0  0
   71.7034   85.6350   87.9486 C   0  0  0  0  0  0  0  0  0  0  0  0
   71.6949   84.3430   87.4158 C   0  0  0  0  0  0  0  0  0  0  0  0
   70.5011   83.7860   86.9463 C   0  0  0  0  0  0  0  0  0  0  0  0
   66.4682   74.8733   88.7874 C   0  0  0  0  0  0  0  0  0  0  0  0
   67.5358   73.9411   88.9704 O   0  0  0  0  0  0  0  0  0  0  0  0
   69.5518   74.8697   91.9410 C   0  0  0  0  0  0  0  0  0  0  0  0
   68.7912   74.9464   90.7599 C   0  0  0  0  0  0  0  0  0  0  0  0
   68.2899   73.7937   90.1461 C   0  0  0  0  0  0  0  0  0  0  0  0
   68.5593   72.5395   90.7191 C   0  0  0  0  0  0  0  0  0  0  0  0
   69.2957   72.4507   91.9006 C   0  0  0  0  0  0  0  0  0  0  0  0
   69.7766   73.6026   92.5315 C   0  0  0  0  0  0  0  0  0  0  0  0
   70.4371   73.4488   93.7523 O   0  0  0  0  0  0  0  0  0  0  0  0
   70.5665   72.5927   94.1104 H   0  0  0  0  0  0  0  0  0  0  0  0
   70.6759   76.9525   91.7421 O   0  0  0  0  0  0  0  0  0  0  0  0
   70.1200   76.1145   92.5020 C   0  0  0  0  0  0  0  0  0  0  0  0
   70.0995   76.3463   93.8743 O   0  0  0  0  0  0  0  0  0  0  0  0
   69.6887   75.7294   94.4476 H   0  0  0  0  0  0  0  0  0  0  0  0
 31 32  2  0  0  0
 32 33  1  0  0  0
 32 23  1  0  0  0
 23 24  2  0  0  0
 24 25  1  0  0  0
 25 22  1  0  0  0
 22 21  1  0  0  0
 21  1  1  0  0  0
  1  2  2  0  0  0
  2  3  1  0  0  0
  3  4  2  0  0  0
  4  5  1  0  0  0
  5  7  1  0  0  0
  7  8  2  0  0  0
  8  9  1  0  0  0
  9 13  1  0  0  0
 13 14  1  0  0  0
 14 15  1  0  0  0
 15 16  2  0  0  0
 16 17  1  0  0  0
 17 18  2  0  0  0
 18 19  1  0  0  0
 19 20  2  0  0  0
  9 10  2  0  0  0
 10 11  1  0  0  0
 11 12  2  0  0  0
  5  6  2  0  0  0
 25 26  2  0  0  0
 26 27  1  0  0  0
 27 28  2  0  0  0
 28 29  1  0  0  0
 28 23  1  0  0  0
  6  1  1  0  0  0
 12  7  2  0  0  0
 20 15  1  0  0  0
 33 34  1  0  0  0
 29 30  1  0  0  0
M  END
> <score>
-0.038268

> <minimizedAffinity>
-8.71839

> <CNNscore>
0.6352295876

> <CNNaffinity>
6.3723592758

> <CNN_VS>
4.0479111671

$$$$
HIPS7011


 34 37  0  0  0  0  0  0  0  0999 V2000
   67.4340   75.1568   89.0257 C   0  0  0  0  0  0  0  0  0  0  0  0
   66.7364   74.3406   88.1235 C   0  0  0  0  0  0  0  0  0  0  0  0
   66.7091   72.9567   88.3048 C   0  0  0  0  0  0  0  0  0  0  0  0
   67.3875   72.3747   89.3783 C   0  0  0  0  0  0  0  0  0  0  0  0
   68.1078   73.1741   90.2843 C   0  0  0  0  0  0  0  0  0  0  0  0
   68.1292   74.5686   90.0944 C   0  0  0  0  0  0  0  0  0  0  0  0
   68.8389   72.5557   91.4201 C   0  0  0  0  0  0  0  0  0  0  0  0
   69.1276   71.1845   91.4232 C   0  0  0  0  0  0  0  0  0  0  0  0
   69.8192   70.6214   92.4963 C   0  0  0  0  0  0  0  0  0  0  0  0
   70.2168   71.3897   93.5561 N   0  0  0  0  0  0  0  0  0  0  0  0
   69.9503   72.7365   93.5694 C   0  0  0  0  0  0  0  0  0  0  0  0
   70.3211   73.4570   94.5360 O   0  0  0  0  0  0  0  0  0  0  0  0
   69.2595   73.3321   92.5090 C   0  0  0  0  0  0  0  0  0  0  0  0
   70.9746   70.7567   94.6481 C   0  0  0  0  0  0  0  0  0  0  0  0
   72.3461   70.3604   94.1694 C   0  0  0  0  0  0  0  0  0  0  0  0
   73.1992   69.6088   94.9949 C   0  0  0  0  0  0  0  0  0  0  0  0
   74.4852   69.2737   94.5599 C   0  0  0  0  0  0  0  0  0  0  0  0
   74.9309   69.6916   93.3031 C   0  0  0  0  0  0  0  0  0  0  0  0
   74.0915   70.4466   92.4797 C   0  0  0  0  0  0  0  0  0  0  0  0
   72.8047   70.7835   92.9108 C   0  0  0  0  0  0  0  0  0  0  0  0
   67.5018   76.6401   88.8090 C   0  0  0  0  0  0  0  0  0  0  0  0
   67.2503   77.3047   90.0439 O   0  0  0  0  0  0  0  0  0  0  0  0
   70.2264   77.0014   92.2330 C   0  0  0  0  0  0  0  0  0  0  0  0
   69.4053   77.1613   91.1022 C   0  0  0  0  0  0  0  0  0  0  0  0
   68.0112   77.1302   91.2094 C   0  0  0  0  0  0  0  0  0  0  0  0
   67.4239   76.9328   92.4700 C   0  0  0  0  0  0  0  0  0  0  0  0
   68.2259   76.7527   93.5974 C   0  0  0  0  0  0  0  0  0  0  0  0
   69.6209   76.7627   93.4922 C   0  0  0  0  0  0  0  0  0  0  0  0
   70.3603   76.4982   94.6471 O   0  0  0  0  0  0  0  0  0  0  0  0
   69.9205   76.3457   95.4603 H   0  0  0  0  0  0  0  0  0  0  0  0
   72.2469   76.7396   90.9939 O   0  0  0  0  0  0  0  0  0  0  0  0
   71.6908   77.1215   92.0583 C   0  0  0  0  0  0  0  0  0  0  0  0
   72.4753   77.6065   93.1014 O   0  0  0  0  0  0  0  0  0  0  0  0
   72.0718   77.8930   93.8970 H   0  0  0  0  0  0  0  0  0  0  0  0
 31 32  2  0  0  0
 32 33  1  0  0  0
 32 23  1  0  0  0
 23 24  2  0  0  0
 24 25  1  0  0  0
 25 22  1  0  0  0
 22 21  1  0  0  0
 21  1  1  0  0  0
  1  2  2  0  0  0
  2  3  1  0  0  0
  3  4  2  0  0  0
  4  5  1  0  0  0
  5  7  1  0  0  0
  7  8  1  0  0  0
  8  9  2  0  0  0
  9 10  1  0  0  0
 10 14  1  0  0  0
 14 15  1  0  0  0
 15 16  2  0  0  0
 16 17  1  0  0  0
 17 18  2  0  0  0
 18 19  1  0  0  0
 19 20  2  0  0  0
 10 11  1  0  0  0
 11 12  2  0  0  0
 11 13  1  0  0  0
  5  6  2  0  0  0
 25 26  2  0  0  0
 26 27  1  0  0  0
 27 28  2  0  0  0
 28 29  1  0  0  0
 28 23  1  0  0  0
  6  1  1  0  0  0
 13  7  2  0  0  0
 20 15  1  0  0  0
 33 34  1  0  0  0
 29 30  1  0  0  0
M  END
> <score>
-0.078672

> <minimizedAffinity>
-8.95727

> <CNNscore>
0.6950429082

> <CNNaffinity>
6.5431957245

> <CNN_VS>
4.5478019714

$$$$
HIPS7011


 34 37  0  0  0  0  0  0  0  0999 V2000
   67.9426   76.9321   89.5212 C   0  0  0  0  0  0  0  0  0  0  0  0
   67.2262   76.2241   88.5453 C   0  0  0  0  0  0  0  0  0  0  0  0
   66.6343   76.9025   87.4784 C   0  0  0  0  0  0  0  0  0  0  0  0
   66.7402   78.2921   87.3832 C   0  0  0  0  0  0  0  0  0  0  0  0
   67.4392   79.0226   88.3612 C   0  0  0  0  0  0  0  0  0  0  0  0
   68.0338   78.3304   89.4330 C   0  0  0  0  0  0  0  0  0  0  0  0
   67.5434   80.5016   88.2673 C   0  0  0  0  0  0  0  0  0  0  0  0
   67.5791   81.1382   87.0196 C   0  0  0  0  0  0  0  0  0  0  0  0
   67.6727   82.5286   86.9502 C   0  0  0  0  0  0  0  0  0  0  0  0
   67.7376   83.2855   88.0880 N   0  0  0  0  0  0  0  0  0  0  0  0
   67.6967   82.6821   89.3205 C   0  0  0  0  0  0  0  0  0  0  0  0
   67.7452   83.3701   90.3765 O   0  0  0  0  0  0  0  0  0  0  0  0
   67.6027   81.2904   89.4247 C   0  0  0  0  0  0  0  0  0  0  0  0
   67.7997   84.7512   87.9640 C   0  0  0  0  0  0  0  0  0  0  0  0
   69.2322   85.2149   87.9734 C   0  0  0  0  0  0  0  0  0  0  0  0
   69.5645   86.4923   88.4549 C   0  0  0  0  0  0  0  0  0  0  0  0
   70.8916   86.9320   88.4285 C   0  0  0  0  0  0  0  0  0  0  0  0
   71.8939   86.1044   87.9155 C   0  0  0  0  0  0  0  0  0  0  0  0
   71.5704   84.8358   87.4269 C   0  0  0  0  0  0  0  0  0  0  0  0
   70.2445   84.3923   87.4518 C   0  0  0  0  0  0  0  0  0  0  0  0
   68.5428   76.2110   90.6924 C   0  0  0  0  0  0  0  0  0  0  0  0
   67.8771   76.6198   91.8839 O   0  0  0  0  0  0  0  0  0  0  0  0
   68.4043   74.0599   94.5128 C   0  0  0  0  0  0  0  0  0  0  0  0
   68.6137   74.9257   93.4242 C   0  0  0  0  0  0  0  0  0  0  0  0
   67.5999   75.7749   92.9689 C   0  0  0  0  0  0  0  0  0  0  0  0
   66.3507   75.7583   93.6109 C   0  0  0  0  0  0  0  0  0  0  0  0
   66.1221   74.8904   94.6791 C   0  0  0  0  0  0  0  0  0  0  0  0
   67.1263   74.0246   95.1252 C   0  0  0  0  0  0  0  0  0  0  0  0
   66.8037   73.1288   96.1469 O   0  0  0  0  0  0  0  0  0  0  0  0
   65.9464   73.1384   96.5251 H   0  0  0  0  0  0  0  0  0  0  0  0
   70.5768   73.1043   94.2815 O   0  0  0  0  0  0  0  0  0  0  0  0
   69.5437   73.2450   94.9893 C   0  0  0  0  0  0  0  0  0  0  0  0
   69.4550   72.5754   96.2068 O   0  0  0  0  0  0  0  0  0  0  0  0
   68.6912   72.6731   96.7407 H   0  0  0  0  0  0  0  0  0  0  0  0
 31 32  2  0  0  0
 32 33  1  0  0  0
 32 23  1  0  0  0
 23 24  2  0  0  0
 24 25  1  0  0  0
 25 22  1  0  0  0
 22 21  1  0  0  0
 21  1  1  0  0  0
  1  2  2  0  0  0
  2  3  1  0  0  0
  3  4  2  0  0  0
  4  5  1  0  0  0
  5  7  1  0  0  0
  7  8  1  0  0  0
  8  9  2  0  0  0
  9 10  1  0  0  0
 10 14  1  0  0  0
 14 15  1  0  0  0
 15 16  2  0  0  0
 16 17  1  0  0  0
 17 18  2  0  0  0
 18 19  1  0  0  0
 19 20  2  0  0  0
 10 11  1  0  0  0
 11 12  2  0  0  0
 11 13  1  0  0  0
  5  6  2  0  0  0
 25 26  2  0  0  0
 26 27  1  0  0  0
 27 28  2  0  0  0
 28 29  1  0  0  0
 28 23  1  0  0  0
  6  1  1  0  0  0
 13  7  2  0  0  0
 20 15  1  0  0  0
 33 34  1  0  0  0
 29 30  1  0  0  0
M  END
> <score>
-0.078672

> <minimizedAffinity>
-9.14807

> <CNNscore>
0.5676684976

> <CNNaffinity>
6.1916971207

> <CNN_VS>
3.5148313046

$$$$
HIPS7011


 34 37  0  0  0  0  0  0  0  0999 V2000
   67.0093   79.9764   90.5285 C   0  0  0  0  0  0  0  0  0  0  0  0
   66.0314   79.6996   89.5620 C   0  0  0  0  0  0  0  0  0  0  0  0
   66.1250   80.2610   88.2873 C   0  0  0  0  0  0  0  0  0  0  0  0
   67.1859   81.1127   87.9703 C   0  0  0  0  0  0  0  0  0  0  0  0
   68.1673   81.4172   88.9309 C   0  0  0  0  0  0  0  0  0  0  0  0
   68.0657   80.8460   90.2134 C   0  0  0  0  0  0  0  0  0  0  0  0
   69.2902   82.3315   88.5988 C   0  0  0  0  0  0  0  0  0  0  0  0
   69.2464   83.1292   87.4476 C   0  0  0  0  0  0  0  0  0  0  0  0
   70.3080   83.9856   87.1536 C   0  0  0  0  0  0  0  0  0  0  0  0
   71.4016   84.0549   87.9725 N   0  0  0  0  0  0  0  0  0  0  0  0
   71.4612   83.2872   89.1092 C   0  0  0  0  0  0  0  0  0  0  0  0
   72.4596   83.3501   89.8775 O   0  0  0  0  0  0  0  0  0  0  0  0
   70.4136   82.4188   89.4329 C   0  0  0  0  0  0  0  0  0  0  0  0
   72.4805   84.9995   87.6391 C   0  0  0  0  0  0  0  0  0  0  0  0
   72.1239   86.3850   88.1084 C   0  0  0  0  0  0  0  0  0  0  0  0
   73.1269   87.3457   88.3202 C   0  0  0  0  0  0  0  0  0  0  0  0
   72.7941   88.6200   88.7903 C   0  0  0  0  0  0  0  0  0  0  0  0
   71.4610   88.9417   89.0586 C   0  0  0  0  0  0  0  0  0  0  0  0
   70.4585   87.9891   88.8586 C   0  0  0  0  0  0  0  0  0  0  0  0
   70.7871   86.7139   88.3884 C   0  0  0  0  0  0  0  0  0  0  0  0
   66.8881   79.4097   91.9127 C   0  0  0  0  0  0  0  0  0  0  0  0
   66.5115   78.0384   91.8248 O   0  0  0  0  0  0  0  0  0  0  0  0
   68.9423   75.5863   93.1741 C   0  0  0  0  0  0  0  0  0  0  0  0
   68.0353   76.6564   93.0711 C   0  0  0  0  0  0  0  0  0  0  0  0
   67.4123   76.9635   91.8572 C   0  0  0  0  0  0  0  0  0  0  0  0
   67.7020   76.1889   90.7218 C   0  0  0  0  0  0  0  0  0  0  0  0
   68.6148   75.1369   90.8042 C   0  0  0  0  0  0  0  0  0  0  0  0
   69.2559   74.8386   92.0112 C   0  0  0  0  0  0  0  0  0  0  0  0
   70.2151   73.8236   92.0027 O   0  0  0  0  0  0  0  0  0  0  0  0
   70.3923   73.3531   91.2119 H   0  0  0  0  0  0  0  0  0  0  0  0
   69.8268   76.1906   95.3045 O   0  0  0  0  0  0  0  0  0  0  0  0
   69.5056   75.2706   94.5054 C   0  0  0  0  0  0  0  0  0  0  0  0
   69.7406   73.9453   94.8615 O   0  0  0  0  0  0  0  0  0  0  0  0
   69.5055   73.2537   94.2746 H   0  0  0  0  0  0  0  0  0  0  0  0
 31 32  2  0  0  0
 32 33  1  0  0  0
 32 23  1  0  0  0
 23 24  2  0  0  0
 24 25  1  0  0  0
 25 22  1  0  0  0
 22 21  1  0  0  0
 21  1  1  0  0  0
  1  2  2  0  0  0
  2  3  1  0  0  0
  3  4  2  0  0  0
  4  5  1  0  0  0
  5  7  1  0  0  0
  7  8  1  0  0  0
  8  9  2  0  0  0
  9 10  1  0  0  0
 10 14  1  0  0  0
 14 15  1  0  0  0
 15 16  2  0  0  0
 16 17  1  0  0  0
 17 18  2  0  0  0
 18 19  1  0  0  0
 19 20  2  0  0  0
 10 11  1  0  0  0
 11 12  2  0  0  0
 11 13  1  0  0  0
  5  6  2  0  0  0
 25 26  2  0  0  0
 26 27  1  0  0  0
 27 28  2  0  0  0
 28 29  1  0  0  0
 28 23  1  0  0  0
  6  1  1  0  0  0
 13  7  2  0  0  0
 20 15  1  0  0  0
 33 34  1  0  0  0
 29 30  1  0  0  0
M  END
> <score>
-0.078672

> <minimizedAffinity>
-8.68253

> <CNNscore>
0.5315082669

> <CNNaffinity>
6.1881971359

> <CNN_VS>
3.2890779972

$$$$
HIPS7012


 32 35  0  0  0  0  0  0  0  0999 V2000
   67.2235   78.2047   88.6216 C   0  0  0  0  0  0  0  0  0  0  0  0
   67.3296   79.4108   87.9146 C   0  0  0  0  0  0  0  0  0  0  0  0
   67.2571   80.6223   88.6029 C   0  0  0  0  0  0  0  0  0  0  0  0
   67.0916   80.6253   89.9935 C   0  0  0  0  0  0  0  0  0  0  0  0
   67.0294   81.8258   90.7119 C   0  0  0  0  0  0  0  0  0  0  0  0
   66.8784   81.7999   92.1000 C   0  0  0  0  0  0  0  0  0  0  0  0
   66.7867   80.5806   92.7779 C   0  0  0  0  0  0  0  0  0  0  0  0
   66.8458   79.3630   92.0706 C   0  0  0  0  0  0  0  0  0  0  0  0
   66.9952   79.3911   90.6750 C   0  0  0  0  0  0  0  0  0  0  0  0
   67.0671   78.2270   89.9737 N   0  0  0  0  0  0  0  0  0  0  0  0
   67.3109   76.8851   87.9115 C   0  0  0  0  0  0  0  0  0  0  0  0
   66.6925   75.8554   88.6839 O   0  0  0  0  0  0  0  0  0  0  0  0
   68.9941   74.0298   91.0143 C   0  0  0  0  0  0  0  0  0  0  0  0
   68.3406   75.0866   90.3534 C   0  0  0  0  0  0  0  0  0  0  0  0
   67.3710   74.8310   89.3644 C   0  0  0  0  0  0  0  0  0  0  0  0
   67.0595   73.5086   89.0411 C   0  0  0  0  0  0  0  0  0  0  0  0
   67.6981   72.4505   89.6887 C   0  0  0  0  0  0  0  0  0  0  0  0
   68.6649   72.6992   90.6719 C   0  0  0  0  0  0  0  0  0  0  0  0
   69.2981   71.6252   91.2965 O   0  0  0  0  0  0  0  0  0  0  0  0
   69.0719   70.7468   91.0615 H   0  0  0  0  0  0  0  0  0  0  0  0
   70.2945   73.4982   92.9454 O   0  0  0  0  0  0  0  0  0  0  0  0
   70.0052   74.3402   92.0548 C   0  0  0  0  0  0  0  0  0  0  0  0
   70.6330   75.5839   92.0683 O   0  0  0  0  0  0  0  0  0  0  0  0
   70.4272   76.2198   91.4116 H   0  0  0  0  0  0  0  0  0  0  0  0
   66.7575   78.1156   92.7113 O   0  0  0  0  0  0  0  0  0  0  0  0
   67.8485   77.4199   93.3153 C   0  0  0  0  0  0  0  0  0  0  0  0
   67.3558   76.1747   94.0016 C   0  0  0  0  0  0  0  0  0  0  0  0
   66.0551   75.6934   93.7742 C   0  0  0  0  0  0  0  0  0  0  0  0
   65.6026   74.5497   94.4400 C   0  0  0  0  0  0  0  0  0  0  0  0
   66.4452   73.8780   95.3308 C   0  0  0  0  0  0  0  0  0  0  0  0
   67.7421   74.3472   95.5565 C   0  0  0  0  0  0  0  0  0  0  0  0
   68.1975   75.4910   94.8943 C   0  0  0  0  0  0  0  0  0  0  0  0
 21 22  2  0  0  0
 22 23  1  0  0  0
 22 13  1  0  0  0
 13 14  2  0  0  0
 14 15  1  0  0  0
 15 12  1  0  0  0
 12 11  1  0  0  0
 11  1  1  0  0  0
  1  2  2  0  0  0
  2  3  1  0  0  0
  3  4  2  0  0  0
  4  5  1  0  0  0
  5  6  2  0  0  0
  6  7  1  0  0  0
  7  8  2  0  0  0
  8 25  1  0  0  0
 25 26  1  0  0  0
 26 27  1  0  0  0
 27 28  2  0  0  0
 28 29  1  0  0  0
 29 30  2  0  0  0
 30 31  1  0  0  0
 31 32  2  0  0  0
  8  9  1  0  0  0
  9 10  2  0  0  0
 15 16  2  0  0  0
 16 17  1  0  0  0
 17 18  2  0  0  0
 18 19  1  0  0  0
 18 13  1  0  0  0
 10  1  2  0  0  0
  9  4  1  0  0  0
 32 27  1  0  0  0
 23 24  1  0  0  0
 19 20  1  0  0  0
M  END
> <score>
0.07621

> <minimizedAffinity>
-8.26527

> <CNNscore>
0.9024624825

> <CNNaffinity>
6.7113656998

> <CNN_VS>
6.0567555428

$$$$
HIPS7012


 32 35  0  0  0  0  0  0  0  0999 V2000
   66.4252   79.7098   92.3935 C   0  0  0  0  0  0  0  0  0  0  0  0
   66.7594   81.0715   92.3972 C   0  0  0  0  0  0  0  0  0  0  0  0
   67.0829   81.7053   91.1970 C   0  0  0  0  0  0  0  0  0  0  0  0
   67.0597   80.9819   89.9982 C   0  0  0  0  0  0  0  0  0  0  0  0
   67.3664   81.5954   88.7771 C   0  0  0  0  0  0  0  0  0  0  0  0
   67.3215   80.8541   87.5945 C   0  0  0  0  0  0  0  0  0  0  0  0
   66.9738   79.5002   87.6222 C   0  0  0  0  0  0  0  0  0  0  0  0
   66.6637   78.8665   88.8422 C   0  0  0  0  0  0  0  0  0  0  0  0
   66.7116   79.6126   90.0304 C   0  0  0  0  0  0  0  0  0  0  0  0
   66.4039   79.0237   91.2180 N   0  0  0  0  0  0  0  0  0  0  0  0
   66.0596   79.0028   93.6663 C   0  0  0  0  0  0  0  0  0  0  0  0
   65.7431   77.6342   93.4092 O   0  0  0  0  0  0  0  0  0  0  0  0
   68.3999   75.0562   94.0066 C   0  0  0  0  0  0  0  0  0  0  0  0
   67.7301   76.1703   93.4671 C   0  0  0  0  0  0  0  0  0  0  0  0
   66.4445   76.5284   93.9173 C   0  0  0  0  0  0  0  0  0  0  0  0
   65.8331   75.7628   94.9124 C   0  0  0  0  0  0  0  0  0  0  0  0
   66.4853   74.6563   95.4575 C   0  0  0  0  0  0  0  0  0  0  0  0
   67.7635   74.2944   95.0120 C   0  0  0  0  0  0  0  0  0  0  0  0
   68.3900   73.1774   95.5635 O   0  0  0  0  0  0  0  0  0  0  0  0
   67.9586   72.6795   96.2298 H   0  0  0  0  0  0  0  0  0  0  0  0
   70.4473   75.5634   92.8870 O   0  0  0  0  0  0  0  0  0  0  0  0
   69.7558   74.7152   93.5102 C   0  0  0  0  0  0  0  0  0  0  0  0
   70.2716   73.4368   93.7122 O   0  0  0  0  0  0  0  0  0  0  0  0
   69.7678   72.7960   94.1742 H   0  0  0  0  0  0  0  0  0  0  0  0
   66.3095   77.5087   88.9161 O   0  0  0  0  0  0  0  0  0  0  0  0
   66.6672   76.5102   87.9600 C   0  0  0  0  0  0  0  0  0  0  0  0
   67.0638   75.2383   88.6594 C   0  0  0  0  0  0  0  0  0  0  0  0
   67.8885   75.2686   89.7969 C   0  0  0  0  0  0  0  0  0  0  0  0
   68.2703   74.0761   90.4201 C   0  0  0  0  0  0  0  0  0  0  0  0
   67.8281   72.8493   89.9162 C   0  0  0  0  0  0  0  0  0  0  0  0
   67.0022   72.8122   88.7894 C   0  0  0  0  0  0  0  0  0  0  0  0
   66.6199   74.0017   88.1626 C   0  0  0  0  0  0  0  0  0  0  0  0
 21 22  2  0  0  0
 22 23  1  0  0  0
 22 13  1  0  0  0
 13 14  2  0  0  0
 14 15  1  0  0  0
 15 12  1  0  0  0
 12 11  1  0  0  0
 11  1  1  0  0  0
  1  2  2  0  0  0
  2  3  1  0  0  0
  3  4  2  0  0  0
  4  5  1  0  0  0
  5  6  2  0  0  0
  6  7  1  0  0  0
  7  8  2  0  0  0
  8 25  1  0  0  0
 25 26  1  0  0  0
 26 27  1  0  0  0
 27 28  2  0  0  0
 28 29  1  0  0  0
 29 30  2  0  0  0
 30 31  1  0  0  0
 31 32  2  0  0  0
  8  9  1  0  0  0
  9 10  2  0  0  0
 15 16  2  0  0  0
 16 17  1  0  0  0
 17 18  2  0  0  0
 18 19  1  0  0  0
 18 13  1  0  0  0
 10  1  2  0  0  0
  9  4  1  0  0  0
 32 27  1  0  0  0
 23 24  1  0  0  0
 19 20  1  0  0  0
M  END
> <score>
0.07621

> <minimizedAffinity>
-8.74493

> <CNNscore>
0.8668639660

> <CNNaffinity>
6.7604131699

> <CNN_VS>
5.8603587151

$$$$
HIPS7012


 32 35  0  0  0  0  0  0  0  0999 V2000
   66.5518   79.8211   89.6052 C   0  0  0  0  0  0  0  0  0  0  0  0
   65.8123   79.9658   90.7876 C   0  0  0  0  0  0  0  0  0  0  0  0
   65.7439   81.2127   91.4099 C   0  0  0  0  0  0  0  0  0  0  0  0
   66.4025   82.3114   90.8440 C   0  0  0  0  0  0  0  0  0  0  0  0
   66.3397   83.5776   91.4392 C   0  0  0  0  0  0  0  0  0  0  0  0
   66.9940   84.6593   90.8459 C   0  0  0  0  0  0  0  0  0  0  0  0
   67.7144   84.4854   89.6605 C   0  0  0  0  0  0  0  0  0  0  0  0
   67.7895   83.2179   89.0487 C   0  0  0  0  0  0  0  0  0  0  0  0
   67.1331   82.1311   89.6478 C   0  0  0  0  0  0  0  0  0  0  0  0
   67.1821   80.9011   89.0674 N   0  0  0  0  0  0  0  0  0  0  0  0
   66.6337   78.4958   88.9050 C   0  0  0  0  0  0  0  0  0  0  0  0
   67.9901   78.1713   88.5979 O   0  0  0  0  0  0  0  0  0  0  0  0
   69.9323   76.3074   91.2085 C   0  0  0  0  0  0  0  0  0  0  0  0
   68.9224   76.6244   90.2809 C   0  0  0  0  0  0  0  0  0  0  0  0
   68.9740   77.8187   89.5362 C   0  0  0  0  0  0  0  0  0  0  0  0
   70.0447   78.6948   89.7267 C   0  0  0  0  0  0  0  0  0  0  0  0
   71.0539   78.3935   90.6419 C   0  0  0  0  0  0  0  0  0  0  0  0
   71.0065   77.2077   91.3867 C   0  0  0  0  0  0  0  0  0  0  0  0
   72.0206   76.9343   92.3039 O   0  0  0  0  0  0  0  0  0  0  0  0
   72.7282   77.5385   92.4139 H   0  0  0  0  0  0  0  0  0  0  0  0
   69.4363   73.9809   91.4174 O   0  0  0  0  0  0  0  0  0  0  0  0
   69.8451   75.0365   91.9691 C   0  0  0  0  0  0  0  0  0  0  0  0
   70.1974   75.0044   93.3167 O   0  0  0  0  0  0  0  0  0  0  0  0
   70.5031   75.7826   93.7396 H   0  0  0  0  0  0  0  0  0  0  0  0
   68.5021   82.9982   87.8578 O   0  0  0  0  0  0  0  0  0  0  0  0
   69.6231   83.7637   87.4146 C   0  0  0  0  0  0  0  0  0  0  0  0
   70.8196   83.4854   88.2837 C   0  0  0  0  0  0  0  0  0  0  0  0
   71.9874   84.2592   88.1712 C   0  0  0  0  0  0  0  0  0  0  0  0
   73.1006   83.9712   88.9673 C   0  0  0  0  0  0  0  0  0  0  0  0
   73.0535   82.9150   89.8821 C   0  0  0  0  0  0  0  0  0  0  0  0
   71.8932   82.1457   90.0040 C   0  0  0  0  0  0  0  0  0  0  0  0
   70.7790   82.4292   89.2088 C   0  0  0  0  0  0  0  0  0  0  0  0
 21 22  2  0  0  0
 22 23  1  0  0  0
 22 13  1  0  0  0
 13 14  2  0  0  0
 14 15  1  0  0  0
 15 12  1  0  0  0
 12 11  1  0  0  0
 11  1  1  0  0  0
  1  2  2  0  0  0
  2  3  1  0  0  0
  3  4  2  0  0  0
  4  5  1  0  0  0
  5  6  2  0  0  0
  6  7  1  0  0  0
  7  8  2  0  0  0
  8 25  1  0  0  0
 25 26  1  0  0  0
 26 27  1  0  0  0
 27 28  2  0  0  0
 28 29  1  0  0  0
 29 30  2  0  0  0
 30 31  1  0  0  0
 31 32  2  0  0  0
  8  9  1  0  0  0
  9 10  2  0  0  0
 15 16  2  0  0  0
 16 17  1  0  0  0
 17 18  2  0  0  0
 18 19  1  0  0  0
 18 13  1  0  0  0
 10  1  2  0  0  0
  9  4  1  0  0  0
 32 27  1  0  0  0
 23 24  1  0  0  0
 19 20  1  0  0  0
M  END
> <score>
0.07621

> <minimizedAffinity>
-8.39419

> <CNNscore>
0.7489317060

> <CNNaffinity>
6.5572900772

> <CNN_VS>
4.9109625816

$$$$
HIPS7013


 32 35  0  0  0  0  0  0  0  0999 V2000
   66.1853   78.9630   92.9182 C   0  0  0  0  0  0  0  0  0  0  0  0
   66.3287   78.3542   91.6632 C   0  0  0  0  0  0  0  0  0  0  0  0
   66.9290   79.0436   90.5967 C   0  0  0  0  0  0  0  0  0  0  0  0
   67.4016   80.3506   90.8072 C   0  0  0  0  0  0  0  0  0  0  0  0
   67.2799   80.9683   92.0641 C   0  0  0  0  0  0  0  0  0  0  0  0
   66.6719   80.2627   93.1158 C   0  0  0  0  0  0  0  0  0  0  0  0
   67.0573   78.4019   89.2635 C   0  0  0  0  0  0  0  0  0  0  0  0
   66.8769   77.0165   89.1090 C   0  0  0  0  0  0  0  0  0  0  0  0
   66.9978   76.4291   87.8486 C   0  0  0  0  0  0  0  0  0  0  0  0
   67.2972   77.2300   86.7464 C   0  0  0  0  0  0  0  0  0  0  0  0
   67.4680   78.5686   86.9047 N   0  0  0  0  0  0  0  0  0  0  0  0
   67.3580   79.1658   88.1215 C   0  0  0  0  0  0  0  0  0  0  0  0
   67.7842   82.3492   92.2766 C   0  0  0  0  0  0  0  0  0  0  0  0
   67.8320   82.9084   93.5652 C   0  0  0  0  0  0  0  0  0  0  0  0
   68.3105   84.2066   93.7498 C   0  0  0  0  0  0  0  0  0  0  0  0
   68.7386   84.9416   92.6441 C   0  0  0  0  0  0  0  0  0  0  0  0
   68.6875   84.3934   91.4019 N   0  0  0  0  0  0  0  0  0  0  0  0
   68.2279   83.1304   91.1946 C   0  0  0  0  0  0  0  0  0  0  0  0
   65.5128   78.2321   94.0512 C   0  0  0  0  0  0  0  0  0  0  0  0
   65.4510   76.8300   93.7841 O   0  0  0  0  0  0  0  0  0  0  0  0
   68.4696   74.6346   94.1527 C   0  0  0  0  0  0  0  0  0  0  0  0
   67.5990   75.6216   93.6524 C   0  0  0  0  0  0  0  0  0  0  0  0
   66.3560   75.8693   94.2653 C   0  0  0  0  0  0  0  0  0  0  0  0
   65.9967   75.1358   95.3978 C   0  0  0  0  0  0  0  0  0  0  0  0
   66.8504   74.1595   95.9101 C   0  0  0  0  0  0  0  0  0  0  0  0
   68.0830   73.8987   95.2964 C   0  0  0  0  0  0  0  0  0  0  0  0
   68.9142   72.9109   95.8251 O   0  0  0  0  0  0  0  0  0  0  0  0
   68.6466   72.4301   96.5836 H   0  0  0  0  0  0  0  0  0  0  0  0
   70.3345   73.2716   93.5314 O   0  0  0  0  0  0  0  0  0  0  0  0
   69.7638   74.3933   93.4637 C   0  0  0  0  0  0  0  0  0  0  0  0
   70.3646   75.4124   92.7281 O   0  0  0  0  0  0  0  0  0  0  0  0
   69.9531   76.2520   92.6679 H   0  0  0  0  0  0  0  0  0  0  0  0
 29 30  2  0  0  0
 30 31  1  0  0  0
 30 21  1  0  0  0
 21 22  2  0  0  0
 22 23  1  0  0  0
 23 20  1  0  0  0
 20 19  1  0  0  0
 19  1  1  0  0  0
  1  2  2  0  0  0
  2  3  1  0  0  0
  3  7  1  0  0  0
  7  8  2  0  0  0
  8  9  1  0  0  0
  9 10  2  0  0  0
 10 11  2  0  0  0
 11 12  2  0  0  0
  3  4  2  0  0  0
  4  5  1  0  0  0
  5 13  1  0  0  0
 13 14  2  0  0  0
 14 15  1  0  0  0
 15 16  2  0  0  0
 16 17  2  0  0  0
 17 18  2  0  0  0
  5  6  2  0  0  0
 23 24  2  0  0  0
 24 25  1  0  0  0
 25 26  2  0  0  0
 26 27  1  0  0  0
 26 21  1  0  0  0
  6  1  1  0  0  0
 12  7  1  0  0  0
 18 13  1  0  0  0
 31 32  1  0  0  0
 27 28  1  0  0  0
M  END
> <score>
0.239319

> <minimizedAffinity>
-7.95390

> <CNNscore>
0.7747097015

> <CNNaffinity>
6.4936113358

> <CNN_VS>
5.0306634903

$$$$
HIPS7013


 32 35  0  0  0  0  0  0  0  0999 V2000
   67.4185   78.8688   90.7369 C   0  0  0  0  0  0  0  0  0  0  0  0
   67.3993   80.2384   90.4366 C   0  0  0  0  0  0  0  0  0  0  0  0
   67.4002   80.6797   89.1030 C   0  0  0  0  0  0  0  0  0  0  0  0
   67.4037   79.7283   88.0682 C   0  0  0  0  0  0  0  0  0  0  0  0
   67.4063   78.3518   88.3533 C   0  0  0  0  0  0  0  0  0  0  0  0
   67.4103   77.9322   89.6941 C   0  0  0  0  0  0  0  0  0  0  0  0
   67.4030   82.1317   88.7913 C   0  0  0  0  0  0  0  0  0  0  0  0
   67.4449   82.5844   87.4612 C   0  0  0  0  0  0  0  0  0  0  0  0
   67.4437   83.9525   87.1849 C   0  0  0  0  0  0  0  0  0  0  0  0
   67.3990   84.8636   88.2404 C   0  0  0  0  0  0  0  0  0  0  0  0
   67.3568   84.4171   89.5229 N   0  0  0  0  0  0  0  0  0  0  0  0
   67.3591   83.0900   89.8198 C   0  0  0  0  0  0  0  0  0  0  0  0
   67.4081   77.3546   87.2525 C   0  0  0  0  0  0  0  0  0  0  0  0
   67.8720   77.6972   85.9708 C   0  0  0  0  0  0  0  0  0  0  0  0
   67.8697   76.7488   84.9466 C   0  0  0  0  0  0  0  0  0  0  0  0
   67.4023   75.4607   85.2080 C   0  0  0  0  0  0  0  0  0  0  0  0
   66.9544   75.1388   86.4498 N   0  0  0  0  0  0  0  0  0  0  0  0
   66.9477   76.0428   87.4656 C   0  0  0  0  0  0  0  0  0  0  0  0
   67.4492   78.3995   92.1683 C   0  0  0  0  0  0  0  0  0  0  0  0
   66.6220   77.2476   92.3419 O   0  0  0  0  0  0  0  0  0  0  0  0
   68.0894   74.4881   94.4155 C   0  0  0  0  0  0  0  0  0  0  0  0
   67.9624   75.4809   93.4251 C   0  0  0  0  0  0  0  0  0  0  0  0
   66.7955   76.2625   93.3283 C   0  0  0  0  0  0  0  0  0  0  0  0
   65.7611   76.0586   94.2438 C   0  0  0  0  0  0  0  0  0  0  0  0
   65.8738   75.0842   95.2349 C   0  0  0  0  0  0  0  0  0  0  0  0
   67.0271   74.2937   95.3280 C   0  0  0  0  0  0  0  0  0  0  0  0
   67.1100   73.3206   96.3242 O   0  0  0  0  0  0  0  0  0  0  0  0
   66.3993   73.2014   96.9231 H   0  0  0  0  0  0  0  0  0  0  0  0
   70.2204   73.7885   93.5843 O   0  0  0  0  0  0  0  0  0  0  0  0
   69.3309   73.6735   94.4698 C   0  0  0  0  0  0  0  0  0  0  0  0
   69.5274   72.7675   95.5096 O   0  0  0  0  0  0  0  0  0  0  0  0
   68.8757   72.6702   96.1757 H   0  0  0  0  0  0  0  0  0  0  0  0
 29 30  2  0  0  0
 30 31  1  0  0  0
 30 21  1  0  0  0
 21 22  2  0  0  0
 22 23  1  0  0  0
 23 20  1  0  0  0
 20 19  1  0  0  0
 19  1  1  0  0  0
  1  2  2  0  0  0
  2  3  1  0  0  0
  3  7  1  0  0  0
  7  8  2  0  0  0
  8  9  1  0  0  0
  9 10  2  0  0  0
 10 11  2  0  0  0
 11 12  2  0  0  0
  3  4  2  0  0  0
  4  5  1  0  0  0
  5 13  1  0  0  0
 13 14  2  0  0  0
 14 15  1  0  0  0
 15 16  2  0  0  0
 16 17  2  0  0  0
 17 18  2  0  0  0
  5  6  2  0  0  0
 23 24  2  0  0  0
 24 25  1  0  0  0
 25 26  2  0  0  0
 26 27  1  0  0  0
 26 21  1  0  0  0
  6  1  1  0  0  0
 12  7  1  0  0  0
 18 13  1  0  0  0
 31 32  1  0  0  0
 27 28  1  0  0  0
M  END
> <score>
0.239319

> <minimizedAffinity>
-8.81141

> <CNNscore>
0.6811499596

> <CNNaffinity>
6.4534177780

> <CNN_VS>
4.3957452774

$$$$
HIPS7013


 32 35  0  0  0  0  0  0  0  0999 V2000
   67.4146   78.7950   90.7641 C   0  0  0  0  0  0  0  0  0  0  0  0
   67.4299   77.8772   89.7041 C   0  0  0  0  0  0  0  0  0  0  0  0
   67.4252   78.3213   88.3715 C   0  0  0  0  0  0  0  0  0  0  0  0
   67.4219   79.7027   88.1114 C   0  0  0  0  0  0  0  0  0  0  0  0
   67.4232   80.6352   89.1633 C   0  0  0  0  0  0  0  0  0  0  0  0
   67.4230   80.1694   90.4887 C   0  0  0  0  0  0  0  0  0  0  0  0
   67.4181   77.3442   87.2531 C   0  0  0  0  0  0  0  0  0  0  0  0
   67.8850   77.7043   85.9771 C   0  0  0  0  0  0  0  0  0  0  0  0
   67.8748   76.7732   84.9373 C   0  0  0  0  0  0  0  0  0  0  0  0
   67.3987   75.4842   85.1778 C   0  0  0  0  0  0  0  0  0  0  0  0
   66.9511   75.1443   86.4148 N   0  0  0  0  0  0  0  0  0  0  0  0
   66.9482   76.0326   87.4446 C   0  0  0  0  0  0  0  0  0  0  0  0
   67.4216   82.0928   88.8777 C   0  0  0  0  0  0  0  0  0  0  0  0
   67.4927   82.5684   87.5571 C   0  0  0  0  0  0  0  0  0  0  0  0
   67.4880   83.9411   87.3040 C   0  0  0  0  0  0  0  0  0  0  0  0
   67.4132   84.8337   88.3733 C   0  0  0  0  0  0  0  0  0  0  0  0
   67.3461   84.3650   89.6469 N   0  0  0  0  0  0  0  0  0  0  0  0
   67.3469   83.0330   89.9211 C   0  0  0  0  0  0  0  0  0  0  0  0
   67.3881   78.3148   92.1920 C   0  0  0  0  0  0  0  0  0  0  0  0
   66.6584   77.0916   92.3020 O   0  0  0  0  0  0  0  0  0  0  0  0
   68.1126   74.3977   94.4691 C   0  0  0  0  0  0  0  0  0  0  0  0
   67.9939   75.3631   93.4510 C   0  0  0  0  0  0  0  0  0  0  0  0
   66.8236   76.1340   93.3165 C   0  0  0  0  0  0  0  0  0  0  0  0
   65.7772   75.9474   94.2220 C   0  0  0  0  0  0  0  0  0  0  0  0
   65.8814   75.0002   95.2401 C   0  0  0  0  0  0  0  0  0  0  0  0
   67.0382   74.2202   95.3709 C   0  0  0  0  0  0  0  0  0  0  0  0
   67.1127   73.2743   96.3936 O   0  0  0  0  0  0  0  0  0  0  0  0
   66.3939   73.1662   96.9849 H   0  0  0  0  0  0  0  0  0  0  0  0
   69.6013   72.8919   95.5817 O   0  0  0  0  0  0  0  0  0  0  0  0
   69.3584   73.5932   94.5630 C   0  0  0  0  0  0  0  0  0  0  0  0
   70.2782   73.6044   93.5169 O   0  0  0  0  0  0  0  0  0  0  0  0
   70.1123   74.1207   92.7527 H   0  0  0  0  0  0  0  0  0  0  0  0
 29 30  2  0  0  0
 30 31  1  0  0  0
 30 21  1  0  0  0
 21 22  2  0  0  0
 22 23  1  0  0  0
 23 20  1  0  0  0
 20 19  1  0  0  0
 19  1  1  0  0  0
  1  2  2  0  0  0
  2  3  1  0  0  0
  3  7  1  0  0  0
  7  8  2  0  0  0
  8  9  1  0  0  0
  9 10  2  0  0  0
 10 11  2  0  0  0
 11 12  2  0  0  0
  3  4  2  0  0  0
  4  5  1  0  0  0
  5 13  1  0  0  0
 13 14  2  0  0  0
 14 15  1  0  0  0
 15 16  2  0  0  0
 16 17  2  0  0  0
 17 18  2  0  0  0
  5  6  2  0  0  0
 23 24  2  0  0  0
 24 25  1  0  0  0
 25 26  2  0  0  0
 26 27  1  0  0  0
 26 21  1  0  0  0
  6  1  1  0  0  0
 12  7  1  0  0  0
 18 13  1  0  0  0
 31 32  1  0  0  0
 27 28  1  0  0  0
M  END
> <score>
0.239319

> <minimizedAffinity>
-8.82292

> <CNNscore>
0.6727235317

> <CNNaffinity>
6.3901090622

> <CNN_VS>
4.2987766266

$$$$
HIPS7014


 38 41  0  0  0  0  0  0  0  0999 V2000
   66.8552   79.1709   90.6833 C   0  0  0  0  0  0  0  0  0  0  0  0
   66.2395   78.4574   91.7247 C   0  0  0  0  0  0  0  0  0  0  0  0
   66.1352   79.0111   93.0081 C   0  0  0  0  0  0  0  0  0  0  0  0
   66.6240   80.3024   93.2460 C   0  0  0  0  0  0  0  0  0  0  0  0
   67.2326   81.0406   92.2168 C   0  0  0  0  0  0  0  0  0  0  0  0
   67.3445   80.4644   90.9388 C   0  0  0  0  0  0  0  0  0  0  0  0
   67.0086   76.8396   87.7567 C   0  0  0  0  0  0  0  0  0  0  0  0
   66.8021   77.1887   89.0839 C   0  0  0  0  0  0  0  0  0  0  0  0
   67.0067   78.5577   89.3396 C   0  0  0  0  0  0  0  0  0  0  0  0
   67.3890   79.2728   88.2026 C   0  0  0  0  0  0  0  0  0  0  0  0
   67.4702   78.2096   86.9027 S   0  0  0  0  0  0  0  0  0  0  0  0
   67.0822   75.4633   85.7436 N   0  0  0  0  0  0  0  0  0  0  0  0
   66.9483   75.4497   87.1980 C   0  0  0  0  0  0  0  0  0  0  0  0
   67.0381   74.5079   85.3891 H   0  0  0  0  0  0  0  0  0  0  0  0
   67.9778   75.8795   85.4885 H   0  0  0  0  0  0  0  0  0  0  0  0
   67.7620   82.4031   92.4788 C   0  0  0  0  0  0  0  0  0  0  0  0
   68.2863   83.2307   91.4835 C   0  0  0  0  0  0  0  0  0  0  0  0
   68.7875   84.6706   92.1917 S   0  0  0  0  0  0  0  0  0  0  0  0
   68.3346   84.2719   93.7585 C   0  0  0  0  0  0  0  0  0  0  0  0
   67.8000   82.9908   93.7574 C   0  0  0  0  0  0  0  0  0  0  0  0
   68.5783   85.1186   94.9715 C   0  0  0  0  0  0  0  0  0  0  0  0
   68.5085   84.3188   96.1916 N   0  0  0  0  0  0  0  0  0  0  0  0
   67.5795   83.9060   96.2749 H   0  0  0  0  0  0  0  0  0  0  0  0
   68.6895   84.9145   96.9995 H   0  0  0  0  0  0  0  0  0  0  0  0
   65.5112   78.2267   94.1326 C   0  0  0  0  0  0  0  0  0  0  0  0
   65.4444   76.8390   93.8006 O   0  0  0  0  0  0  0  0  0  0  0  0
   66.3383   75.8522   94.2491 C   0  0  0  0  0  0  0  0  0  0  0  0
   65.9486   75.0487   95.3226 C   0  0  0  0  0  0  0  0  0  0  0  0
   66.8096   74.0742   95.8277 C   0  0  0  0  0  0  0  0  0  0  0  0
   68.0782   73.8846   95.2700 C   0  0  0  0  0  0  0  0  0  0  0  0
   68.9231   72.9524   95.8759 O   0  0  0  0  0  0  0  0  0  0  0  0
   68.4726   74.6559   94.1496 C   0  0  0  0  0  0  0  0  0  0  0  0
   67.5986   75.6431   93.6586 C   0  0  0  0  0  0  0  0  0  0  0  0
   68.6248   72.4613   96.6160 H   0  0  0  0  0  0  0  0  0  0  0  0
   69.7590   74.4386   93.4522 C   0  0  0  0  0  0  0  0  0  0  0  0
   70.2717   75.3681   92.7715 O   0  0  0  0  0  0  0  0  0  0  0  0
   70.3845   73.1959   93.4901 O   0  0  0  0  0  0  0  0  0  0  0  0
   70.0114   72.4988   93.9929 H   0  0  0  0  0  0  0  0  0  0  0  0
 12 13  1  0  0  0
 13  7  1  0  0  0
  7  8  2  0  0  0
  8  9  1  0  0  0
  9  1  1  0  0  0
  1  2  2  0  0  0
  2  3  1  0  0  0
  3 25  1  0  0  0
 25 26  1  0  0  0
 26 27  1  0  0  0
 27 28  2  0  0  0
 28 29  1  0  0  0
 29 30  2  0  0  0
 30 31  1  0  0  0
 30 32  1  0  0  0
 32 35  1  0  0  0
 35 36  2  0  0  0
 35 37  1  0  0  0
 32 33  2  0  0  0
  3  4  2  0  0  0
  4  5  1  0  0  0
  5 16  1  0  0  0
 16 17  2  0  0  0
 17 18  1  0  0  0
 18 19  1  0  0  0
 19 21  1  0  0  0
 21 22  1  0  0  0
 19 20  2  0  0  0
  5  6  2  0  0  0
  9 10  2  0  0  0
 10 11  1  0  0  0
 11  7  1  0  0  0
  6  1  1  0  0  0
 33 27  1  0  0  0
 20 16  1  0  0  0
 12 14  1  0  0  0
 12 15  1  0  0  0
 31 34  1  0  0  0
 37 38  1  0  0  0
 22 23  1  0  0  0
 22 24  1  0  0  0
M  END
> <score>
0.257233

> <minimizedAffinity>
-7.35475

> <CNNscore>
0.5521028638

> <CNNaffinity>
6.6634492874

> <CNN_VS>
3.6789095402

$$$$
HIPS7014


 38 41  0  0  0  0  0  0  0  0999 V2000
   68.1786   80.9061   89.7799 C   0  0  0  0  0  0  0  0  0  0  0  0
   67.5703   80.8665   91.0453 C   0  0  0  0  0  0  0  0  0  0  0  0
   66.8258   79.7491   91.4471 C   0  0  0  0  0  0  0  0  0  0  0  0
   66.7129   78.6479   90.5882 C   0  0  0  0  0  0  0  0  0  0  0  0
   67.3233   78.6590   89.3226 C   0  0  0  0  0  0  0  0  0  0  0  0
   68.0529   79.7946   88.9276 C   0  0  0  0  0  0  0  0  0  0  0  0
   69.2379   84.1644   88.2684 C   0  0  0  0  0  0  0  0  0  0  0  0
   68.3513   83.1389   88.5656 C   0  0  0  0  0  0  0  0  0  0  0  0
   68.9234   82.1135   89.3419 C   0  0  0  0  0  0  0  0  0  0  0  0
   70.2695   82.3403   89.6368 C   0  0  0  0  0  0  0  0  0  0  0  0
   70.7336   83.7968   88.9369 S   0  0  0  0  0  0  0  0  0  0  0  0
   69.6177   85.2226   86.1031 N   0  0  0  0  0  0  0  0  0  0  0  0
   68.9465   85.3472   87.3945 C   0  0  0  0  0  0  0  0  0  0  0  0
   69.4038   86.0379   85.5287 H   0  0  0  0  0  0  0  0  0  0  0  0
   69.2923   84.3791   85.6308 H   0  0  0  0  0  0  0  0  0  0  0  0
   67.1877   77.4948   88.4107 C   0  0  0  0  0  0  0  0  0  0  0  0
   66.9738   76.1884   88.8556 C   0  0  0  0  0  0  0  0  0  0  0  0
   66.8943   75.1724   87.5185 S   0  0  0  0  0  0  0  0  0  0  0  0
   67.1134   76.3714   86.3638 C   0  0  0  0  0  0  0  0  0  0  0  0
   67.2740   77.5899   87.0089 C   0  0  0  0  0  0  0  0  0  0  0  0
   67.2319   76.1392   84.8874 C   0  0  0  0  0  0  0  0  0  0  0  0
   67.2803   74.7113   84.5836 N   0  0  0  0  0  0  0  0  0  0  0  0
   68.0941   74.2949   85.0361 H   0  0  0  0  0  0  0  0  0  0  0  0
   67.3485   74.5806   83.5743 H   0  0  0  0  0  0  0  0  0  0  0  0
   66.1404   79.7270   92.7884 C   0  0  0  0  0  0  0  0  0  0  0  0
   66.8961   78.9590   93.7263 O   0  0  0  0  0  0  0  0  0  0  0  0
   67.0602   77.5642   93.6895 C   0  0  0  0  0  0  0  0  0  0  0  0
   65.9314   76.7627   93.8716 C   0  0  0  0  0  0  0  0  0  0  0  0
   66.0425   75.3722   93.8749 C   0  0  0  0  0  0  0  0  0  0  0  0
   67.2852   74.7552   93.6974 C   0  0  0  0  0  0  0  0  0  0  0  0
   67.3412   73.3634   93.7966 O   0  0  0  0  0  0  0  0  0  0  0  0
   68.4336   75.5497   93.4622 C   0  0  0  0  0  0  0  0  0  0  0  0
   68.3085   76.9510   93.4736 C   0  0  0  0  0  0  0  0  0  0  0  0
   66.5583   72.8730   93.9530 H   0  0  0  0  0  0  0  0  0  0  0  0
   69.7583   74.9594   93.1699 C   0  0  0  0  0  0  0  0  0  0  0  0
   70.5170   75.5026   92.3217 O   0  0  0  0  0  0  0  0  0  0  0  0
   70.1554   73.7729   93.7795 O   0  0  0  0  0  0  0  0  0  0  0  0
   69.5987   73.3615   94.4110 H   0  0  0  0  0  0  0  0  0  0  0  0
 12 13  1  0  0  0
 13  7  1  0  0  0
  7  8  2  0  0  0
  8  9  1  0  0  0
  9  1  1  0  0  0
  1  2  2  0  0  0
  2  3  1  0  0  0
  3 25  1  0  0  0
 25 26  1  0  0  0
 26 27  1  0  0  0
 27 28  2  0  0  0
 28 29  1  0  0  0
 29 30  2  0  0  0
 30 31  1  0  0  0
 30 32  1  0  0  0
 32 35  1  0  0  0
 35 36  2  0  0  0
 35 37  1  0  0  0
 32 33  2  0  0  0
  3  4  2  0  0  0
  4  5  1  0  0  0
  5 16  1  0  0  0
 16 17  2  0  0  0
 17 18  1  0  0  0
 18 19  1  0  0  0
 19 21  1  0  0  0
 21 22  1  0  0  0
 19 20  2  0  0  0
  5  6  2  0  0  0
  9 10  2  0  0  0
 10 11  1  0  0  0
 11  7  1  0  0  0
  6  1  1  0  0  0
 33 27  1  0  0  0
 20 16  1  0  0  0
 12 14  1  0  0  0
 12 15  1  0  0  0
 31 34  1  0  0  0
 37 38  1  0  0  0
 22 23  1  0  0  0
 22 24  1  0  0  0
M  END
> <score>
0.257233

> <minimizedAffinity>
-7.61306

> <CNNscore>
0.5323325992

> <CNNaffinity>
6.8264007568

> <CNN_VS>
3.6339156628

$$$$
HIPS7014


 38 41  0  0  0  0  0  0  0  0999 V2000
   67.3327   78.3623   89.5491 C   0  0  0  0  0  0  0  0  0  0  0  0
   66.9431   78.1497   90.8817 C   0  0  0  0  0  0  0  0  0  0  0  0
   67.0983   79.1582   91.8426 C   0  0  0  0  0  0  0  0  0  0  0  0
   67.6200   80.4017   91.4621 C   0  0  0  0  0  0  0  0  0  0  0  0
   68.0049   80.6422   90.1323 C   0  0  0  0  0  0  0  0  0  0  0  0
   67.8583   79.6144   89.1835 C   0  0  0  0  0  0  0  0  0  0  0  0
   67.1546   76.3180   86.4166 C   0  0  0  0  0  0  0  0  0  0  0  0
   67.3074   77.4804   87.1592 C   0  0  0  0  0  0  0  0  0  0  0  0
   67.2117   77.2724   88.5481 C   0  0  0  0  0  0  0  0  0  0  0  0
   66.9686   75.9388   88.8835 C   0  0  0  0  0  0  0  0  0  0  0  0
   66.8740   75.0383   87.4668 S   0  0  0  0  0  0  0  0  0  0  0  0
   67.1892   74.8446   84.4723 N   0  0  0  0  0  0  0  0  0  0  0  0
   67.1241   76.2334   84.9201 C   0  0  0  0  0  0  0  0  0  0  0  0
   67.1669   74.8147   83.4529 H   0  0  0  0  0  0  0  0  0  0  0  0
   66.3917   74.3295   84.8451 H   0  0  0  0  0  0  0  0  0  0  0  0
   68.5709   81.9574   89.7382 C   0  0  0  0  0  0  0  0  0  0  0  0
   69.6883   82.5298   90.3498 C   0  0  0  0  0  0  0  0  0  0  0  0
   69.9932   84.0166   89.6267 S   0  0  0  0  0  0  0  0  0  0  0  0
   68.7287   83.9472   88.5244 C   0  0  0  0  0  0  0  0  0  0  0  0
   68.0305   82.7632   88.7183 C   0  0  0  0  0  0  0  0  0  0  0  0
   68.3517   85.0406   87.5704 C   0  0  0  0  0  0  0  0  0  0  0  0
   67.9020   84.4906   86.2941 N   0  0  0  0  0  0  0  0  0  0  0  0
   68.6565   83.9487   85.8727 H   0  0  0  0  0  0  0  0  0  0  0  0
   67.6405   85.2528   85.6687 H   0  0  0  0  0  0  0  0  0  0  0  0
   66.7178   78.9127   93.2793 C   0  0  0  0  0  0  0  0  0  0  0  0
   65.9970   77.6860   93.4056 O   0  0  0  0  0  0  0  0  0  0  0  0
   66.4719   76.5261   94.0406 C   0  0  0  0  0  0  0  0  0  0  0  0
   65.6143   75.8551   94.9147 C   0  0  0  0  0  0  0  0  0  0  0  0
   66.0450   74.7159   95.5949 C   0  0  0  0  0  0  0  0  0  0  0  0
   67.3426   74.2256   95.4155 C   0  0  0  0  0  0  0  0  0  0  0  0
   67.7387   73.1331   96.1898 O   0  0  0  0  0  0  0  0  0  0  0  0
   68.2108   74.8634   94.4963 C   0  0  0  0  0  0  0  0  0  0  0  0
   67.7669   76.0182   93.8264 C   0  0  0  0  0  0  0  0  0  0  0  0
   67.1342   72.7385   96.7872 H   0  0  0  0  0  0  0  0  0  0  0  0
   69.5593   74.3395   94.1868 C   0  0  0  0  0  0  0  0  0  0  0  0
   70.1478   74.6983   93.1309 O   0  0  0  0  0  0  0  0  0  0  0  0
   70.1653   73.4054   95.0218 O   0  0  0  0  0  0  0  0  0  0  0  0
   69.7362   73.1323   95.8087 H   0  0  0  0  0  0  0  0  0  0  0  0
 12 13  1  0  0  0
 13  7  1  0  0  0
  7  8  2  0  0  0
  8  9  1  0  0  0
  9  1  1  0  0  0
  1  2  2  0  0  0
  2  3  1  0  0  0
  3 25  1  0  0  0
 25 26  1  0  0  0
 26 27  1  0  0  0
 27 28  2  0  0  0
 28 29  1  0  0  0
 29 30  2  0  0  0
 30 31  1  0  0  0
 30 32  1  0  0  0
 32 35  1  0  0  0
 35 36  2  0  0  0
 35 37  1  0  0  0
 32 33  2  0  0  0
  3  4  2  0  0  0
  4  5  1  0  0  0
  5 16  1  0  0  0
 16 17  2  0  0  0
 17 18  1  0  0  0
 18 19  1  0  0  0
 19 21  1  0  0  0
 21 22  1  0  0  0
 19 20  2  0  0  0
  5  6  2  0  0  0
  9 10  2  0  0  0
 10 11  1  0  0  0
 11  7  1  0  0  0
  6  1  1  0  0  0
 33 27  1  0  0  0
 20 16  1  0  0  0
 12 14  1  0  0  0
 12 15  1  0  0  0
 31 34  1  0  0  0
 37 38  1  0  0  0
 22 23  1  0  0  0
 22 24  1  0  0  0
M  END
> <score>
0.257233

> <minimizedAffinity>
-7.61605

> <CNNscore>
0.4906435013

> <CNNaffinity>
6.7481851578

> <CNN_VS>
3.3109531403

$$$$
HIPS7015


 39 42  0  0  0  0  0  0  0  0999 V2000
   69.1234   77.9481   90.6863 C   0  0  0  0  0  0  0  0  0  0  0  0
   68.4306   79.1506   90.5105 C   0  0  0  0  0  0  0  0  0  0  0  0
   69.1091   80.2889   90.2151 N   0  0  0  0  0  0  0  0  0  0  0  0
   70.4648   80.2939   90.0892 C   0  0  0  0  0  0  0  0  0  0  0  0
   71.1545   79.1343   90.2715 N   0  0  0  0  0  0  0  0  0  0  0  0
   70.5175   77.9730   90.5703 C   0  0  0  0  0  0  0  0  0  0  0  0
   71.1847   81.5527   89.7715 C   0  0  0  0  0  0  0  0  0  0  0  0
   72.4408   81.8212   90.3443 C   0  0  0  0  0  0  0  0  0  0  0  0
   73.1118   83.0097   90.0528 C   0  0  0  0  0  0  0  0  0  0  0  0
   72.5392   83.9470   89.1930 C   0  0  0  0  0  0  0  0  0  0  0  0
   71.2860   83.7082   88.6102 C   0  0  0  0  0  0  0  0  0  0  0  0
   70.6172   82.5024   88.9000 C   0  0  0  0  0  0  0  0  0  0  0  0
   70.7211   84.7053   87.7381 N   0  0  0  0  0  0  0  0  0  0  0  0
   70.5928   84.4677   86.7914 H   0  0  0  0  0  0  0  0  0  0  0  0
   70.2513   86.2982   88.2441 S   0  0  0  0  0  0  0  0  0  0  0  0
   71.4942   87.0919   88.5295 O   0  0  0  0  0  0  0  0  0  0  0  0
   69.4937   86.9683   87.1319 O   0  0  0  0  0  0  0  0  0  0  0  0
   69.2777   86.1860   89.7477 C   0  0  0  0  0  0  0  0  0  0  0  0
   68.2925   85.0048   89.7566 C   0  0  0  0  0  0  0  0  0  0  0  0
   67.4175   84.9217   88.4955 C   0  0  0  0  0  0  0  0  0  0  0  0
   67.5075   83.6133   87.8554 N   0  0  0  0  0  0  0  0  0  0  0  0
   67.0886   82.4308   88.3342 C   0  0  0  0  0  0  0  0  0  0  0  0
   67.2886   81.4744   87.4083 N   0  0  0  0  0  0  0  0  0  0  0  0
   67.8223   82.1006   86.3666 N   0  0  0  0  0  0  0  0  0  0  0  0
   67.9481   83.3927   86.6306 N   0  0  0  0  0  0  0  0  0  0  0  0
   68.3981   76.6796   91.0489 C   0  0  0  0  0  0  0  0  0  0  0  0
   67.5479   76.8793   92.1792 O   0  0  0  0  0  0  0  0  0  0  0  0
   68.3482   74.1881   94.6032 C   0  0  0  0  0  0  0  0  0  0  0  0
   68.4481   75.1273   93.5592 C   0  0  0  0  0  0  0  0  0  0  0  0
   67.3803   75.9731   93.2394 C   0  0  0  0  0  0  0  0  0  0  0  0
   66.1902   75.8877   93.9817 C   0  0  0  0  0  0  0  0  0  0  0  0
   66.0755   74.9627   95.0197 C   0  0  0  0  0  0  0  0  0  0  0  0
   67.1423   74.1107   95.3376 C   0  0  0  0  0  0  0  0  0  0  0  0
   66.9983   73.1949   96.3805 O   0  0  0  0  0  0  0  0  0  0  0  0
   66.1942   73.1533   96.8597 H   0  0  0  0  0  0  0  0  0  0  0  0
   69.6233   72.7431   96.0217 O   0  0  0  0  0  0  0  0  0  0  0  0
   69.5078   73.3077   94.9002 C   0  0  0  0  0  0  0  0  0  0  0  0
   70.4874   73.0937   93.9335 O   0  0  0  0  0  0  0  0  0  0  0  0
   70.4162   73.5059   93.0951 H   0  0  0  0  0  0  0  0  0  0  0  0
 36 37  2  0  0  0
 37 38  1  0  0  0
 37 28  1  0  0  0
 28 29  2  0  0  0
 29 30  1  0  0  0
 30 27  1  0  0  0
 27 26  1  0  0  0
 26  1  1  0  0  0
  1  2  2  0  0  0
  2  3  2  0  0  0
  3  4  2  0  0  0
  4  7  1  0  0  0
  7  8  2  0  0  0
  8  9  1  0  0  0
  9 10  2  0  0  0
 10 11  1  0  0  0
 11 13  1  0  0  0
 13 15  1  0  0  0
 15 16  2  0  0  0
 15 17  2  0  0  0
 15 18  1  0  0  0
 18 19  1  0  0  0
 19 20  1  0  0  0
 20 21  1  0  0  0
 21 22  1  0  0  0
 22 23  2  0  0  0
 23 24  1  0  0  0
 24 25  2  0  0  0
 11 12  2  0  0  0
  4  5  2  0  0  0
  5  6  2  0  0  0
 30 31  2  0  0  0
 31 32  1  0  0  0
 32 33  2  0  0  0
 33 34  1  0  0  0
 33 28  1  0  0  0
  6  1  1  0  0  0
 12  7  1  0  0  0
 25 21  1  0  0  0
 38 39  1  0  0  0
 13 14  1  0  0  0
 34 35  1  0  0  0
M  END
> <score>
0.875691

> <minimizedAffinity>
-8.09252

> <CNNscore>
0.4793925285

> <CNNaffinity>
6.7258176804

> <CNN_VS>
3.2243068218

$$$$
HIPS7015


 39 42  0  0  0  0  0  0  0  0999 V2000
   68.1460   79.3855   90.9188 C   0  0  0  0  0  0  0  0  0  0  0  0
   67.1615   79.4964   91.9065 C   0  0  0  0  0  0  0  0  0  0  0  0
   66.9024   78.4473   92.7284 N   0  0  0  0  0  0  0  0  0  0  0  0
   67.5794   77.2718   92.6128 C   0  0  0  0  0  0  0  0  0  0  0  0
   68.5306   77.1436   91.6470 N   0  0  0  0  0  0  0  0  0  0  0  0
   68.8211   78.1657   90.8016 C   0  0  0  0  0  0  0  0  0  0  0  0
   67.2738   76.1369   93.5197 C   0  0  0  0  0  0  0  0  0  0  0  0
   66.0159   76.0378   94.1409 C   0  0  0  0  0  0  0  0  0  0  0  0
   65.7336   74.9759   95.0013 C   0  0  0  0  0  0  0  0  0  0  0  0
   66.7003   74.0037   95.2583 C   0  0  0  0  0  0  0  0  0  0  0  0
   67.9649   74.0788   94.6562 C   0  0  0  0  0  0  0  0  0  0  0  0
   68.2415   75.1475   93.7806 C   0  0  0  0  0  0  0  0  0  0  0  0
   68.9413   73.0637   94.9561 N   0  0  0  0  0  0  0  0  0  0  0  0
   69.1728   72.9142   95.9012 H   0  0  0  0  0  0  0  0  0  0  0  0
   69.7377   72.0859   93.7629 S   0  0  0  0  0  0  0  0  0  0  0  0
   70.8750   72.8771   93.1825 O   0  0  0  0  0  0  0  0  0  0  0  0
   70.2919   70.8534   94.4216 O   0  0  0  0  0  0  0  0  0  0  0  0
   68.5822   71.6840   92.4497 C   0  0  0  0  0  0  0  0  0  0  0  0
   69.0081   72.2159   91.0707 C   0  0  0  0  0  0  0  0  0  0  0  0
   68.5981   73.6758   90.8191 C   0  0  0  0  0  0  0  0  0  0  0  0
   67.7177   73.8026   89.6621 N   0  0  0  0  0  0  0  0  0  0  0  0
   67.4337   74.9113   88.9598 C   0  0  0  0  0  0  0  0  0  0  0  0
   66.6359   74.5949   87.9229 N   0  0  0  0  0  0  0  0  0  0  0  0
   66.4547   73.2826   88.0073 N   0  0  0  0  0  0  0  0  0  0  0  0
   67.1129   72.8007   89.0511 N   0  0  0  0  0  0  0  0  0  0  0  0
   68.4279   80.5218   89.9721 C   0  0  0  0  0  0  0  0  0  0  0  0
   69.2791   81.4958   90.5780 O   0  0  0  0  0  0  0  0  0  0  0  0
   70.2940   84.1539   88.1982 C   0  0  0  0  0  0  0  0  0  0  0  0
   69.5221   83.2371   88.9369 C   0  0  0  0  0  0  0  0  0  0  0  0
   70.1095   82.3920   89.8849 C   0  0  0  0  0  0  0  0  0  0  0  0
   71.4948   82.4683   90.1083 C   0  0  0  0  0  0  0  0  0  0  0  0
   72.2736   83.3718   89.3848 C   0  0  0  0  0  0  0  0  0  0  0  0
   71.6875   84.2151   88.4308 C   0  0  0  0  0  0  0  0  0  0  0  0
   72.4917   85.1081   87.7218 O   0  0  0  0  0  0  0  0  0  0  0  0
   73.4138   85.1392   87.8849 H   0  0  0  0  0  0  0  0  0  0  0  0
   68.4724   85.4915   87.4117 O   0  0  0  0  0  0  0  0  0  0  0  0
   69.6245   85.0256   87.1983 C   0  0  0  0  0  0  0  0  0  0  0  0
   70.2690   85.3413   86.0046 O   0  0  0  0  0  0  0  0  0  0  0  0
   71.1253   85.0030   85.8309 H   0  0  0  0  0  0  0  0  0  0  0  0
 36 37  2  0  0  0
 37 38  1  0  0  0
 37 28  1  0  0  0
 28 29  2  0  0  0
 29 30  1  0  0  0
 30 27  1  0  0  0
 27 26  1  0  0  0
 26  1  1  0  0  0
  1  2  2  0  0  0
  2  3  2  0  0  0
  3  4  2  0  0  0
  4  7  1  0  0  0
  7  8  2  0  0  0
  8  9  1  0  0  0
  9 10  2  0  0  0
 10 11  1  0  0  0
 11 13  1  0  0  0
 13 15  1  0  0  0
 15 16  2  0  0  0
 15 17  2  0  0  0
 15 18  1  0  0  0
 18 19  1  0  0  0
 19 20  1  0  0  0
 20 21  1  0  0  0
 21 22  1  0  0  0
 22 23  2  0  0  0
 23 24  1  0  0  0
 24 25  2  0  0  0
 11 12  2  0  0  0
  4  5  2  0  0  0
  5  6  2  0  0  0
 30 31  2  0  0  0
 31 32  1  0  0  0
 32 33  2  0  0  0
 33 34  1  0  0  0
 33 28  1  0  0  0
  6  1  1  0  0  0
 12  7  1  0  0  0
 25 21  1  0  0  0
 38 39  1  0  0  0
 13 14  1  0  0  0
 34 35  1  0  0  0
M  END
> <score>
0.875691

> <minimizedAffinity>
-8.37401

> <CNNscore>
0.4286517501

> <CNNaffinity>
6.6922302246

> <CNN_VS>
2.8686361313

$$$$
HIPS7015


 39 42  0  0  0  0  0  0  0  0999 V2000
   67.2136   79.4045   87.7640 C   0  0  0  0  0  0  0  0  0  0  0  0
   67.3833   79.1700   89.1327 C   0  0  0  0  0  0  0  0  0  0  0  0
   67.4220   77.8976   89.6045 N   0  0  0  0  0  0  0  0  0  0  0  0
   67.2926   76.8283   88.7717 C   0  0  0  0  0  0  0  0  0  0  0  0
   67.1124   77.0405   87.4389 N   0  0  0  0  0  0  0  0  0  0  0  0
   67.0651   78.2959   86.9235 C   0  0  0  0  0  0  0  0  0  0  0  0
   67.3323   75.4463   89.3124 C   0  0  0  0  0  0  0  0  0  0  0  0
   67.0143   74.3490   88.4921 C   0  0  0  0  0  0  0  0  0  0  0  0
   67.0421   73.0512   89.0045 C   0  0  0  0  0  0  0  0  0  0  0  0
   67.3807   72.8301   90.3394 C   0  0  0  0  0  0  0  0  0  0  0  0
   67.6987   73.9053   91.1821 C   0  0  0  0  0  0  0  0  0  0  0  0
   67.6787   75.2127   90.6573 C   0  0  0  0  0  0  0  0  0  0  0  0
   68.0305   73.6386   92.5578 N   0  0  0  0  0  0  0  0  0  0  0  0
   67.3777   73.1384   93.0990 H   0  0  0  0  0  0  0  0  0  0  0  0
   69.5044   74.1399   93.3261 S   0  0  0  0  0  0  0  0  0  0  0  0
   70.5041   74.4822   92.2584 O   0  0  0  0  0  0  0  0  0  0  0  0
   69.2399   75.3673   94.1529 O   0  0  0  0  0  0  0  0  0  0  0  0
   70.1530   72.7902   94.3156 C   0  0  0  0  0  0  0  0  0  0  0  0
   70.6086   71.5800   93.4828 C   0  0  0  0  0  0  0  0  0  0  0  0
   70.9645   70.3473   94.3294 C   0  0  0  0  0  0  0  0  0  0  0  0
   72.4053   70.1223   94.3851 N   0  0  0  0  0  0  0  0  0  0  0  0
   73.3820   70.9127   93.9114 C   0  0  0  0  0  0  0  0  0  0  0  0
   74.5798   70.3854   94.2263 N   0  0  0  0  0  0  0  0  0  0  0  0
   74.3079   69.2761   94.9027 N   0  0  0  0  0  0  0  0  0  0  0  0
   72.9967   69.1191   95.0071 N   0  0  0  0  0  0  0  0  0  0  0  0
   67.1321   80.8061   87.2202 C   0  0  0  0  0  0  0  0  0  0  0  0
   67.3279   81.7707   88.2554 O   0  0  0  0  0  0  0  0  0  0  0  0
   68.4709   85.2008   89.0839 C   0  0  0  0  0  0  0  0  0  0  0  0
   67.9433   83.8999   89.1893 C   0  0  0  0  0  0  0  0  0  0  0  0
   67.8752   83.0522   88.0781 C   0  0  0  0  0  0  0  0  0  0  0  0
   68.3516   83.5073   86.8369 C   0  0  0  0  0  0  0  0  0  0  0  0
   68.8779   84.7935   86.7160 C   0  0  0  0  0  0  0  0  0  0  0  0
   68.9415   85.6460   87.8269 C   0  0  0  0  0  0  0  0  0  0  0  0
   69.4722   86.9276   87.6757 O   0  0  0  0  0  0  0  0  0  0  0  0
   69.7808   87.2109   86.8375 H   0  0  0  0  0  0  0  0  0  0  0  0
   69.2901   87.0588   90.3501 O   0  0  0  0  0  0  0  0  0  0  0  0
   68.5158   86.0653   90.2917 C   0  0  0  0  0  0  0  0  0  0  0  0
   67.6944   85.7858   91.3812 O   0  0  0  0  0  0  0  0  0  0  0  0
   67.1133   85.0512   91.3535 H   0  0  0  0  0  0  0  0  0  0  0  0
 36 37  2  0  0  0
 37 38  1  0  0  0
 37 28  1  0  0  0
 28 29  2  0  0  0
 29 30  1  0  0  0
 30 27  1  0  0  0
 27 26  1  0  0  0
 26  1  1  0  0  0
  1  2  2  0  0  0
  2  3  2  0  0  0
  3  4  2  0  0  0
  4  7  1  0  0  0
  7  8  2  0  0  0
  8  9  1  0  0  0
  9 10  2  0  0  0
 10 11  1  0  0  0
 11 13  1  0  0  0
 13 15  1  0  0  0
 15 16  2  0  0  0
 15 17  2  0  0  0
 15 18  1  0  0  0
 18 19  1  0  0  0
 19 20  1  0  0  0
 20 21  1  0  0  0
 21 22  1  0  0  0
 22 23  2  0  0  0
 23 24  1  0  0  0
 24 25  2  0  0  0
 11 12  2  0  0  0
  4  5  2  0  0  0
  5  6  2  0  0  0
 30 31  2  0  0  0
 31 32  1  0  0  0
 32 33  2  0  0  0
 33 34  1  0  0  0
 33 28  1  0  0  0
  6  1  1  0  0  0
 12  7  1  0  0  0
 25 21  1  0  0  0
 38 39  1  0  0  0
 13 14  1  0  0  0
 34 35  1  0  0  0
M  END
> <score>
0.875691

> <minimizedAffinity>
-7.53914

> <CNNscore>
0.3667857051

> <CNNaffinity>
6.0887451172

> <CNN_VS>
2.2332646847

$$$$
HIPS7022


 39 41  0  0  0  0  0  0  0  0999 V2000
   66.7527   77.8174   93.1040 C   0  0  0  0  0  0  0  0  0  0  0  0
   67.5254   78.0220   92.0023 N   0  0  0  0  0  0  0  0  0  0  0  0
   67.5265   79.2180   91.3579 C   0  0  0  0  0  0  0  0  0  0  0  0
   66.7107   80.2612   91.8139 C   0  0  0  0  0  0  0  0  0  0  0  0
   65.9324   80.0359   92.9533 C   0  0  0  0  0  0  0  0  0  0  0  0
   65.9688   78.8289   93.5707 N   0  0  0  0  0  0  0  0  0  0  0  0
   67.9100   74.4130   94.3312 C   0  0  0  0  0  0  0  0  0  0  0  0
   66.8247   74.0461   95.1416 C   0  0  0  0  0  0  0  0  0  0  0  0
   65.7257   74.8962   95.2805 C   0  0  0  0  0  0  0  0  0  0  0  0
   65.6924   76.1191   94.6094 C   0  0  0  0  0  0  0  0  0  0  0  0
   66.7675   76.5089   93.7949 C   0  0  0  0  0  0  0  0  0  0  0  0
   67.8728   75.6480   93.6598 C   0  0  0  0  0  0  0  0  0  0  0  0
   69.0382   73.5247   94.2281 N   0  0  0  0  0  0  0  0  0  0  0  0
   69.6763   73.5036   94.9774 H   0  0  0  0  0  0  0  0  0  0  0  0
   69.3487   72.4868   92.8687 S   0  0  0  0  0  0  0  0  0  0  0  0
   69.6246   71.0875   93.3506 O   0  0  0  0  0  0  0  0  0  0  0  0
   70.5697   72.9924   92.1497 O   0  0  0  0  0  0  0  0  0  0  0  0
   67.9753   72.4816   91.7213 C   0  0  0  0  0  0  0  0  0  0  0  0
   68.3875   73.0873   90.3793 C   0  0  0  0  0  0  0  0  0  0  0  0
   68.0064   74.5731   90.3028 C   0  0  0  0  0  0  0  0  0  0  0  0
   67.3302   74.9300   88.9633 C   0  0  0  0  0  0  0  0  0  0  0  0
   66.7409   76.3537   88.9263 C   0  0  0  0  0  0  0  0  0  0  0  0
   67.1814   77.2097   87.7243 C   0  0  0  0  0  0  0  0  0  0  0  0
   68.0055   77.1243   85.3397 C   0  0  0  0  0  0  0  0  0  0  0  0
   67.1467   76.4360   86.3969 C   0  0  0  0  0  0  0  0  0  0  0  0
   66.7170   81.6059   91.1489 C   0  0  0  0  0  0  0  0  0  0  0  0
   67.7222   82.4155   91.7532 O   0  0  0  0  0  0  0  0  0  0  0  0
   67.6660   83.8146   91.8434 C   0  0  0  0  0  0  0  0  0  0  0  0
   68.8120   84.6238   91.7570 C   0  0  0  0  0  0  0  0  0  0  0  0
   68.6969   86.0124   91.8336 C   0  0  0  0  0  0  0  0  0  0  0  0
   67.4459   86.6189   91.9970 C   0  0  0  0  0  0  0  0  0  0  0  0
   67.3899   88.0132   91.9793 O   0  0  0  0  0  0  0  0  0  0  0  0
   66.2903   85.8129   92.1327 C   0  0  0  0  0  0  0  0  0  0  0  0
   66.4169   84.4166   92.0316 C   0  0  0  0  0  0  0  0  0  0  0  0
   68.1774   88.5126   91.8877 H   0  0  0  0  0  0  0  0  0  0  0  0
   64.9606   86.3878   92.4294 C   0  0  0  0  0  0  0  0  0  0  0  0
   64.1723   85.7915   93.2116 O   0  0  0  0  0  0  0  0  0  0  0  0
   64.5933   87.6196   91.8983 O   0  0  0  0  0  0  0  0  0  0  0  0
   65.1728   88.0702   91.3160 H   0  0  0  0  0  0  0  0  0  0  0  0
 24 25  1  0  0  0
 25 23  1  0  0  0
 23 22  1  0  0  0
 22 21  1  0  0  0
 21 20  1  0  0  0
 20 19  1  0  0  0
 19 18  1  0  0  0
 18 15  1  0  0  0
 15 16  2  0  0  0
 15 17  2  0  0  0
 15 13  1  0  0  0
 13  7  1  0  0  0
  7  8  2  0  0  0
  8  9  1  0  0  0
  9 10  2  0  0  0
 10 11  1  0  0  0
 11  1  1  0  0  0
  1  2  2  0  0  0
  2  3  2  0  0  0
  3  4  2  0  0  0
  4 26  1  0  0  0
 26 27  1  0  0  0
 27 28  1  0  0  0
 28 29  2  0  0  0
 29 30  1  0  0  0
 30 31  2  0  0  0
 31 32  1  0  0  0
 31 33  1  0  0  0
 33 36  1  0  0  0
 36 37  2  0  0  0
 36 38  1  0  0  0
 33 34  2  0  0  0
  4  5  1  0  0  0
  5  6  2  0  0  0
 11 12  2  0  0  0
 12  7  1  0  0  0
  6  1  2  0  0  0
 34 28  1  0  0  0
 13 14  1  0  0  0
 32 35  1  0  0  0
 38 39  1  0  0  0
M  END
> <score>
-0.632506

> <minimizedAffinity>
-6.90031

> <CNNscore>
0.5627453923

> <CNNaffinity>
7.0302963257

> <CNN_VS>
3.9562668800

$$$$
HIPS7022


 39 41  0  0  0  0  0  0  0  0999 V2000
   69.8577   80.5061   90.2343 C   0  0  0  0  0  0  0  0  0  0  0  0
   68.5873   80.7072   90.6796 N   0  0  0  0  0  0  0  0  0  0  0  0
   67.7739   79.6606   90.9772 C   0  0  0  0  0  0  0  0  0  0  0  0
   68.2314   78.3473   90.8112 C   0  0  0  0  0  0  0  0  0  0  0  0
   69.5426   78.1606   90.3634 C   0  0  0  0  0  0  0  0  0  0  0  0
   70.3232   79.2345   90.0864 N   0  0  0  0  0  0  0  0  0  0  0  0
   70.9847   84.0069   89.2806 C   0  0  0  0  0  0  0  0  0  0  0  0
   72.3781   83.8636   89.3659 C   0  0  0  0  0  0  0  0  0  0  0  0
   72.9432   82.6378   89.7236 C   0  0  0  0  0  0  0  0  0  0  0  0
   72.1272   81.5390   89.9950 C   0  0  0  0  0  0  0  0  0  0  0  0
   70.7304   81.6587   89.9186 C   0  0  0  0  0  0  0  0  0  0  0  0
   70.1670   82.8973   89.5585 C   0  0  0  0  0  0  0  0  0  0  0  0
   70.4332   85.2903   88.9324 N   0  0  0  0  0  0  0  0  0  0  0  0
   70.6050   86.0446   89.5412 H   0  0  0  0  0  0  0  0  0  0  0  0
   69.4842   85.5968   87.5087 S   0  0  0  0  0  0  0  0  0  0  0  0
   70.1760   85.0190   86.3030 O   0  0  0  0  0  0  0  0  0  0  0  0
   69.3670   87.0852   87.3230 O   0  0  0  0  0  0  0  0  0  0  0  0
   67.8376   84.9119   87.6590 C   0  0  0  0  0  0  0  0  0  0  0  0
   67.5641   83.9067   86.5397 C   0  0  0  0  0  0  0  0  0  0  0  0
   68.1445   82.5267   86.8817 C   0  0  0  0  0  0  0  0  0  0  0  0
   67.0824   81.5837   87.4831 C   0  0  0  0  0  0  0  0  0  0  0  0
   67.3941   80.0882   87.2787 C   0  0  0  0  0  0  0  0  0  0  0  0
   66.3072   79.1215   87.7842 C   0  0  0  0  0  0  0  0  0  0  0  0
   67.8876   77.5302   86.6252 C   0  0  0  0  0  0  0  0  0  0  0  0
   66.6340   77.6494   87.4875 C   0  0  0  0  0  0  0  0  0  0  0  0
   67.3726   77.1698   91.1671 C   0  0  0  0  0  0  0  0  0  0  0  0
   66.8970   77.3310   92.5008 O   0  0  0  0  0  0  0  0  0  0  0  0
   66.8836   76.3134   93.4667 C   0  0  0  0  0  0  0  0  0  0  0  0
   65.7944   76.1064   94.3307 C   0  0  0  0  0  0  0  0  0  0  0  0
   65.8254   75.0664   95.2608 C   0  0  0  0  0  0  0  0  0  0  0  0
   66.9349   74.2176   95.3485 C   0  0  0  0  0  0  0  0  0  0  0  0
   66.8669   73.1453   96.2389 O   0  0  0  0  0  0  0  0  0  0  0  0
   68.0572   74.4452   94.5163 C   0  0  0  0  0  0  0  0  0  0  0  0
   68.0045   75.4820   93.5687 C   0  0  0  0  0  0  0  0  0  0  0  0
   66.1064   73.0278   96.7736 H   0  0  0  0  0  0  0  0  0  0  0  0
   69.3044   73.6615   94.6459 C   0  0  0  0  0  0  0  0  0  0  0  0
   69.4921   72.9307   95.6555 O   0  0  0  0  0  0  0  0  0  0  0  0
   70.2517   73.6752   93.6277 O   0  0  0  0  0  0  0  0  0  0  0  0
   70.1209   74.2153   92.8733 H   0  0  0  0  0  0  0  0  0  0  0  0
 24 25  1  0  0  0
 25 23  1  0  0  0
 23 22  1  0  0  0
 22 21  1  0  0  0
 21 20  1  0  0  0
 20 19  1  0  0  0
 19 18  1  0  0  0
 18 15  1  0  0  0
 15 16  2  0  0  0
 15 17  2  0  0  0
 15 13  1  0  0  0
 13  7  1  0  0  0
  7  8  2  0  0  0
  8  9  1  0  0  0
  9 10  2  0  0  0
 10 11  1  0  0  0
 11  1  1  0  0  0
  1  2  2  0  0  0
  2  3  2  0  0  0
  3  4  2  0  0  0
  4 26  1  0  0  0
 26 27  1  0  0  0
 27 28  1  0  0  0
 28 29  2  0  0  0
 29 30  1  0  0  0
 30 31  2  0  0  0
 31 32  1  0  0  0
 31 33  1  0  0  0
 33 36  1  0  0  0
 36 37  2  0  0  0
 36 38  1  0  0  0
 33 34  2  0  0  0
  4  5  1  0  0  0
  5  6  2  0  0  0
 11 12  2  0  0  0
 12  7  1  0  0  0
  6  1  2  0  0  0
 34 28  1  0  0  0
 13 14  1  0  0  0
 32 35  1  0  0  0
 38 39  1  0  0  0
M  END
> <score>
-0.632506

> <minimizedAffinity>
-8.09663

> <CNNscore>
0.5424289703

> <CNNaffinity>
7.1126241684

> <CNN_VS>
3.8580935001

$$$$
HIPS7022


 39 41  0  0  0  0  0  0  0  0999 V2000
   66.5625   77.3395   93.2955 C   0  0  0  0  0  0  0  0  0  0  0  0
   67.2959   77.5870   92.1759 N   0  0  0  0  0  0  0  0  0  0  0  0
   67.1445   78.7432   91.4789 C   0  0  0  0  0  0  0  0  0  0  0  0
   66.2094   79.6978   91.8984 C   0  0  0  0  0  0  0  0  0  0  0  0
   65.4732   79.4309   93.0565 C   0  0  0  0  0  0  0  0  0  0  0  0
   65.6629   78.2671   93.7266 N   0  0  0  0  0  0  0  0  0  0  0  0
   68.1672   74.2052   94.7223 C   0  0  0  0  0  0  0  0  0  0  0  0
   67.1120   73.7038   95.4998 C   0  0  0  0  0  0  0  0  0  0  0  0
   65.8895   74.3767   95.5524 C   0  0  0  0  0  0  0  0  0  0  0  0
   65.7020   75.5536   94.8268 C   0  0  0  0  0  0  0  0  0  0  0  0
   66.7438   76.0759   94.0438 C   0  0  0  0  0  0  0  0  0  0  0  0
   67.9740   75.3935   93.9958 C   0  0  0  0  0  0  0  0  0  0  0  0
   69.4224   73.5005   94.7084 N   0  0  0  0  0  0  0  0  0  0  0  0
   70.0290   73.6273   95.4734 H   0  0  0  0  0  0  0  0  0  0  0  0
   69.9385   72.4406   93.4310 S   0  0  0  0  0  0  0  0  0  0  0  0
   70.7164   71.2890   94.0096 O   0  0  0  0  0  0  0  0  0  0  0  0
   70.8428   73.2099   92.5070 O   0  0  0  0  0  0  0  0  0  0  0  0
   68.5478   71.8288   92.4853 C   0  0  0  0  0  0  0  0  0  0  0  0
   68.5700   72.3901   91.0632 C   0  0  0  0  0  0  0  0  0  0  0  0
   67.5299   73.5072   90.8932 C   0  0  0  0  0  0  0  0  0  0  0  0
   68.0606   74.6664   90.0251 C   0  0  0  0  0  0  0  0  0  0  0  0
   67.1715   74.9863   88.8074 C   0  0  0  0  0  0  0  0  0  0  0  0
   66.7546   76.4629   88.6755 C   0  0  0  0  0  0  0  0  0  0  0  0
   67.0844   76.5188   86.1733 C   0  0  0  0  0  0  0  0  0  0  0  0
   67.4466   77.1752   87.5027 C   0  0  0  0  0  0  0  0  0  0  0  0
   66.0446   81.0012   91.1740 C   0  0  0  0  0  0  0  0  0  0  0  0
   67.0431   81.0966   90.1616 O   0  0  0  0  0  0  0  0  0  0  0  0
   67.8428   82.2280   89.9401 C   0  0  0  0  0  0  0  0  0  0  0  0
   68.8054   82.2841   88.9174 C   0  0  0  0  0  0  0  0  0  0  0  0
   69.5607   83.4423   88.7287 C   0  0  0  0  0  0  0  0  0  0  0  0
   69.3737   84.5604   89.5498 C   0  0  0  0  0  0  0  0  0  0  0  0
   70.0988   85.7154   89.2538 O   0  0  0  0  0  0  0  0  0  0  0  0
   68.4408   84.4994   90.6126 C   0  0  0  0  0  0  0  0  0  0  0  0
   67.6707   83.3353   90.7782 C   0  0  0  0  0  0  0  0  0  0  0  0
   70.7077   85.7167   88.5416 H   0  0  0  0  0  0  0  0  0  0  0  0
   68.2858   85.6005   91.5875 C   0  0  0  0  0  0  0  0  0  0  0  0
   67.3706   86.4544   91.4392 O   0  0  0  0  0  0  0  0  0  0  0  0
   69.1070   85.6676   92.7079 O   0  0  0  0  0  0  0  0  0  0  0  0
   69.7900   85.0372   92.8266 H   0  0  0  0  0  0  0  0  0  0  0  0
 24 25  1  0  0  0
 25 23  1  0  0  0
 23 22  1  0  0  0
 22 21  1  0  0  0
 21 20  1  0  0  0
 20 19  1  0  0  0
 19 18  1  0  0  0
 18 15  1  0  0  0
 15 16  2  0  0  0
 15 17  2  0  0  0
 15 13  1  0  0  0
 13  7  1  0  0  0
  7  8  2  0  0  0
  8  9  1  0  0  0
  9 10  2  0  0  0
 10 11  1  0  0  0
 11  1  1  0  0  0
  1  2  2  0  0  0
  2  3  2  0  0  0
  3  4  2  0  0  0
  4 26  1  0  0  0
 26 27  1  0  0  0
 27 28  1  0  0  0
 28 29  2  0  0  0
 29 30  1  0  0  0
 30 31  2  0  0  0
 31 32  1  0  0  0
 31 33  1  0  0  0
 33 36  1  0  0  0
 36 37  2  0  0  0
 36 38  1  0  0  0
 33 34  2  0  0  0
  4  5  1  0  0  0
  5  6  2  0  0  0
 11 12  2  0  0  0
 12  7  1  0  0  0
  6  1  2  0  0  0
 34 28  1  0  0  0
 13 14  1  0  0  0
 32 35  1  0  0  0
 38 39  1  0  0  0
M  END
> <score>
-0.632506

> <minimizedAffinity>
-6.95658

> <CNNscore>
0.5281966329

> <CNNaffinity>
7.1560039520

> <CNN_VS>
3.7797772884

$$$$
HIPS7032


 25 27  0  0  0  0  0  0  0  0999 V2000
   67.0573   77.2552   92.5332 O   0  0  0  0  0  0  0  0  0  0  0  0
   68.1492   74.3367   94.6176 C   0  0  0  0  0  0  0  0  0  0  0  0
   68.1745   75.3615   93.6541 C   0  0  0  0  0  0  0  0  0  0  0  0
   67.0656   76.2085   93.4699 C   0  0  0  0  0  0  0  0  0  0  0  0
   65.9231   76.0131   94.2482 C   0  0  0  0  0  0  0  0  0  0  0  0
   65.8748   74.9866   95.1911 C   0  0  0  0  0  0  0  0  0  0  0  0
   66.9669   74.1317   95.3723 C   0  0  0  0  0  0  0  0  0  0  0  0
   66.8231   73.0789   96.2788 O   0  0  0  0  0  0  0  0  0  0  0  0
   66.0242   72.9792   96.7581 H   0  0  0  0  0  0  0  0  0  0  0  0
   70.3026   73.5460   93.9666 O   0  0  0  0  0  0  0  0  0  0  0  0
   69.3773   73.5365   94.8218 C   0  0  0  0  0  0  0  0  0  0  0  0
   69.4901   72.7133   95.9393 O   0  0  0  0  0  0  0  0  0  0  0  0
   68.8077   72.6987   96.5812 H   0  0  0  0  0  0  0  0  0  0  0  0
   68.1850   77.6952   91.7747 C   0  0  0  0  0  0  0  0  0  0  0  0
   67.7518   78.2660   90.4495 C   0  0  0  0  0  0  0  0  0  0  0  0
   67.3281   79.5995   90.3553 C   0  0  0  0  0  0  0  0  0  0  0  0
   66.9387   80.1272   89.1238 C   0  0  0  0  0  0  0  0  0  0  0  0
   66.9750   79.3330   87.9757 C   0  0  0  0  0  0  0  0  0  0  0  0
   67.4049   77.9956   88.0437 C   0  0  0  0  0  0  0  0  0  0  0  0
   67.8021   77.4734   89.2908 C   0  0  0  0  0  0  0  0  0  0  0  0
   67.4391   77.1888   86.8481 N   0  0  0  0  0  0  0  0  0  0  0  0
   68.0246   77.4748   85.6681 C   0  0  0  0  0  0  0  0  0  0  0  0
   67.7959   76.3976   84.8427 C   0  0  0  0  0  0  0  0  0  0  0  0
   67.0836   75.4876   85.5345 N   0  0  0  0  0  0  0  0  0  0  0  0
   66.8831   75.9910   86.7434 N   0  0  0  0  0  0  0  0  0  0  0  0
 10 11  2  0  0  0
 11 12  1  0  0  0
 11  2  1  0  0  0
  2  3  2  0  0  0
  3  4  1  0  0  0
  4  1  1  0  0  0
  1 14  1  0  0  0
 14 15  1  0  0  0
 15 16  2  0  0  0
 16 17  1  0  0  0
 17 18  2  0  0  0
 18 19  1  0  0  0
 19 21  1  0  0  0
 21 22  1  0  0  0
 22 23  2  0  0  0
 23 24  2  0  0  0
 24 25  2  0  0  0
 19 20  2  0  0  0
  4  5  2  0  0  0
  5  6  1  0  0  0
  6  7  2  0  0  0
  7  8  1  0  0  0
  7  2  1  0  0  0
 20 15  1  0  0  0
 25 21  1  0  0  0
 12 13  1  0  0  0
  8  9  1  0  0  0
M  END
> <score>
0.200931

> <minimizedAffinity>
-7.04658

> <CNNscore>
0.7727054954

> <CNNaffinity>
5.5828504562

> <CNN_VS>
4.3138990402

$$$$
HIPS7032


 25 27  0  0  0  0  0  0  0  0999 V2000
   67.8365   78.7523   88.4407 O   0  0  0  0  0  0  0  0  0  0  0  0
   69.6598   76.5904   90.9017 C   0  0  0  0  0  0  0  0  0  0  0  0
   69.3272   77.6988   90.1015 C   0  0  0  0  0  0  0  0  0  0  0  0
   68.2141   77.6615   89.2409 C   0  0  0  0  0  0  0  0  0  0  0  0
   67.4429   76.4994   89.1756 C   0  0  0  0  0  0  0  0  0  0  0  0
   67.7741   75.3847   89.9455 C   0  0  0  0  0  0  0  0  0  0  0  0
   68.8858   75.4077   90.7939 C   0  0  0  0  0  0  0  0  0  0  0  0
   69.2039   74.2325   91.4784 O   0  0  0  0  0  0  0  0  0  0  0  0
   68.6654   73.4722   91.3793 H   0  0  0  0  0  0  0  0  0  0  0  0
   70.7258   76.2232   93.0029 O   0  0  0  0  0  0  0  0  0  0  0  0
   70.7898   76.7234   91.8481 C   0  0  0  0  0  0  0  0  0  0  0  0
   71.9134   77.4621   91.4864 O   0  0  0  0  0  0  0  0  0  0  0  0
   71.9710   77.8383   90.6302 H   0  0  0  0  0  0  0  0  0  0  0  0
   67.1475   79.9160   88.9005 C   0  0  0  0  0  0  0  0  0  0  0  0
   67.8224   81.1699   88.4085 C   0  0  0  0  0  0  0  0  0  0  0  0
   67.1563   82.0368   87.5303 C   0  0  0  0  0  0  0  0  0  0  0  0
   67.7810   83.2027   87.0862 C   0  0  0  0  0  0  0  0  0  0  0  0
   69.0709   83.5176   87.5189 C   0  0  0  0  0  0  0  0  0  0  0  0
   69.7554   82.6682   88.4067 C   0  0  0  0  0  0  0  0  0  0  0  0
   69.1139   81.4962   88.8545 C   0  0  0  0  0  0  0  0  0  0  0  0
   71.0866   83.0088   88.8465 N   0  0  0  0  0  0  0  0  0  0  0  0
   71.8058   82.4433   89.8364 C   0  0  0  0  0  0  0  0  0  0  0  0
   73.0148   83.0998   89.8706 C   0  0  0  0  0  0  0  0  0  0  0  0
   73.0041   84.0412   88.9074 N   0  0  0  0  0  0  0  0  0  0  0  0
   71.8275   83.9632   88.3034 N   0  0  0  0  0  0  0  0  0  0  0  0
 10 11  2  0  0  0
 11 12  1  0  0  0
 11  2  1  0  0  0
  2  3  2  0  0  0
  3  4  1  0  0  0
  4  1  1  0  0  0
  1 14  1  0  0  0
 14 15  1  0  0  0
 15 16  2  0  0  0
 16 17  1  0  0  0
 17 18  2  0  0  0
 18 19  1  0  0  0
 19 21  1  0  0  0
 21 22  1  0  0  0
 22 23  2  0  0  0
 23 24  2  0  0  0
 24 25  2  0  0  0
 19 20  2  0  0  0
  4  5  2  0  0  0
  5  6  1  0  0  0
  6  7  2  0  0  0
  7  8  1  0  0  0
  7  2  1  0  0  0
 20 15  1  0  0  0
 25 21  1  0  0  0
 12 13  1  0  0  0
  8  9  1  0  0  0
M  END
> <score>
0.200931

> <minimizedAffinity>
-6.52217

> <CNNscore>
0.6845197082

> <CNNaffinity>
5.4932918549

> <CNN_VS>
3.7602665424

$$$$
HIPS7032


 25 27  0  0  0  0  0  0  0  0999 V2000
   66.9965   77.0143   92.1806 O   0  0  0  0  0  0  0  0  0  0  0  0
   68.1291   74.2792   94.4809 C   0  0  0  0  0  0  0  0  0  0  0  0
   68.1378   75.2235   93.4381 C   0  0  0  0  0  0  0  0  0  0  0  0
   67.0213   76.0462   93.1981 C   0  0  0  0  0  0  0  0  0  0  0  0
   65.8879   75.9069   94.0015 C   0  0  0  0  0  0  0  0  0  0  0  0
   65.8561   74.9592   95.0241 C   0  0  0  0  0  0  0  0  0  0  0  0
   66.9558   74.1283   95.2619 C   0  0  0  0  0  0  0  0  0  0  0  0
   66.8283   73.1508   96.2514 O   0  0  0  0  0  0  0  0  0  0  0  0
   66.0349   73.0850   96.7455 H   0  0  0  0  0  0  0  0  0  0  0  0
   70.2976   73.4832   93.8892 O   0  0  0  0  0  0  0  0  0  0  0  0
   69.3647   73.5055   94.7359 C   0  0  0  0  0  0  0  0  0  0  0  0
   69.4770   72.7411   95.8944 O   0  0  0  0  0  0  0  0  0  0  0  0
   68.7890   72.7505   96.5304 H   0  0  0  0  0  0  0  0  0  0  0  0
   67.5167   76.8411   90.8615 C   0  0  0  0  0  0  0  0  0  0  0  0
   68.8099   77.5948   90.6905 C   0  0  0  0  0  0  0  0  0  0  0  0
   70.0391   76.9501   90.8910 C   0  0  0  0  0  0  0  0  0  0  0  0
   71.2345   77.6491   90.7204 C   0  0  0  0  0  0  0  0  0  0  0  0
   71.2150   78.9932   90.3420 C   0  0  0  0  0  0  0  0  0  0  0  0
   69.9948   79.6586   90.1264 C   0  0  0  0  0  0  0  0  0  0  0  0
   68.7929   78.9426   90.2952 C   0  0  0  0  0  0  0  0  0  0  0  0
   69.9914   81.0467   89.7333 N   0  0  0  0  0  0  0  0  0  0  0  0
   71.0049   81.9328   89.8008 C   0  0  0  0  0  0  0  0  0  0  0  0
   70.5236   83.1218   89.3023 C   0  0  0  0  0  0  0  0  0  0  0  0
   69.2389   82.9329   88.9444 N   0  0  0  0  0  0  0  0  0  0  0  0
   68.9438   81.6699   89.2147 N   0  0  0  0  0  0  0  0  0  0  0  0
 10 11  2  0  0  0
 11 12  1  0  0  0
 11  2  1  0  0  0
  2  3  2  0  0  0
  3  4  1  0  0  0
  4  1  1  0  0  0
  1 14  1  0  0  0
 14 15  1  0  0  0
 15 16  2  0  0  0
 16 17  1  0  0  0
 17 18  2  0  0  0
 18 19  1  0  0  0
 19 21  1  0  0  0
 21 22  1  0  0  0
 22 23  2  0  0  0
 23 24  2  0  0  0
 24 25  2  0  0  0
 19 20  2  0  0  0
  4  5  2  0  0  0
  5  6  1  0  0  0
  6  7  2  0  0  0
  7  8  1  0  0  0
  7  2  1  0  0  0
 20 15  1  0  0  0
 25 21  1  0  0  0
 12 13  1  0  0  0
  8  9  1  0  0  0
M  END
> <score>
0.200931

> <minimizedAffinity>
-7.38831

> <CNNscore>
0.6754577756

> <CNNaffinity>
5.3096923828

> <CNN_VS>
3.5864729881

$$$$
HIPS7048


 38 41  0  0  0  0  0  0  0  0999 V2000
   67.3587   75.8009   88.9605 C   0  0  0  0  0  0  0  0  0  0  0  0
   66.7559   74.7757   88.2632 C   0  0  0  0  0  0  0  0  0  0  0  0
   66.8752   73.4560   88.6243 C   0  0  0  0  0  0  0  0  0  0  0  0
   67.6334   73.1666   89.7331 C   0  0  0  0  0  0  0  0  0  0  0  0
   68.2648   74.1577   90.4757 C   0  0  0  0  0  0  0  0  0  0  0  0
   68.1103   75.4572   90.0674 C   0  0  0  0  0  0  0  0  0  0  0  0
   67.4240   79.3913   88.6758 C   0  0  0  0  0  0  0  0  0  0  0  0
   67.7105   78.2061   89.3168 C   0  0  0  0  0  0  0  0  0  0  0  0
   67.2297   77.1644   88.5801 N   0  0  0  0  0  0  0  0  0  0  0  0
   66.6650   77.7008   87.5177 N   0  0  0  0  0  0  0  0  0  0  0  0
   66.7706   79.0368   87.5559 N   0  0  0  0  0  0  0  0  0  0  0  0
   69.0127   84.2333   89.6086 C   0  0  0  0  0  0  0  0  0  0  0  0
   68.1940   85.1323   89.2948 O   0  0  0  0  0  0  0  0  0  0  0  0
   68.5087   83.0188   90.1400 N   0  0  0  0  0  0  0  0  0  0  0  0
   67.1002   82.7676   90.3370 C   0  0  0  0  0  0  0  0  0  0  0  0
   66.7491   81.3136   90.0936 C   0  0  0  0  0  0  0  0  0  0  0  0
   67.7404   80.7852   89.0807 C   0  0  0  0  0  0  0  0  0  0  0  0
   69.0999   80.7344   89.7699 C   0  0  0  0  0  0  0  0  0  0  0  0
   69.4339   81.9873   90.5008 C   0  0  0  0  0  0  0  0  0  0  0  0
   70.3665   84.4413   89.4331 O   0  0  0  0  0  0  0  0  0  0  0  0
   70.1824   83.6387   87.1680 C   0  0  0  0  0  0  0  0  0  0  0  0
   70.9399   84.5498   88.1361 C   0  0  0  0  0  0  0  0  0  0  0  0
   72.4028   84.1705   88.1322 C   0  0  0  0  0  0  0  0  0  0  0  0
   70.7531   85.9573   87.6359 C   0  0  0  0  0  0  0  0  0  0  0  0
   69.0810   73.7102   91.6163 C   0  0  0  0  0  0  0  0  0  0  0  0
   68.9283   72.4126   91.9264 O   0  0  0  0  0  0  0  0  0  0  0  0
   69.7021   71.3953   92.2673 C   0  0  0  0  0  0  0  0  0  0  0  0
   69.3071   70.0916   92.3590 C   0  0  0  0  0  0  0  0  0  0  0  0
   70.1734   69.0488   92.7234 C   0  0  0  0  0  0  0  0  0  0  0  0
   71.4710   69.3484   93.0003 C   0  0  0  0  0  0  0  0  0  0  0  0
   72.3315   68.3176   93.3616 O   0  0  0  0  0  0  0  0  0  0  0  0
   71.9393   70.6396   92.9292 C   0  0  0  0  0  0  0  0  0  0  0  0
   71.0618   71.6181   92.5710 C   0  0  0  0  0  0  0  0  0  0  0  0
   72.0138   67.4375   93.4104 H   0  0  0  0  0  0  0  0  0  0  0  0
   73.3518   70.9211   93.2372 C   0  0  0  0  0  0  0  0  0  0  0  0
   73.6724   71.4902   94.2882 O   0  0  0  0  0  0  0  0  0  0  0  0
   74.3021   70.5193   92.2964 O   0  0  0  0  0  0  0  0  0  0  0  0
   74.0298   70.0902   91.5092 H   0  0  0  0  0  0  0  0  0  0  0  0
 21 22  1  0  0  0
 22 23  1  0  0  0
 22 24  1  0  0  0
 22 20  1  0  0  0
 20 12  1  0  0  0
 12 13  2  0  0  0
 12 14  1  0  0  0
 14 15  1  0  0  0
 15 16  1  0  0  0
 16 17  1  0  0  0
 17  7  1  0  0  0
  7  8  2  0  0  0
  8  9  1  0  0  0
  9  1  1  0  0  0
  1  2  2  0  0  0
  2  3  1  0  0  0
  3  4  2  0  0  0
  4  5  1  0  0  0
  5 25  1  0  0  0
 25 26  1  0  0  0
 26 27  1  0  0  0
 27 28  2  0  0  0
 28 29  1  0  0  0
 29 30  2  0  0  0
 30 31  1  0  0  0
 30 32  1  0  0  0
 32 35  1  0  0  0
 35 36  2  0  0  0
 35 37  1  0  0  0
 32 33  2  0  0  0
  5  6  2  0  0  0
  9 10  1  0  0  0
 10 11  2  0  0  0
 17 18  1  0  0  0
 18 19  1  0  0  0
 19 14  1  0  0  0
 11  7  2  0  0  0
  6  1  1  0  0  0
 33 27  1  0  0  0
 31 34  1  0  0  0
 37 38  1  0  0  0
M  END
> <score>
0.157425

> <minimizedAffinity>
-8.44739

> <CNNscore>
0.4732195735

> <CNNaffinity>
6.2293434143

> <CNN_VS>
2.9478471279

$$$$
HIPS7048


 38 41  0  0  0  0  0  0  0  0999 V2000
   67.4357   80.6792   88.6555 C   0  0  0  0  0  0  0  0  0  0  0  0
   67.3023   81.3511   89.8520 C   0  0  0  0  0  0  0  0  0  0  0  0
   67.2913   82.7215   89.9415 C   0  0  0  0  0  0  0  0  0  0  0  0
   67.4200   83.4356   88.7746 C   0  0  0  0  0  0  0  0  0  0  0  0
   67.5575   82.8136   87.5390 C   0  0  0  0  0  0  0  0  0  0  0  0
   67.5621   81.4430   87.5114 C   0  0  0  0  0  0  0  0  0  0  0  0
   67.5283   77.1251   89.2350 C   0  0  0  0  0  0  0  0  0  0  0  0
   67.5490   78.4374   89.6538 C   0  0  0  0  0  0  0  0  0  0  0  0
   67.4457   79.2603   88.5717 N   0  0  0  0  0  0  0  0  0  0  0  0
   67.3640   78.4702   87.5207 N   0  0  0  0  0  0  0  0  0  0  0  0
   67.4118   77.1844   87.8973 N   0  0  0  0  0  0  0  0  0  0  0  0
   67.7416   73.1693   92.5735 C   0  0  0  0  0  0  0  0  0  0  0  0
   66.7657   72.3804   92.5277 O   0  0  0  0  0  0  0  0  0  0  0  0
   68.2094   73.7336   91.3593 N   0  0  0  0  0  0  0  0  0  0  0  0
   67.6170   73.4438   90.0744 C   0  0  0  0  0  0  0  0  0  0  0  0
   67.6538   74.6475   89.1542 C   0  0  0  0  0  0  0  0  0  0  0  0
   67.6119   75.8763   90.0353 C   0  0  0  0  0  0  0  0  0  0  0  0
   68.9385   75.9344   90.7852 C   0  0  0  0  0  0  0  0  0  0  0  0
   69.3215   74.6344   91.4007 C   0  0  0  0  0  0  0  0  0  0  0  0
   68.3313   73.4676   93.7860 O   0  0  0  0  0  0  0  0  0  0  0  0
   66.6976   75.2361   93.8958 C   0  0  0  0  0  0  0  0  0  0  0  0
   67.8423   74.5168   94.6124 C   0  0  0  0  0  0  0  0  0  0  0  0
   68.9222   75.5181   94.9515 C   0  0  0  0  0  0  0  0  0  0  0  0
   67.2571   73.9198   95.8643 C   0  0  0  0  0  0  0  0  0  0  0  0
   67.7285   83.6938   86.3714 C   0  0  0  0  0  0  0  0  0  0  0  0
   68.3756   84.8401   86.6367 O   0  0  0  0  0  0  0  0  0  0  0  0
   69.5611   85.2052   87.0961 C   0  0  0  0  0  0  0  0  0  0  0  0
   70.7141   84.4824   86.9847 C   0  0  0  0  0  0  0  0  0  0  0  0
   71.9486   84.9203   87.4896 C   0  0  0  0  0  0  0  0  0  0  0  0
   72.0024   86.1233   88.1222 C   0  0  0  0  0  0  0  0  0  0  0  0
   73.2239   86.5597   88.6233 O   0  0  0  0  0  0  0  0  0  0  0  0
   70.8809   86.9051   88.2720 C   0  0  0  0  0  0  0  0  0  0  0  0
   69.7055   86.4388   87.7655 C   0  0  0  0  0  0  0  0  0  0  0  0
   73.9888   86.0281   88.5220 H   0  0  0  0  0  0  0  0  0  0  0  0
   70.9826   88.2014   88.9637 C   0  0  0  0  0  0  0  0  0  0  0  0
   71.9575   88.9425   88.7858 O   0  0  0  0  0  0  0  0  0  0  0  0
   69.9372   88.5508   89.8208 O   0  0  0  0  0  0  0  0  0  0  0  0
   69.2114   87.9694   89.9359 H   0  0  0  0  0  0  0  0  0  0  0  0
 21 22  1  0  0  0
 22 23  1  0  0  0
 22 24  1  0  0  0
 22 20  1  0  0  0
 20 12  1  0  0  0
 12 13  2  0  0  0
 12 14  1  0  0  0
 14 15  1  0  0  0
 15 16  1  0  0  0
 16 17  1  0  0  0
 17  7  1  0  0  0
  7  8  2  0  0  0
  8  9  1  0  0  0
  9  1  1  0  0  0
  1  2  2  0  0  0
  2  3  1  0  0  0
  3  4  2  0  0  0
  4  5  1  0  0  0
  5 25  1  0  0  0
 25 26  1  0  0  0
 26 27  1  0  0  0
 27 28  2  0  0  0
 28 29  1  0  0  0
 29 30  2  0  0  0
 30 31  1  0  0  0
 30 32  1  0  0  0
 32 35  1  0  0  0
 35 36  2  0  0  0
 35 37  1  0  0  0
 32 33  2  0  0  0
  5  6  2  0  0  0
  9 10  1  0  0  0
 10 11  2  0  0  0
 17 18  1  0  0  0
 18 19  1  0  0  0
 19 14  1  0  0  0
 11  7  2  0  0  0
  6  1  1  0  0  0
 33 27  1  0  0  0
 31 34  1  0  0  0
 37 38  1  0  0  0
M  END
> <score>
0.157425

> <minimizedAffinity>
-8.73909

> <CNNscore>
0.4317635894

> <CNNaffinity>
6.4293165207

> <CNN_VS>
2.7759447098

$$$$
HIPS7048


 38 41  0  0  0  0  0  0  0  0999 V2000
   67.8968   76.6517   89.6506 C   0  0  0  0  0  0  0  0  0  0  0  0
   66.7404   77.0149   88.9936 C   0  0  0  0  0  0  0  0  0  0  0  0
   66.4717   78.3072   88.6144 C   0  0  0  0  0  0  0  0  0  0  0  0
   67.4105   79.2653   88.9126 C   0  0  0  0  0  0  0  0  0  0  0  0
   68.5948   78.9590   89.5730 C   0  0  0  0  0  0  0  0  0  0  0  0
   68.8084   77.6521   89.9273 C   0  0  0  0  0  0  0  0  0  0  0  0
   69.0931   73.5979   91.1403 C   0  0  0  0  0  0  0  0  0  0  0  0
   69.0678   74.9685   91.0036 C   0  0  0  0  0  0  0  0  0  0  0  0
   68.1673   75.3114   90.0392 N   0  0  0  0  0  0  0  0  0  0  0  0
   67.6569   74.1794   89.5995 N   0  0  0  0  0  0  0  0  0  0  0  0
   68.1994   73.1386   90.2476 N   0  0  0  0  0  0  0  0  0  0  0  0
   72.2438   70.4323   93.7656 C   0  0  0  0  0  0  0  0  0  0  0  0
   73.0948   71.0070   94.4883 O   0  0  0  0  0  0  0  0  0  0  0  0
   70.9534   71.0103   93.6548 N   0  0  0  0  0  0  0  0  0  0  0  0
   70.5725   72.2270   94.3335 C   0  0  0  0  0  0  0  0  0  0  0  0
   69.6081   73.0535   93.5065 C   0  0  0  0  0  0  0  0  0  0  0  0
   69.9056   72.7541   92.0541 C   0  0  0  0  0  0  0  0  0  0  0  0
   69.4809   71.3119   91.7987 C   0  0  0  0  0  0  0  0  0  0  0  0
   69.9758   70.3629   92.8330 C   0  0  0  0  0  0  0  0  0  0  0  0
   72.5755   69.2671   93.1029 O   0  0  0  0  0  0  0  0  0  0  0  0
   74.5404   70.4306   92.3321 C   0  0  0  0  0  0  0  0  0  0  0  0
   73.8685   69.0722   92.5436 C   0  0  0  0  0  0  0  0  0  0  0  0
   73.8080   68.3381   91.2240 C   0  0  0  0  0  0  0  0  0  0  0  0
   74.7201   68.3216   93.5323 C   0  0  0  0  0  0  0  0  0  0  0  0
   69.4967   80.0844   89.8688 C   0  0  0  0  0  0  0  0  0  0  0  0
   68.9601   81.2940   89.6408 O   0  0  0  0  0  0  0  0  0  0  0  0
   69.0929   82.2668   88.7544 C   0  0  0  0  0  0  0  0  0  0  0  0
   68.1764   82.6036   87.8000 C   0  0  0  0  0  0  0  0  0  0  0  0
   68.3682   83.6501   86.8842 C   0  0  0  0  0  0  0  0  0  0  0  0
   69.5233   84.3656   86.9473 C   0  0  0  0  0  0  0  0  0  0  0  0
   69.7161   85.4028   86.0414 O   0  0  0  0  0  0  0  0  0  0  0  0
   70.4917   84.0824   87.8819 C   0  0  0  0  0  0  0  0  0  0  0  0
   70.2610   83.0582   88.7498 C   0  0  0  0  0  0  0  0  0  0  0  0
   69.0572   85.5969   85.4041 H   0  0  0  0  0  0  0  0  0  0  0  0
   71.7283   84.8817   87.9160 C   0  0  0  0  0  0  0  0  0  0  0  0
   72.8312   84.3556   87.7211 O   0  0  0  0  0  0  0  0  0  0  0  0
   71.5982   86.2474   88.1760 O   0  0  0  0  0  0  0  0  0  0  0  0
   70.7498   86.6182   88.3197 H   0  0  0  0  0  0  0  0  0  0  0  0
 21 22  1  0  0  0
 22 23  1  0  0  0
 22 24  1  0  0  0
 22 20  1  0  0  0
 20 12  1  0  0  0
 12 13  2  0  0  0
 12 14  1  0  0  0
 14 15  1  0  0  0
 15 16  1  0  0  0
 16 17  1  0  0  0
 17  7  1  0  0  0
  7  8  2  0  0  0
  8  9  1  0  0  0
  9  1  1  0  0  0
  1  2  2  0  0  0
  2  3  1  0  0  0
  3  4  2  0  0  0
  4  5  1  0  0  0
  5 25  1  0  0  0
 25 26  1  0  0  0
 26 27  1  0  0  0
 27 28  2  0  0  0
 28 29  1  0  0  0
 29 30  2  0  0  0
 30 31  1  0  0  0
 30 32  1  0  0  0
 32 35  1  0  0  0
 35 36  2  0  0  0
 35 37  1  0  0  0
 32 33  2  0  0  0
  5  6  2  0  0  0
  9 10  1  0  0  0
 10 11  2  0  0  0
 17 18  1  0  0  0
 18 19  1  0  0  0
 19 14  1  0  0  0
 11  7  2  0  0  0
  6  1  1  0  0  0
 33 27  1  0  0  0
 31 34  1  0  0  0
 37 38  1  0  0  0
M  END
> <score>
0.157425

> <minimizedAffinity>
-8.63035

> <CNNscore>
0.4221927226

> <CNNaffinity>
5.9596281052

> <CNN_VS>
2.5161116123

$$$$
HIPS7049


 36 39  0  0  0  0  0  0  0  0999 V2000
   69.2007   73.3743   91.6865 C   0  0  0  0  0  0  0  0  0  0  0  0
   68.4913   72.4835   90.8684 C   0  0  0  0  0  0  0  0  0  0  0  0
   67.7260   72.9641   89.8063 C   0  0  0  0  0  0  0  0  0  0  0  0
   67.6683   74.3347   89.5456 C   0  0  0  0  0  0  0  0  0  0  0  0
   68.3876   75.2458   90.3390 C   0  0  0  0  0  0  0  0  0  0  0  0
   69.1595   74.7509   91.4080 C   0  0  0  0  0  0  0  0  0  0  0  0
   68.3134   76.6592   90.0602 N   0  0  0  0  0  0  0  0  0  0  0  0
   68.8466   77.6741   90.7684 C   0  0  0  0  0  0  0  0  0  0  0  0
   68.5031   78.8292   90.1040 C   0  0  0  0  0  0  0  0  0  0  0  0
   67.7875   78.4988   89.0131 N   0  0  0  0  0  0  0  0  0  0  0  0
   67.6848   77.1779   89.0145 N   0  0  0  0  0  0  0  0  0  0  0  0
   68.9264   80.2197   90.4604 C   0  0  0  0  0  0  0  0  0  0  0  0
   70.2995   80.4232   90.1272 O   0  0  0  0  0  0  0  0  0  0  0  0
   70.8583   81.6361   89.6925 C   0  0  0  0  0  0  0  0  0  0  0  0
   72.1415   82.0657   90.0824 C   0  0  0  0  0  0  0  0  0  0  0  0
   72.6473   83.2856   89.6234 C   0  0  0  0  0  0  0  0  0  0  0  0
   71.8789   84.0991   88.7777 C   0  0  0  0  0  0  0  0  0  0  0  0
   70.6099   83.6613   88.3709 C   0  0  0  0  0  0  0  0  0  0  0  0
   70.1041   82.4414   88.8300 C   0  0  0  0  0  0  0  0  0  0  0  0
   72.4368   85.3922   88.2569 C   0  0  0  0  0  0  0  0  0  0  0  0
   71.5775   85.9064   87.2795 O   0  0  0  0  0  0  0  0  0  0  0  0
   71.4974   85.2699   86.5520 H   0  0  0  0  0  0  0  0  0  0  0  0
   70.0178   72.8589   92.8443 C   0  0  0  0  0  0  0  0  0  0  0  0
   70.8518   71.7719   92.4380 O   0  0  0  0  0  0  0  0  0  0  0  0
   73.9758   70.3658   93.8554 C   0  0  0  0  0  0  0  0  0  0  0  0
   73.0727   71.0705   93.0388 C   0  0  0  0  0  0  0  0  0  0  0  0
   71.6968   71.0377   93.2866 C   0  0  0  0  0  0  0  0  0  0  0  0
   71.2122   70.2753   94.3629 C   0  0  0  0  0  0  0  0  0  0  0  0
   72.0980   69.5885   95.1922 C   0  0  0  0  0  0  0  0  0  0  0  0
   73.4768   69.6451   94.9679 C   0  0  0  0  0  0  0  0  0  0  0  0
   74.3118   69.0074   95.8872 O   0  0  0  0  0  0  0  0  0  0  0  0
   73.9421   68.5404   96.6105 H   0  0  0  0  0  0  0  0  0  0  0  0
   76.0914   69.3158   93.5974 O   0  0  0  0  0  0  0  0  0  0  0  0
   75.4110   70.3732   93.4973 C   0  0  0  0  0  0  0  0  0  0  0  0
   76.0379   71.5531   93.1052 O   0  0  0  0  0  0  0  0  0  0  0  0
   75.5414   72.3441   93.0279 H   0  0  0  0  0  0  0  0  0  0  0  0
 33 34  2  0  0  0
 34 35  1  0  0  0
 34 25  1  0  0  0
 25 26  2  0  0  0
 26 27  1  0  0  0
 27 24  1  0  0  0
 24 23  1  0  0  0
 23  1  1  0  0  0
  1  2  2  0  0  0
  2  3  1  0  0  0
  3  4  2  0  0  0
  4  5  1  0  0  0
  5  7  1  0  0  0
  7  8  1  0  0  0
  8  9  2  0  0  0
  9 12  1  0  0  0
 12 13  1  0  0  0
 13 14  1  0  0  0
 14 15  2  0  0  0
 15 16  1  0  0  0
 16 17  2  0  0  0
 17 20  1  0  0  0
 20 21  1  0  0  0
 17 18  1  0  0  0
 18 19  2  0  0  0
  9 10  2  0  0  0
 10 11  2  0  0  0
  5  6  2  0  0  0
 27 28  2  0  0  0
 28 29  1  0  0  0
 29 30  2  0  0  0
 30 31  1  0  0  0
 30 25  1  0  0  0
  6  1  1  0  0  0
 11  7  1  0  0  0
 19 14  1  0  0  0
 35 36  1  0  0  0
 21 22  1  0  0  0
 31 32  1  0  0  0
M  END
> <score>
0.257233

> <minimizedAffinity>
-8.38525

> <CNNscore>
0.5490844846

> <CNNaffinity>
5.5872964859

> <CNN_VS>
3.0678977966

$$$$
HIPS7049


 36 39  0  0  0  0  0  0  0  0999 V2000
   71.2597   83.9409   88.1035 C   0  0  0  0  0  0  0  0  0  0  0  0
   72.5110   84.1698   88.6933 C   0  0  0  0  0  0  0  0  0  0  0  0
   72.9774   83.3247   89.6998 C   0  0  0  0  0  0  0  0  0  0  0  0
   72.2049   82.2402   90.1205 C   0  0  0  0  0  0  0  0  0  0  0  0
   70.9562   81.9779   89.5297 C   0  0  0  0  0  0  0  0  0  0  0  0
   70.4946   82.8356   88.5124 C   0  0  0  0  0  0  0  0  0  0  0  0
   70.1676   80.8568   89.9791 N   0  0  0  0  0  0  0  0  0  0  0  0
   68.8700   80.8471   90.3426 C   0  0  0  0  0  0  0  0  0  0  0  0
   68.5776   79.5483   90.6910 C   0  0  0  0  0  0  0  0  0  0  0  0
   69.6842   78.8008   90.5239 N   0  0  0  0  0  0  0  0  0  0  0  0
   70.6329   79.6208   90.0959 N   0  0  0  0  0  0  0  0  0  0  0  0
   67.2385   79.0156   91.0941 C   0  0  0  0  0  0  0  0  0  0  0  0
   66.3833   78.9050   89.9564 O   0  0  0  0  0  0  0  0  0  0  0  0
   66.6233   78.0924   88.8364 C   0  0  0  0  0  0  0  0  0  0  0  0
   66.6560   76.6865   88.9094 C   0  0  0  0  0  0  0  0  0  0  0  0
   66.9044   75.9256   87.7630 C   0  0  0  0  0  0  0  0  0  0  0  0
   67.1331   76.5542   86.5301 C   0  0  0  0  0  0  0  0  0  0  0  0
   67.0782   77.9538   86.4524 C   0  0  0  0  0  0  0  0  0  0  0  0
   66.8299   78.7145   87.5989 C   0  0  0  0  0  0  0  0  0  0  0  0
   67.3645   75.7357   85.2928 C   0  0  0  0  0  0  0  0  0  0  0  0
   66.5303   76.1985   84.2691 O   0  0  0  0  0  0  0  0  0  0  0  0
   65.6040   76.1168   84.5451 H   0  0  0  0  0  0  0  0  0  0  0  0
   70.7465   84.8611   87.0248 C   0  0  0  0  0  0  0  0  0  0  0  0
   69.5683   85.5462   87.4548 O   0  0  0  0  0  0  0  0  0  0  0  0
   68.7038   86.8407   90.8197 C   0  0  0  0  0  0  0  0  0  0  0  0
   68.8060   86.0110   89.6882 C   0  0  0  0  0  0  0  0  0  0  0  0
   69.4965   86.4281   88.5459 C   0  0  0  0  0  0  0  0  0  0  0  0
   70.0849   87.7040   88.5283 C   0  0  0  0  0  0  0  0  0  0  0  0
   70.0083   88.5282   89.6503 C   0  0  0  0  0  0  0  0  0  0  0  0
   69.3473   88.1024   90.8062 C   0  0  0  0  0  0  0  0  0  0  0  0
   69.3842   88.9401   91.9223 O   0  0  0  0  0  0  0  0  0  0  0  0
   69.8206   89.7678   91.8726 H   0  0  0  0  0  0  0  0  0  0  0  0
   68.4027   86.3344   93.1214 O   0  0  0  0  0  0  0  0  0  0  0  0
   67.8940   86.3784   91.9681 C   0  0  0  0  0  0  0  0  0  0  0  0
   66.5881   85.9328   91.7811 O   0  0  0  0  0  0  0  0  0  0  0  0
   66.2009   85.9613   90.9283 H   0  0  0  0  0  0  0  0  0  0  0  0
 33 34  2  0  0  0
 34 35  1  0  0  0
 34 25  1  0  0  0
 25 26  2  0  0  0
 26 27  1  0  0  0
 27 24  1  0  0  0
 24 23  1  0  0  0
 23  1  1  0  0  0
  1  2  2  0  0  0
  2  3  1  0  0  0
  3  4  2  0  0  0
  4  5  1  0  0  0
  5  7  1  0  0  0
  7  8  1  0  0  0
  8  9  2  0  0  0
  9 12  1  0  0  0
 12 13  1  0  0  0
 13 14  1  0  0  0
 14 15  2  0  0  0
 15 16  1  0  0  0
 16 17  2  0  0  0
 17 20  1  0  0  0
 20 21  1  0  0  0
 17 18  1  0  0  0
 18 19  2  0  0  0
  9 10  2  0  0  0
 10 11  2  0  0  0
  5  6  2  0  0  0
 27 28  2  0  0  0
 28 29  1  0  0  0
 29 30  2  0  0  0
 30 31  1  0  0  0
 30 25  1  0  0  0
  6  1  1  0  0  0
 11  7  1  0  0  0
 19 14  1  0  0  0
 35 36  1  0  0  0
 21 22  1  0  0  0
 31 32  1  0  0  0
M  END
> <score>
0.257233

> <minimizedAffinity>
-7.75568

> <CNNscore>
0.4820502996

> <CNNaffinity>
6.3242330551

> <CNN_VS>
3.0485985279

$$$$
HIPS7049


 36 39  0  0  0  0  0  0  0  0999 V2000
   67.1134   75.4927   88.8059 C   0  0  0  0  0  0  0  0  0  0  0  0
   66.6596   74.3697   88.0996 C   0  0  0  0  0  0  0  0  0  0  0  0
   66.9440   73.0862   88.5649 C   0  0  0  0  0  0  0  0  0  0  0  0
   67.6751   72.9115   89.7417 C   0  0  0  0  0  0  0  0  0  0  0  0
   68.1230   74.0222   90.4785 C   0  0  0  0  0  0  0  0  0  0  0  0
   67.8290   75.3145   90.0019 C   0  0  0  0  0  0  0  0  0  0  0  0
   68.8819   73.8252   91.6894 N   0  0  0  0  0  0  0  0  0  0  0  0
   69.1106   72.6716   92.3473 C   0  0  0  0  0  0  0  0  0  0  0  0
   69.8823   72.9977   93.4390 C   0  0  0  0  0  0  0  0  0  0  0  0
   70.1150   74.3231   93.4182 N   0  0  0  0  0  0  0  0  0  0  0  0
   69.4932   74.7991   92.3494 N   0  0  0  0  0  0  0  0  0  0  0  0
   70.4594   72.0437   94.4372 C   0  0  0  0  0  0  0  0  0  0  0  0
   70.8169   70.8155   93.8036 O   0  0  0  0  0  0  0  0  0  0  0  0
   72.1020   70.4820   93.3460 C   0  0  0  0  0  0  0  0  0  0  0  0
   72.3214   69.7201   92.1821 C   0  0  0  0  0  0  0  0  0  0  0  0
   73.6229   69.4126   91.7745 C   0  0  0  0  0  0  0  0  0  0  0  0
   74.7237   69.8513   92.5250 C   0  0  0  0  0  0  0  0  0  0  0  0
   74.5066   70.6293   93.6718 C   0  0  0  0  0  0  0  0  0  0  0  0
   73.2050   70.9367   94.0795 C   0  0  0  0  0  0  0  0  0  0  0  0
   76.1219   69.5509   92.0673 C   0  0  0  0  0  0  0  0  0  0  0  0
   76.4676   70.4259   91.0315 O   0  0  0  0  0  0  0  0  0  0  0  0
   75.8510   70.3108   90.2917 H   0  0  0  0  0  0  0  0  0  0  0  0
   66.8196   76.8818   88.2978 C   0  0  0  0  0  0  0  0  0  0  0  0
   67.2498   77.8709   89.2353 O   0  0  0  0  0  0  0  0  0  0  0  0
   68.9575   81.1609   89.3063 C   0  0  0  0  0  0  0  0  0  0  0  0
   68.6106   79.8246   89.5765 C   0  0  0  0  0  0  0  0  0  0  0  0
   67.5358   79.2108   88.9255 C   0  0  0  0  0  0  0  0  0  0  0  0
   66.7845   79.9503   87.9965 C   0  0  0  0  0  0  0  0  0  0  0  0
   67.1300   81.2691   87.7045 C   0  0  0  0  0  0  0  0  0  0  0  0
   68.2239   81.8763   88.3286 C   0  0  0  0  0  0  0  0  0  0  0  0
   68.5680   83.1678   87.9255 O   0  0  0  0  0  0  0  0  0  0  0  0
   68.0565   83.6076   87.2752 H   0  0  0  0  0  0  0  0  0  0  0  0
   71.1101   81.1313   90.3115 O   0  0  0  0  0  0  0  0  0  0  0  0
   70.0532   81.7808   90.0832 C   0  0  0  0  0  0  0  0  0  0  0  0
   69.9081   83.0578   90.6188 O   0  0  0  0  0  0  0  0  0  0  0  0
   69.1268   83.5486   90.4551 H   0  0  0  0  0  0  0  0  0  0  0  0
 33 34  2  0  0  0
 34 35  1  0  0  0
 34 25  1  0  0  0
 25 26  2  0  0  0
 26 27  1  0  0  0
 27 24  1  0  0  0
 24 23  1  0  0  0
 23  1  1  0  0  0
  1  2  2  0  0  0
  2  3  1  0  0  0
  3  4  2  0  0  0
  4  5  1  0  0  0
  5  7  1  0  0  0
  7  8  1  0  0  0
  8  9  2  0  0  0
  9 12  1  0  0  0
 12 13  1  0  0  0
 13 14  1  0  0  0
 14 15  2  0  0  0
 15 16  1  0  0  0
 16 17  2  0  0  0
 17 20  1  0  0  0
 20 21  1  0  0  0
 17 18  1  0  0  0
 18 19  2  0  0  0
  9 10  2  0  0  0
 10 11  2  0  0  0
  5  6  2  0  0  0
 27 28  2  0  0  0
 28 29  1  0  0  0
 29 30  2  0  0  0
 30 31  1  0  0  0
 30 25  1  0  0  0
  6  1  1  0  0  0
 11  7  1  0  0  0
 19 14  1  0  0  0
 35 36  1  0  0  0
 21 22  1  0  0  0
 31 32  1  0  0  0
M  END
> <score>
0.257233

> <minimizedAffinity>
-8.08148

> <CNNscore>
0.4715205431

> <CNNaffinity>
5.7278747559

> <CNN_VS>
2.7008106709

$$$$
HIPS7050


 34 36  0  0  0  0  0  0  0  0999 V2000
   68.6627   78.7088   90.7468 C   0  0  0  0  0  0  0  0  0  0  0  0
   69.5556   77.6301   90.6737 C   0  0  0  0  0  0  0  0  0  0  0  0
   70.8957   77.8470   90.3529 C   0  0  0  0  0  0  0  0  0  0  0  0
   71.3539   79.1395   90.0917 C   0  0  0  0  0  0  0  0  0  0  0  0
   70.4748   80.2361   90.1483 C   0  0  0  0  0  0  0  0  0  0  0  0
   69.1267   80.0094   90.4899 C   0  0  0  0  0  0  0  0  0  0  0  0
   70.9532   81.5580   89.8275 N   0  0  0  0  0  0  0  0  0  0  0  0
   70.5430   82.3642   88.8287 C   0  0  0  0  0  0  0  0  0  0  0  0
   71.3771   83.4591   88.8476 C   0  0  0  0  0  0  0  0  0  0  0  0
   72.2698   83.2963   89.8426 N   0  0  0  0  0  0  0  0  0  0  0  0
   71.9857   82.1389   90.4218 N   0  0  0  0  0  0  0  0  0  0  0  0
   71.4552   84.5375   87.8165 C   0  0  0  0  0  0  0  0  0  0  0  0
   70.6779   84.1559   86.6947 O   0  0  0  0  0  0  0  0  0  0  0  0
   69.4559   84.8666   86.6232 C   0  0  0  0  0  0  0  0  0  0  0  0
   69.4819   86.1463   87.4667 C   0  0  0  0  0  0  0  0  0  0  0  0
   68.6160   86.0026   88.5738 O   0  0  0  0  0  0  0  0  0  0  0  0
   67.7911   84.8718   88.3898 C   0  0  0  0  0  0  0  0  0  0  0  0
   67.2583   84.4186   89.7426 C   0  0  0  0  0  0  0  0  0  0  0  0
   68.0577   84.9442   90.7654 O   0  0  0  0  0  0  0  0  0  0  0  0
   68.9686   84.6286   90.6583 H   0  0  0  0  0  0  0  0  0  0  0  0
   67.2162   78.4554   91.0753 C   0  0  0  0  0  0  0  0  0  0  0  0
   67.0472   78.3193   92.4866 O   0  0  0  0  0  0  0  0  0  0  0  0
   68.2229   75.1398   93.9967 C   0  0  0  0  0  0  0  0  0  0  0  0
   68.1914   76.3715   93.3123 C   0  0  0  0  0  0  0  0  0  0  0  0
   67.0048   77.1027   93.1876 C   0  0  0  0  0  0  0  0  0  0  0  0
   65.8280   76.6048   93.7727 C   0  0  0  0  0  0  0  0  0  0  0  0
   65.8467   75.3953   94.4678 C   0  0  0  0  0  0  0  0  0  0  0  0
   67.0305   74.6540   94.5798 C   0  0  0  0  0  0  0  0  0  0  0  0
   67.0141   73.4435   95.2732 O   0  0  0  0  0  0  0  0  0  0  0  0
   66.2166   73.1330   95.6550 H   0  0  0  0  0  0  0  0  0  0  0  0
   70.1940   74.1793   93.0584 O   0  0  0  0  0  0  0  0  0  0  0  0
   69.5014   74.3881   94.0922 C   0  0  0  0  0  0  0  0  0  0  0  0
   69.9549   73.9021   95.3146 O   0  0  0  0  0  0  0  0  0  0  0  0
   69.4530   74.0482   96.0922 H   0  0  0  0  0  0  0  0  0  0  0  0
 31 32  2  0  0  0
 32 33  1  0  0  0
 32 23  1  0  0  0
 23 24  2  0  0  0
 24 25  1  0  0  0
 25 22  1  0  0  0
 22 21  1  0  0  0
 21  1  1  0  0  0
  1  2  2  0  0  0
  2  3  1  0  0  0
  3  4  2  0  0  0
  4  5  1  0  0  0
  5  7  1  0  0  0
  7  8  1  0  0  0
  8  9  2  0  0  0
  9 12  1  0  0  0
 12 13  1  0  0  0
 13 14  1  0  0  0
 14 15  1  0  0  0
 15 16  1  0  0  0
 16 17  1  0  0  0
 17 18  1  0  0  0
 18 19  1  0  0  0
  9 10  2  0  0  0
 10 11  2  0  0  0
  5  6  2  0  0  0
 25 26  2  0  0  0
 26 27  1  0  0  0
 27 28  2  0  0  0
 28 29  1  0  0  0
 28 23  1  0  0  0
  6  1  1  0  0  0
 11  7  1  0  0  0
 33 34  1  0  0  0
 19 20  1  0  0  0
 29 30  1  0  0  0
M  END
> <score>
0.185576

> <minimizedAffinity>
-6.67998

> <CNNscore>
0.7413754463

> <CNNaffinity>
5.8732061386

> <CNN_VS>
4.3542509079

$$$$
HIPS7050


 34 36  0  0  0  0  0  0  0  0999 V2000
   69.0391   78.1153   90.1010 C   0  0  0  0  0  0  0  0  0  0  0  0
   70.2627   77.4714   90.3342 C   0  0  0  0  0  0  0  0  0  0  0  0
   71.4366   78.2148   90.4562 C   0  0  0  0  0  0  0  0  0  0  0  0
   71.4017   79.6052   90.3357 C   0  0  0  0  0  0  0  0  0  0  0  0
   70.1881   80.2726   90.0910 C   0  0  0  0  0  0  0  0  0  0  0  0
   69.0048   79.5148   89.9863 C   0  0  0  0  0  0  0  0  0  0  0  0
   70.1771   81.7045   89.9202 N   0  0  0  0  0  0  0  0  0  0  0  0
   70.8147   82.4282   88.9792 C   0  0  0  0  0  0  0  0  0  0  0  0
   70.6076   83.7503   89.3013 C   0  0  0  0  0  0  0  0  0  0  0  0
   69.8610   83.8032   90.4208 N   0  0  0  0  0  0  0  0  0  0  0  0
   69.6111   82.5496   90.7700 N   0  0  0  0  0  0  0  0  0  0  0  0
   71.2735   84.9339   88.6785 C   0  0  0  0  0  0  0  0  0  0  0  0
   71.4138   84.7015   87.2877 O   0  0  0  0  0  0  0  0  0  0  0  0
   70.3313   85.2303   86.5446 C   0  0  0  0  0  0  0  0  0  0  0  0
   69.3292   85.9747   87.4341 C   0  0  0  0  0  0  0  0  0  0  0  0
   68.0852   85.3054   87.4105 O   0  0  0  0  0  0  0  0  0  0  0  0
   68.1862   84.1400   86.6201 C   0  0  0  0  0  0  0  0  0  0  0  0
   67.4973   82.9885   87.3404 C   0  0  0  0  0  0  0  0  0  0  0  0
   67.3821   83.2856   88.7041 O   0  0  0  0  0  0  0  0  0  0  0  0
   68.2657   83.4167   89.0823 H   0  0  0  0  0  0  0  0  0  0  0  0
   67.7849   77.2970   89.9527 C   0  0  0  0  0  0  0  0  0  0  0  0
   67.5962   76.4705   91.1017 O   0  0  0  0  0  0  0  0  0  0  0  0
   69.0695   73.4281   92.6329 C   0  0  0  0  0  0  0  0  0  0  0  0
   68.6077   74.7453   92.4379 C   0  0  0  0  0  0  0  0  0  0  0  0
   68.0285   75.1398   91.2267 C   0  0  0  0  0  0  0  0  0  0  0  0
   67.8902   74.1970   90.1937 C   0  0  0  0  0  0  0  0  0  0  0  0
   68.3272   72.8849   90.3774 C   0  0  0  0  0  0  0  0  0  0  0  0
   68.9221   72.4923   91.5839 C   0  0  0  0  0  0  0  0  0  0  0  0
   69.3574   71.1752   91.7328 O   0  0  0  0  0  0  0  0  0  0  0  0
   69.2535   70.5651   91.0293 H   0  0  0  0  0  0  0  0  0  0  0  0
   69.7211   73.8830   94.8816 O   0  0  0  0  0  0  0  0  0  0  0  0
   69.6927   73.0554   93.9297 C   0  0  0  0  0  0  0  0  0  0  0  0
   70.2542   71.7961   94.1168 O   0  0  0  0  0  0  0  0  0  0  0  0
   70.2417   71.1694   93.4204 H   0  0  0  0  0  0  0  0  0  0  0  0
 31 32  2  0  0  0
 32 33  1  0  0  0
 32 23  1  0  0  0
 23 24  2  0  0  0
 24 25  1  0  0  0
 25 22  1  0  0  0
 22 21  1  0  0  0
 21  1  1  0  0  0
  1  2  2  0  0  0
  2  3  1  0  0  0
  3  4  2  0  0  0
  4  5  1  0  0  0
  5  7  1  0  0  0
  7  8  1  0  0  0
  8  9  2  0  0  0
  9 12  1  0  0  0
 12 13  1  0  0  0
 13 14  1  0  0  0
 14 15  1  0  0  0
 15 16  1  0  0  0
 16 17  1  0  0  0
 17 18  1  0  0  0
 18 19  1  0  0  0
  9 10  2  0  0  0
 10 11  2  0  0  0
  5  6  2  0  0  0
 25 26  2  0  0  0
 26 27  1  0  0  0
 27 28  2  0  0  0
 28 29  1  0  0  0
 28 23  1  0  0  0
  6  1  1  0  0  0
 11  7  1  0  0  0
 33 34  1  0  0  0
 19 20  1  0  0  0
 29 30  1  0  0  0
M  END
> <score>
0.185576

> <minimizedAffinity>
-6.50356

> <CNNscore>
0.6225453615

> <CNNaffinity>
5.7479887009

> <CNN_VS>
3.5783836842

$$$$
HIPS7050


 34 36  0  0  0  0  0  0  0  0999 V2000
   68.7780   77.6075   90.5774 C   0  0  0  0  0  0  0  0  0  0  0  0
   70.1653   77.4075   90.6169 C   0  0  0  0  0  0  0  0  0  0  0  0
   71.0362   78.4748   90.3976 C   0  0  0  0  0  0  0  0  0  0  0  0
   70.5311   79.7476   90.1264 C   0  0  0  0  0  0  0  0  0  0  0  0
   69.1435   79.9706   90.0710 C   0  0  0  0  0  0  0  0  0  0  0  0
   68.2714   78.8902   90.3107 C   0  0  0  0  0  0  0  0  0  0  0  0
   68.6387   81.2805   89.7411 N   0  0  0  0  0  0  0  0  0  0  0  0
   68.3041   81.7535   88.5244 C   0  0  0  0  0  0  0  0  0  0  0  0
   68.0011   83.0851   88.6967 C   0  0  0  0  0  0  0  0  0  0  0  0
   68.1602   83.3924   89.9982 N   0  0  0  0  0  0  0  0  0  0  0  0
   68.5418   82.2791   90.6071 N   0  0  0  0  0  0  0  0  0  0  0  0
   67.7648   84.0918   87.6183 C   0  0  0  0  0  0  0  0  0  0  0  0
   69.0016   84.3974   86.9978 O   0  0  0  0  0  0  0  0  0  0  0  0
   69.3587   85.7579   87.1567 C   0  0  0  0  0  0  0  0  0  0  0  0
   70.8289   85.9261   87.5566 C   0  0  0  0  0  0  0  0  0  0  0  0
   71.0844   85.1998   88.7412 O   0  0  0  0  0  0  0  0  0  0  0  0
   72.1472   84.2958   88.5260 C   0  0  0  0  0  0  0  0  0  0  0  0
   71.9193   83.0490   89.3702 C   0  0  0  0  0  0  0  0  0  0  0  0
   71.1867   83.3820   90.5164 O   0  0  0  0  0  0  0  0  0  0  0  0
   71.6800   84.0350   91.0371 H   0  0  0  0  0  0  0  0  0  0  0  0
   67.8523   76.4415   90.7971 C   0  0  0  0  0  0  0  0  0  0  0  0
   67.0724   76.6459   91.9756 O   0  0  0  0  0  0  0  0  0  0  0  0
   68.2108   74.1611   94.4859 C   0  0  0  0  0  0  0  0  0  0  0  0
   68.1817   75.0502   93.3928 C   0  0  0  0  0  0  0  0  0  0  0  0
   67.0304   75.7831   93.0834 C   0  0  0  0  0  0  0  0  0  0  0  0
   65.8892   75.6404   93.8911 C   0  0  0  0  0  0  0  0  0  0  0  0
   65.9078   74.7768   94.9866 C   0  0  0  0  0  0  0  0  0  0  0  0
   67.0545   74.0301   95.2883 C   0  0  0  0  0  0  0  0  0  0  0  0
   67.0379   73.1680   96.3851 O   0  0  0  0  0  0  0  0  0  0  0  0
   66.2647   73.0908   96.9086 H   0  0  0  0  0  0  0  0  0  0  0  0
   70.3788   73.3457   93.9176 O   0  0  0  0  0  0  0  0  0  0  0  0
   69.4495   73.3904   94.7698 C   0  0  0  0  0  0  0  0  0  0  0  0
   69.6061   72.7070   95.9717 O   0  0  0  0  0  0  0  0  0  0  0  0
   68.9258   72.7297   96.6156 H   0  0  0  0  0  0  0  0  0  0  0  0
 31 32  2  0  0  0
 32 33  1  0  0  0
 32 23  1  0  0  0
 23 24  2  0  0  0
 24 25  1  0  0  0
 25 22  1  0  0  0
 22 21  1  0  0  0
 21  1  1  0  0  0
  1  2  2  0  0  0
  2  3  1  0  0  0
  3  4  2  0  0  0
  4  5  1  0  0  0
  5  7  1  0  0  0
  7  8  1  0  0  0
  8  9  2  0  0  0
  9 12  1  0  0  0
 12 13  1  0  0  0
 13 14  1  0  0  0
 14 15  1  0  0  0
 15 16  1  0  0  0
 16 17  1  0  0  0
 17 18  1  0  0  0
 18 19  1  0  0  0
  9 10  2  0  0  0
 10 11  2  0  0  0
  5  6  2  0  0  0
 25 26  2  0  0  0
 26 27  1  0  0  0
 27 28  2  0  0  0
 28 29  1  0  0  0
 28 23  1  0  0  0
  6  1  1  0  0  0
 11  7  1  0  0  0
 33 34  1  0  0  0
 19 20  1  0  0  0
 29 30  1  0  0  0
M  END
> <score>
0.185576

> <minimizedAffinity>
-6.83597

> <CNNscore>
0.5626780987

> <CNNaffinity>
5.6701364517

> <CNN_VS>
3.1904616356

$$$$
HIPS7051


 32 34  0  0  0  0  0  0  0  0999 V2000
   71.2841   82.1044   89.4376 C   0  0  0  0  0  0  0  0  0  0  0  0
   72.5701   82.4474   89.8911 C   0  0  0  0  0  0  0  0  0  0  0  0
   73.1682   83.6445   89.4920 C   0  0  0  0  0  0  0  0  0  0  0  0
   72.4918   84.5174   88.6392 C   0  0  0  0  0  0  0  0  0  0  0  0
   71.2057   84.2000   88.1793 C   0  0  0  0  0  0  0  0  0  0  0  0
   70.6152   82.9850   88.5647 C   0  0  0  0  0  0  0  0  0  0  0  0
   70.2924   78.8316   90.5389 C   0  0  0  0  0  0  0  0  0  0  0  0
   71.2923   79.7300   90.2423 C   0  0  0  0  0  0  0  0  0  0  0  0
   70.6766   80.8673   89.8624 N   0  0  0  0  0  0  0  0  0  0  0  0
   69.3681   80.6645   89.9276 N   0  0  0  0  0  0  0  0  0  0  0  0
   69.1042   79.4340   90.3428 N   0  0  0  0  0  0  0  0  0  0  0  0
   70.4651   77.4339   91.0504 C   0  0  0  0  0  0  0  0  0  0  0  0
   69.1179   76.7096   91.1992 C   0  0  0  0  0  0  0  0  0  0  0  0
   68.6616   76.5475   92.6579 C   0  0  0  0  0  0  0  0  0  0  0  0
   70.1584   74.7287   93.0711 O   0  0  0  0  0  0  0  0  0  0  0  0
   69.6753   75.8173   93.4829 C   0  0  0  0  0  0  0  0  0  0  0  0
   70.1049   76.3562   94.6916 O   0  0  0  0  0  0  0  0  0  0  0  0
   69.7456   77.1657   94.9977 H   0  0  0  0  0  0  0  0  0  0  0  0
   70.4804   85.1360   87.2467 C   0  0  0  0  0  0  0  0  0  0  0  0
   70.4221   86.4578   87.7864 O   0  0  0  0  0  0  0  0  0  0  0  0
   69.7947   86.8175   88.9907 C   0  0  0  0  0  0  0  0  0  0  0  0
   70.0732   88.0763   89.5264 C   0  0  0  0  0  0  0  0  0  0  0  0
   69.4673   88.4916   90.7112 C   0  0  0  0  0  0  0  0  0  0  0  0
   68.5695   87.6517   91.3837 C   0  0  0  0  0  0  0  0  0  0  0  0
   67.9745   88.0946   92.5655 O   0  0  0  0  0  0  0  0  0  0  0  0
   68.2769   86.3707   90.8613 C   0  0  0  0  0  0  0  0  0  0  0  0
   68.9022   85.9641   89.6670 C   0  0  0  0  0  0  0  0  0  0  0  0
   68.1766   88.9456   92.9014 H   0  0  0  0  0  0  0  0  0  0  0  0
   67.3279   85.4464   91.5345 C   0  0  0  0  0  0  0  0  0  0  0  0
   66.2020   85.8496   91.9309 O   0  0  0  0  0  0  0  0  0  0  0  0
   67.6728   84.1110   91.7307 O   0  0  0  0  0  0  0  0  0  0  0  0
   68.5063   83.7951   91.4418 H   0  0  0  0  0  0  0  0  0  0  0  0
 15 16  2  0  0  0
 16 17  1  0  0  0
 16 14  1  0  0  0
 14 13  1  0  0  0
 13 12  1  0  0  0
 12  7  1  0  0  0
  7  8  2  0  0  0
  8  9  1  0  0  0
  9  1  1  0  0  0
  1  2  2  0  0  0
  2  3  1  0  0  0
  3  4  2  0  0  0
  4  5  1  0  0  0
  5 19  1  0  0  0
 19 20  1  0  0  0
 20 21  1  0  0  0
 21 22  2  0  0  0
 22 23  1  0  0  0
 23 24  2  0  0  0
 24 25  1  0  0  0
 24 26  1  0  0  0
 26 29  1  0  0  0
 29 30  2  0  0  0
 29 31  1  0  0  0
 26 27  2  0  0  0
  5  6  2  0  0  0
  9 10  1  0  0  0
 10 11  2  0  0  0
 11  7  2  0  0  0
  6  1  1  0  0  0
 27 21  1  0  0  0
 17 18  1  0  0  0
 25 28  1  0  0  0
 31 32  1  0  0  0
M  END
> <score>
0.257233

> <minimizedAffinity>
-6.90815

> <CNNscore>
0.4978986382

> <CNNaffinity>
5.6309385300

> <CNN_VS>
2.8036365509

$$$$
HIPS7051


 32 34  0  0  0  0  0  0  0  0999 V2000
   67.4519   77.2418   89.1090 C   0  0  0  0  0  0  0  0  0  0  0  0
   67.3981   77.1132   87.7098 C   0  0  0  0  0  0  0  0  0  0  0  0
   67.1726   78.2298   86.9021 C   0  0  0  0  0  0  0  0  0  0  0  0
   67.0018   79.4895   87.4770 C   0  0  0  0  0  0  0  0  0  0  0  0
   67.0581   79.6435   88.8696 C   0  0  0  0  0  0  0  0  0  0  0  0
   67.2631   78.5153   89.6811 C   0  0  0  0  0  0  0  0  0  0  0  0
   68.0273   74.0617   90.6786 C   0  0  0  0  0  0  0  0  0  0  0  0
   67.8336   74.8006   89.5335 C   0  0  0  0  0  0  0  0  0  0  0  0
   67.6910   76.0807   89.9305 N   0  0  0  0  0  0  0  0  0  0  0  0
   67.7946   76.1123   91.2517 N   0  0  0  0  0  0  0  0  0  0  0  0
   68.0058   74.8965   91.7349 N   0  0  0  0  0  0  0  0  0  0  0  0
   68.2795   72.5872   90.7628 C   0  0  0  0  0  0  0  0  0  0  0  0
   68.1159   72.0606   92.1973 C   0  0  0  0  0  0  0  0  0  0  0  0
   69.4397   71.6417   92.8563 C   0  0  0  0  0  0  0  0  0  0  0  0
   69.9887   72.3092   95.0861 O   0  0  0  0  0  0  0  0  0  0  0  0
   69.8982   72.6399   93.8735 C   0  0  0  0  0  0  0  0  0  0  0  0
   70.2516   73.9252   93.4745 O   0  0  0  0  0  0  0  0  0  0  0  0
   70.1842   74.1710   92.5729 H   0  0  0  0  0  0  0  0  0  0  0  0
   66.8594   81.0020   89.4919 C   0  0  0  0  0  0  0  0  0  0  0  0
   68.1049   81.6854   89.6451 O   0  0  0  0  0  0  0  0  0  0  0  0
   68.6311   82.6281   88.7464 C   0  0  0  0  0  0  0  0  0  0  0  0
   67.8276   83.0413   87.6820 C   0  0  0  0  0  0  0  0  0  0  0  0
   68.2929   83.9859   86.7685 C   0  0  0  0  0  0  0  0  0  0  0  0
   69.5749   84.5353   86.9037 C   0  0  0  0  0  0  0  0  0  0  0  0
   70.0134   85.4819   85.9772 O   0  0  0  0  0  0  0  0  0  0  0  0
   70.4072   84.1274   87.9716 C   0  0  0  0  0  0  0  0  0  0  0  0
   69.9245   83.1677   88.8819 C   0  0  0  0  0  0  0  0  0  0  0  0
   69.4524   85.7439   85.2739 H   0  0  0  0  0  0  0  0  0  0  0  0
   71.7717   84.6847   88.1605 C   0  0  0  0  0  0  0  0  0  0  0  0
   71.9737   85.9279   88.1288 O   0  0  0  0  0  0  0  0  0  0  0  0
   72.8506   83.8321   88.3832 O   0  0  0  0  0  0  0  0  0  0  0  0
   72.7174   82.9050   88.4098 H   0  0  0  0  0  0  0  0  0  0  0  0
 15 16  2  0  0  0
 16 17  1  0  0  0
 16 14  1  0  0  0
 14 13  1  0  0  0
 13 12  1  0  0  0
 12  7  1  0  0  0
  7  8  2  0  0  0
  8  9  1  0  0  0
  9  1  1  0  0  0
  1  2  2  0  0  0
  2  3  1  0  0  0
  3  4  2  0  0  0
  4  5  1  0  0  0
  5 19  1  0  0  0
 19 20  1  0  0  0
 20 21  1  0  0  0
 21 22  2  0  0  0
 22 23  1  0  0  0
 23 24  2  0  0  0
 24 25  1  0  0  0
 24 26  1  0  0  0
 26 29  1  0  0  0
 29 30  2  0  0  0
 29 31  1  0  0  0
 26 27  2  0  0  0
  5  6  2  0  0  0
  9 10  1  0  0  0
 10 11  2  0  0  0
 11  7  2  0  0  0
  6  1  1  0  0  0
 27 21  1  0  0  0
 17 18  1  0  0  0
 25 28  1  0  0  0
 31 32  1  0  0  0
M  END
> <score>
0.257233

> <minimizedAffinity>
-7.23182

> <CNNscore>
0.4815271497

> <CNNaffinity>
5.6734447479

> <CNN_VS>
2.7319176197

$$$$
HIPS7051


 32 34  0  0  0  0  0  0  0  0999 V2000
   67.7287   76.9932   89.2219 C   0  0  0  0  0  0  0  0  0  0  0  0
   67.3269   76.8600   87.8810 C   0  0  0  0  0  0  0  0  0  0  0  0
   66.8301   77.9583   87.1761 C   0  0  0  0  0  0  0  0  0  0  0  0
   66.7306   79.2043   87.7960 C   0  0  0  0  0  0  0  0  0  0  0  0
   67.1315   79.3629   89.1303 C   0  0  0  0  0  0  0  0  0  0  0  0
   67.6103   78.2516   89.8439 C   0  0  0  0  0  0  0  0  0  0  0  0
   68.6676   73.8490   90.6848 C   0  0  0  0  0  0  0  0  0  0  0  0
   67.9284   74.5530   89.7614 C   0  0  0  0  0  0  0  0  0  0  0  0
   68.2451   75.8515   89.9360 N   0  0  0  0  0  0  0  0  0  0  0  0
   69.1333   75.9266   90.9172 N   0  0  0  0  0  0  0  0  0  0  0  0
   69.4144   74.7205   91.3890 N   0  0  0  0  0  0  0  0  0  0  0  0
   68.7006   72.3615   90.8615 C   0  0  0  0  0  0  0  0  0  0  0  0
   68.6583   71.9613   92.3446 C   0  0  0  0  0  0  0  0  0  0  0  0
   69.8538   71.1027   92.7871 C   0  0  0  0  0  0  0  0  0  0  0  0
   70.8232   72.8241   94.1347 O   0  0  0  0  0  0  0  0  0  0  0  0
   70.4742   71.6163   94.0492 C   0  0  0  0  0  0  0  0  0  0  0  0
   70.6389   70.7655   95.1378 O   0  0  0  0  0  0  0  0  0  0  0  0
   70.3794   69.8675   95.0740 H   0  0  0  0  0  0  0  0  0  0  0  0
   67.0109   80.7055   89.8048 C   0  0  0  0  0  0  0  0  0  0  0  0
   67.7081   81.7146   89.0717 O   0  0  0  0  0  0  0  0  0  0  0  0
   69.0601   82.0558   89.2422 C   0  0  0  0  0  0  0  0  0  0  0  0
   69.7799   81.4071   90.2474 C   0  0  0  0  0  0  0  0  0  0  0  0
   71.1285   81.6954   90.4514 C   0  0  0  0  0  0  0  0  0  0  0  0
   71.7829   82.6413   89.6510 C   0  0  0  0  0  0  0  0  0  0  0  0
   73.1342   82.9072   89.8745 O   0  0  0  0  0  0  0  0  0  0  0  0
   71.0716   83.3136   88.6304 C   0  0  0  0  0  0  0  0  0  0  0  0
   69.7084   83.0155   88.4417 C   0  0  0  0  0  0  0  0  0  0  0  0
   73.5945   82.4551   90.5540 H   0  0  0  0  0  0  0  0  0  0  0  0
   71.7224   84.3204   87.7524 C   0  0  0  0  0  0  0  0  0  0  0  0
   72.9633   84.2863   87.5368 O   0  0  0  0  0  0  0  0  0  0  0  0
   70.9604   85.3175   87.1475 O   0  0  0  0  0  0  0  0  0  0  0  0
   70.0363   85.3568   87.2974 H   0  0  0  0  0  0  0  0  0  0  0  0
 15 16  2  0  0  0
 16 17  1  0  0  0
 16 14  1  0  0  0
 14 13  1  0  0  0
 13 12  1  0  0  0
 12  7  1  0  0  0
  7  8  2  0  0  0
  8  9  1  0  0  0
  9  1  1  0  0  0
  1  2  2  0  0  0
  2  3  1  0  0  0
  3  4  2  0  0  0
  4  5  1  0  0  0
  5 19  1  0  0  0
 19 20  1  0  0  0
 20 21  1  0  0  0
 21 22  2  0  0  0
 22 23  1  0  0  0
 23 24  2  0  0  0
 24 25  1  0  0  0
 24 26  1  0  0  0
 26 29  1  0  0  0
 29 30  2  0  0  0
 29 31  1  0  0  0
 26 27  2  0  0  0
  5  6  2  0  0  0
  9 10  1  0  0  0
 10 11  2  0  0  0
 11  7  2  0  0  0
  6  1  1  0  0  0
 27 21  1  0  0  0
 17 18  1  0  0  0
 25 28  1  0  0  0
 31 32  1  0  0  0
M  END
> <score>
0.257233

> <minimizedAffinity>
-7.31157

> <CNNscore>
0.4447806180

> <CNNaffinity>
5.7087430954

> <CNN_VS>
2.5391383171

$$$$
HIPS7069


 34 37  0  0  0  0  0  0  0  0999 V2000
   66.8941   75.2712   87.9962 C   0  0  0  0  0  0  0  0  0  0  0  0
   67.0507   76.5870   88.4557 C   0  0  0  0  0  0  0  0  0  0  0  0
   67.2488   77.6294   87.5349 C   0  0  0  0  0  0  0  0  0  0  0  0
   67.3035   77.3203   86.1652 C   0  0  0  0  0  0  0  0  0  0  0  0
   67.1579   75.9963   85.7486 C   0  0  0  0  0  0  0  0  0  0  0  0
   66.9572   75.0114   86.6622 N   0  0  0  0  0  0  0  0  0  0  0  0
   67.3880   79.0334   87.9993 C   0  0  0  0  0  0  0  0  0  0  0  0
   66.6511   80.0642   87.3898 C   0  0  0  0  0  0  0  0  0  0  0  0
   66.7956   81.3848   87.8193 C   0  0  0  0  0  0  0  0  0  0  0  0
   67.6800   81.6936   88.8543 C   0  0  0  0  0  0  0  0  0  0  0  0
   68.4285   80.6867   89.4726 C   0  0  0  0  0  0  0  0  0  0  0  0
   68.2682   79.3530   89.0491 C   0  0  0  0  0  0  0  0  0  0  0  0
   69.3174   81.0536   90.4965 O   0  0  0  0  0  0  0  0  0  0  0  0
   69.5934   82.3935   90.9087 C   0  0  0  0  0  0  0  0  0  0  0  0
   70.8023   82.9365   90.1925 C   0  0  0  0  0  0  0  0  0  0  0  0
   72.0867   82.4451   90.4825 C   0  0  0  0  0  0  0  0  0  0  0  0
   73.2026   82.9492   89.8073 C   0  0  0  0  0  0  0  0  0  0  0  0
   73.0463   83.9529   88.8476 C   0  0  0  0  0  0  0  0  0  0  0  0
   71.7739   84.4562   88.5633 C   0  0  0  0  0  0  0  0  0  0  0  0
   70.6551   83.9533   89.2347 C   0  0  0  0  0  0  0  0  0  0  0  0
   66.6617   74.1402   88.9567 C   0  0  0  0  0  0  0  0  0  0  0  0
   67.8962   73.5054   89.2905 O   0  0  0  0  0  0  0  0  0  0  0  0
   69.6421   74.7343   92.3728 C   0  0  0  0  0  0  0  0  0  0  0  0
   69.0364   74.7329   91.1032 C   0  0  0  0  0  0  0  0  0  0  0  0
   68.5172   73.5473   90.5503 C   0  0  0  0  0  0  0  0  0  0  0  0
   68.6227   72.3569   91.2724 C   0  0  0  0  0  0  0  0  0  0  0  0
   69.2080   72.3453   92.5384 C   0  0  0  0  0  0  0  0  0  0  0  0
   69.6982   73.5246   93.1092 C   0  0  0  0  0  0  0  0  0  0  0  0
   70.1968   73.4567   94.4121 O   0  0  0  0  0  0  0  0  0  0  0  0
   70.2162   72.6362   94.8642 H   0  0  0  0  0  0  0  0  0  0  0  0
   69.8397   76.4988   93.9645 O   0  0  0  0  0  0  0  0  0  0  0  0
   70.2205   76.0018   92.8709 C   0  0  0  0  0  0  0  0  0  0  0  0
   71.2403   76.6251   92.1565 O   0  0  0  0  0  0  0  0  0  0  0  0
   71.5306   76.2634   91.3423 H   0  0  0  0  0  0  0  0  0  0  0  0
 31 32  2  0  0  0
 32 33  1  0  0  0
 32 23  1  0  0  0
 23 24  2  0  0  0
 24 25  1  0  0  0
 25 22  1  0  0  0
 22 21  1  0  0  0
 21  1  1  0  0  0
  1  2  2  0  0  0
  2  3  1  0  0  0
  3  7  1  0  0  0
  7  8  2  0  0  0
  8  9  1  0  0  0
  9 10  2  0  0  0
 10 11  1  0  0  0
 11 13  1  0  0  0
 13 14  1  0  0  0
 14 15  1  0  0  0
 15 16  2  0  0  0
 16 17  1  0  0  0
 17 18  2  0  0  0
 18 19  1  0  0  0
 19 20  2  0  0  0
 11 12  2  0  0  0
  3  4  2  0  0  0
  4  5  1  0  0  0
  5  6  2  0  0  0
 25 26  2  0  0  0
 26 27  1  0  0  0
 27 28  2  0  0  0
 28 29  1  0  0  0
 28 23  1  0  0  0
  6  1  2  0  0  0
 12  7  1  0  0  0
 20 15  1  0  0  0
 33 34  1  0  0  0
 29 30  1  0  0  0
M  END
> <score>
0.196926

> <minimizedAffinity>
-8.81073

> <CNNscore>
0.6327817440

> <CNNaffinity>
6.3889970779

> <CNN_VS>
4.0428404808

$$$$
HIPS7069


 34 37  0  0  0  0  0  0  0  0999 V2000
   67.2044   78.7688   89.0467 C   0  0  0  0  0  0  0  0  0  0  0  0
   68.0854   79.6936   89.6262 C   0  0  0  0  0  0  0  0  0  0  0  0
   67.5783   80.7513   90.3993 C   0  0  0  0  0  0  0  0  0  0  0  0
   66.1868   80.8663   90.5580 C   0  0  0  0  0  0  0  0  0  0  0  0
   65.3424   79.9341   89.9531 C   0  0  0  0  0  0  0  0  0  0  0  0
   65.8631   78.9162   89.2199 N   0  0  0  0  0  0  0  0  0  0  0  0
   68.4958   81.7244   91.0454 C   0  0  0  0  0  0  0  0  0  0  0  0
   68.0379   82.5615   92.0781 C   0  0  0  0  0  0  0  0  0  0  0  0
   68.8994   83.4853   92.6729 C   0  0  0  0  0  0  0  0  0  0  0  0
   70.2228   83.5901   92.2411 C   0  0  0  0  0  0  0  0  0  0  0  0
   70.7004   82.7726   91.2116 C   0  0  0  0  0  0  0  0  0  0  0  0
   69.8341   81.8296   90.6249 C   0  0  0  0  0  0  0  0  0  0  0  0
   72.0349   82.9311   90.8025 O   0  0  0  0  0  0  0  0  0  0  0  0
   72.5129   82.7682   89.4660 C   0  0  0  0  0  0  0  0  0  0  0  0
   71.8910   83.7864   88.5463 C   0  0  0  0  0  0  0  0  0  0  0  0
   70.8585   83.4197   87.6661 C   0  0  0  0  0  0  0  0  0  0  0  0
   70.2814   84.3729   86.8215 C   0  0  0  0  0  0  0  0  0  0  0  0
   70.7369   85.6939   86.8414 C   0  0  0  0  0  0  0  0  0  0  0  0
   71.7724   86.0634   87.7042 C   0  0  0  0  0  0  0  0  0  0  0  0
   72.3508   85.1136   88.5521 C   0  0  0  0  0  0  0  0  0  0  0  0
   67.7198   77.6174   88.2315 C   0  0  0  0  0  0  0  0  0  0  0  0
   67.0347   76.4133   88.5772 O   0  0  0  0  0  0  0  0  0  0  0  0
   69.0011   74.4814   91.1188 C   0  0  0  0  0  0  0  0  0  0  0  0
   68.4904   75.5647   90.3809 C   0  0  0  0  0  0  0  0  0  0  0  0
   67.5755   75.3583   89.3314 C   0  0  0  0  0  0  0  0  0  0  0  0
   67.1864   74.0553   89.0147 C   0  0  0  0  0  0  0  0  0  0  0  0
   67.6736   72.9724   89.7464 C   0  0  0  0  0  0  0  0  0  0  0  0
   68.5585   73.1705   90.8115 C   0  0  0  0  0  0  0  0  0  0  0  0
   68.9426   72.0511   91.5532 O   0  0  0  0  0  0  0  0  0  0  0  0
   68.6270   71.2012   91.3162 H   0  0  0  0  0  0  0  0  0  0  0  0
   70.0871   74.0311   93.1933 O   0  0  0  0  0  0  0  0  0  0  0  0
   70.0042   74.7615   92.1699 C   0  0  0  0  0  0  0  0  0  0  0  0
   70.9087   75.8068   92.0023 O   0  0  0  0  0  0  0  0  0  0  0  0
   70.8554   76.3556   91.2447 H   0  0  0  0  0  0  0  0  0  0  0  0
 31 32  2  0  0  0
 32 33  1  0  0  0
 32 23  1  0  0  0
 23 24  2  0  0  0
 24 25  1  0  0  0
 25 22  1  0  0  0
 22 21  1  0  0  0
 21  1  1  0  0  0
  1  2  2  0  0  0
  2  3  1  0  0  0
  3  7  1  0  0  0
  7  8  2  0  0  0
  8  9  1  0  0  0
  9 10  2  0  0  0
 10 11  1  0  0  0
 11 13  1  0  0  0
 13 14  1  0  0  0
 14 15  1  0  0  0
 15 16  2  0  0  0
 16 17  1  0  0  0
 17 18  2  0  0  0
 18 19  1  0  0  0
 19 20  2  0  0  0
 11 12  2  0  0  0
  3  4  2  0  0  0
  4  5  1  0  0  0
  5  6  2  0  0  0
 25 26  2  0  0  0
 26 27  1  0  0  0
 27 28  2  0  0  0
 28 29  1  0  0  0
 28 23  1  0  0  0
  6  1  2  0  0  0
 12  7  1  0  0  0
 20 15  1  0  0  0
 33 34  1  0  0  0
 29 30  1  0  0  0
M  END
> <score>
0.196926

> <minimizedAffinity>
-8.16304

> <CNNscore>
0.6062102914

> <CNNaffinity>
6.3684978485

> <CNN_VS>
3.8606488705

$$$$
HIPS7069


 34 37  0  0  0  0  0  0  0  0999 V2000
   66.8641   75.2635   87.9431 C   0  0  0  0  0  0  0  0  0  0  0  0
   66.8992   76.5865   88.4071 C   0  0  0  0  0  0  0  0  0  0  0  0
   67.0396   77.6438   87.4927 C   0  0  0  0  0  0  0  0  0  0  0  0
   67.1605   77.3435   86.1253 C   0  0  0  0  0  0  0  0  0  0  0  0
   67.1357   76.0130   85.7046 C   0  0  0  0  0  0  0  0  0  0  0  0
   66.9883   75.0128   86.6117 N   0  0  0  0  0  0  0  0  0  0  0  0
   67.0500   79.0533   87.9610 C   0  0  0  0  0  0  0  0  0  0  0  0
   66.7221   79.3668   89.2918 C   0  0  0  0  0  0  0  0  0  0  0  0
   66.7186   80.6943   89.7244 C   0  0  0  0  0  0  0  0  0  0  0  0
   67.0342   81.7232   88.8354 C   0  0  0  0  0  0  0  0  0  0  0  0
   67.3582   81.4374   87.5051 C   0  0  0  0  0  0  0  0  0  0  0  0
   67.3777   80.0962   87.0755 C   0  0  0  0  0  0  0  0  0  0  0  0
   67.6501   82.5108   86.6472 O   0  0  0  0  0  0  0  0  0  0  0  0
   67.5990   83.8924   87.0075 C   0  0  0  0  0  0  0  0  0  0  0  0
   68.9842   84.4386   87.2356 C   0  0  0  0  0  0  0  0  0  0  0  0
   70.1145   83.6250   87.0468 C   0  0  0  0  0  0  0  0  0  0  0  0
   71.3970   84.1424   87.2530 C   0  0  0  0  0  0  0  0  0  0  0  0
   71.5600   85.4697   87.6589 C   0  0  0  0  0  0  0  0  0  0  0  0
   70.4405   86.2812   87.8618 C   0  0  0  0  0  0  0  0  0  0  0  0
   69.1562   85.7682   87.6545 C   0  0  0  0  0  0  0  0  0  0  0  0
   66.6955   74.1150   88.8962 C   0  0  0  0  0  0  0  0  0  0  0  0
   67.9652   73.6736   89.3775 O   0  0  0  0  0  0  0  0  0  0  0  0
   69.6343   73.0776   92.6817 C   0  0  0  0  0  0  0  0  0  0  0  0
   69.1620   72.8557   91.3754 C   0  0  0  0  0  0  0  0  0  0  0  0
   68.4451   73.8517   90.6861 C   0  0  0  0  0  0  0  0  0  0  0  0
   68.1902   75.0689   91.3211 C   0  0  0  0  0  0  0  0  0  0  0  0
   68.6641   75.3084   92.6108 C   0  0  0  0  0  0  0  0  0  0  0  0
   69.4047   74.3363   93.2914 C   0  0  0  0  0  0  0  0  0  0  0  0
   69.9185   74.6720   94.5461 O   0  0  0  0  0  0  0  0  0  0  0  0
   69.7429   75.5157   94.9137 H   0  0  0  0  0  0  0  0  0  0  0  0
   71.3824   72.1786   94.0314 O   0  0  0  0  0  0  0  0  0  0  0  0
   70.3291   71.9687   93.3724 C   0  0  0  0  0  0  0  0  0  0  0  0
   69.7839   70.6877   93.3469 O   0  0  0  0  0  0  0  0  0  0  0  0
   69.0009   70.5214   92.8598 H   0  0  0  0  0  0  0  0  0  0  0  0
 31 32  2  0  0  0
 32 33  1  0  0  0
 32 23  1  0  0  0
 23 24  2  0  0  0
 24 25  1  0  0  0
 25 22  1  0  0  0
 22 21  1  0  0  0
 21  1  1  0  0  0
  1  2  2  0  0  0
  2  3  1  0  0  0
  3  7  1  0  0  0
  7  8  2  0  0  0
  8  9  1  0  0  0
  9 10  2  0  0  0
 10 11  1  0  0  0
 11 13  1  0  0  0
 13 14  1  0  0  0
 14 15  1  0  0  0
 15 16  2  0  0  0
 16 17  1  0  0  0
 17 18  2  0  0  0
 18 19  1  0  0  0
 19 20  2  0  0  0
 11 12  2  0  0  0
  3  4  2  0  0  0
  4  5  1  0  0  0
  5  6  2  0  0  0
 25 26  2  0  0  0
 26 27  1  0  0  0
 27 28  2  0  0  0
 28 29  1  0  0  0
 28 23  1  0  0  0
  6  1  2  0  0  0
 12  7  1  0  0  0
 20 15  1  0  0  0
 33 34  1  0  0  0
 29 30  1  0  0  0
M  END
> <score>
0.196926

> <minimizedAffinity>
-8.56105

> <CNNscore>
0.5940961838

> <CNNaffinity>
6.2415618896

> <CNN_VS>
3.7080881596

$$$$
HIPS7070


 32 35  0  0  0  0  0  0  0  0999 V2000
   67.0538   79.3988   89.2474 C   0  0  0  0  0  0  0  0  0  0  0  0
   66.7371   79.5225   87.8879 C   0  0  0  0  0  0  0  0  0  0  0  0
   67.0008   80.7228   87.2243 C   0  0  0  0  0  0  0  0  0  0  0  0
   67.5822   81.7922   87.9205 C   0  0  0  0  0  0  0  0  0  0  0  0
   67.8747   83.0059   87.2837 C   0  0  0  0  0  0  0  0  0  0  0  0
   68.4778   84.0442   88.0004 C   0  0  0  0  0  0  0  0  0  0  0  0
   68.7924   83.8883   89.3557 C   0  0  0  0  0  0  0  0  0  0  0  0
   68.4766   82.6753   90.0001 C   0  0  0  0  0  0  0  0  0  0  0  0
   67.8854   81.6295   89.2867 C   0  0  0  0  0  0  0  0  0  0  0  0
   67.6128   80.4496   89.9060 N   0  0  0  0  0  0  0  0  0  0  0  0
   66.7756   78.1334   90.0027 C   0  0  0  0  0  0  0  0  0  0  0  0
   67.0356   77.0015   89.1745 O   0  0  0  0  0  0  0  0  0  0  0  0
   69.0053   74.5560   91.1472 C   0  0  0  0  0  0  0  0  0  0  0  0
   68.4617   75.7602   90.6607 C   0  0  0  0  0  0  0  0  0  0  0  0
   67.5263   75.7642   89.6203 C   0  0  0  0  0  0  0  0  0  0  0  0
   67.1264   74.5391   89.0544 C   0  0  0  0  0  0  0  0  0  0  0  0
   67.6520   73.3372   89.5315 C   0  0  0  0  0  0  0  0  0  0  0  0
   68.5726   73.3290   90.5853 C   0  0  0  0  0  0  0  0  0  0  0  0
   69.0026   72.0886   91.0642 O   0  0  0  0  0  0  0  0  0  0  0  0
   68.6930   71.2994   90.6650 H   0  0  0  0  0  0  0  0  0  0  0  0
   70.2653   73.6119   92.9239 O   0  0  0  0  0  0  0  0  0  0  0  0
   70.0320   74.6237   92.2083 C   0  0  0  0  0  0  0  0  0  0  0  0
   70.7050   75.8135   92.4691 O   0  0  0  0  0  0  0  0  0  0  0  0
   70.5386   76.5709   91.9431 H   0  0  0  0  0  0  0  0  0  0  0  0
   69.4213   84.9569   90.0181 O   0  0  0  0  0  0  0  0  0  0  0  0
   68.7484   85.9924   90.7364 C   0  0  0  0  0  0  0  0  0  0  0  0
   68.3176   85.5102   92.0969 C   0  0  0  0  0  0  0  0  0  0  0  0
   66.9947   85.7069   92.5288 C   0  0  0  0  0  0  0  0  0  0  0  0
   66.5936   85.2654   93.7935 C   0  0  0  0  0  0  0  0  0  0  0  0
   67.5048   84.6164   94.6317 C   0  0  0  0  0  0  0  0  0  0  0  0
   68.8175   84.4044   94.2044 C   0  0  0  0  0  0  0  0  0  0  0  0
   69.2235   84.8434   92.9395 C   0  0  0  0  0  0  0  0  0  0  0  0
 21 22  2  0  0  0
 22 23  1  0  0  0
 22 13  1  0  0  0
 13 14  2  0  0  0
 14 15  1  0  0  0
 15 12  1  0  0  0
 12 11  1  0  0  0
 11  1  1  0  0  0
  1  2  2  0  0  0
  2  3  1  0  0  0
  3  4  2  0  0  0
  4  5  1  0  0  0
  5  6  2  0  0  0
  6  7  1  0  0  0
  7 25  1  0  0  0
 25 26  1  0  0  0
 26 27  1  0  0  0
 27 28  2  0  0  0
 28 29  1  0  0  0
 29 30  2  0  0  0
 30 31  1  0  0  0
 31 32  2  0  0  0
  7  8  2  0  0  0
  8  9  1  0  0  0
  9 10  2  0  0  0
 15 16  2  0  0  0
 16 17  1  0  0  0
 17 18  2  0  0  0
 18 19  1  0  0  0
 18 13  1  0  0  0
 10  1  2  0  0  0
  9  4  1  0  0  0
 32 27  1  0  0  0
 23 24  1  0  0  0
 19 20  1  0  0  0
M  END
> <score>
0.291777

> <minimizedAffinity>
-7.50893

> <CNNscore>
0.5774508715

> <CNNaffinity>
6.0091075897

> <CNN_VS>
3.4699645042

$$$$
HIPS7070


 32 35  0  0  0  0  0  0  0  0999 V2000
   68.9108   77.4474   90.5541 C   0  0  0  0  0  0  0  0  0  0  0  0
   70.2799   77.3078   90.8183 C   0  0  0  0  0  0  0  0  0  0  0  0
   71.1308   78.4022   90.6481 C   0  0  0  0  0  0  0  0  0  0  0  0
   70.6099   79.6310   90.2180 C   0  0  0  0  0  0  0  0  0  0  0  0
   71.4309   80.7544   90.0507 C   0  0  0  0  0  0  0  0  0  0  0  0
   70.8762   81.9721   89.6447 C   0  0  0  0  0  0  0  0  0  0  0  0
   69.5026   82.0845   89.3980 C   0  0  0  0  0  0  0  0  0  0  0  0
   68.6820   80.9481   89.5445 C   0  0  0  0  0  0  0  0  0  0  0  0
   69.2281   79.7316   89.9619 C   0  0  0  0  0  0  0  0  0  0  0  0
   68.4260   78.6466   90.1330 N   0  0  0  0  0  0  0  0  0  0  0  0
   67.9633   76.2955   90.7103 C   0  0  0  0  0  0  0  0  0  0  0  0
   67.1173   76.5070   91.8391 O   0  0  0  0  0  0  0  0  0  0  0  0
   68.2420   74.1093   94.4348 C   0  0  0  0  0  0  0  0  0  0  0  0
   68.2155   74.9478   93.3041 C   0  0  0  0  0  0  0  0  0  0  0  0
   67.0804   75.7026   92.9889 C   0  0  0  0  0  0  0  0  0  0  0  0
   65.9484   75.6169   93.8210 C   0  0  0  0  0  0  0  0  0  0  0  0
   65.9633   74.7948   94.9490 C   0  0  0  0  0  0  0  0  0  0  0  0
   67.1042   74.0543   95.2777 C   0  0  0  0  0  0  0  0  0  0  0  0
   67.0784   73.3099   96.4601 O   0  0  0  0  0  0  0  0  0  0  0  0
   66.3060   73.2993   96.9904 H   0  0  0  0  0  0  0  0  0  0  0  0
   69.6268   72.7528   95.8052 O   0  0  0  0  0  0  0  0  0  0  0  0
   69.4505   73.2943   94.6800 C   0  0  0  0  0  0  0  0  0  0  0  0
   70.4304   73.1662   93.7003 O   0  0  0  0  0  0  0  0  0  0  0  0
   70.3087   73.5648   92.8611 H   0  0  0  0  0  0  0  0  0  0  0  0
   68.9974   83.3400   89.0174 O   0  0  0  0  0  0  0  0  0  0  0  0
   69.2942   84.0112   87.7917 C   0  0  0  0  0  0  0  0  0  0  0  0
   70.1752   85.2087   88.0343 C   0  0  0  0  0  0  0  0  0  0  0  0
   69.6185   86.4102   88.5053 C   0  0  0  0  0  0  0  0  0  0  0  0
   70.4332   87.5251   88.7260 C   0  0  0  0  0  0  0  0  0  0  0  0
   71.8085   87.4472   88.4884 C   0  0  0  0  0  0  0  0  0  0  0  0
   72.3717   86.2526   88.0339 C   0  0  0  0  0  0  0  0  0  0  0  0
   71.5610   85.1339   87.8125 C   0  0  0  0  0  0  0  0  0  0  0  0
 21 22  2  0  0  0
 22 23  1  0  0  0
 22 13  1  0  0  0
 13 14  2  0  0  0
 14 15  1  0  0  0
 15 12  1  0  0  0
 12 11  1  0  0  0
 11  1  1  0  0  0
  1  2  2  0  0  0
  2  3  1  0  0  0
  3  4  2  0  0  0
  4  5  1  0  0  0
  5  6  2  0  0  0
  6  7  1  0  0  0
  7 25  1  0  0  0
 25 26  1  0  0  0
 26 27  1  0  0  0
 27 28  2  0  0  0
 28 29  1  0  0  0
 29 30  2  0  0  0
 30 31  1  0  0  0
 31 32  2  0  0  0
  7  8  2  0  0  0
  8  9  1  0  0  0
  9 10  2  0  0  0
 15 16  2  0  0  0
 16 17  1  0  0  0
 17 18  2  0  0  0
 18 19  1  0  0  0
 18 13  1  0  0  0
 10  1  2  0  0  0
  9  4  1  0  0  0
 32 27  1  0  0  0
 23 24  1  0  0  0
 19 20  1  0  0  0
M  END
> <score>
0.291777

> <minimizedAffinity>
-8.91828

> <CNNscore>
0.5614409447

> <CNNaffinity>
5.8483333588

> <CNN_VS>
3.2834937572

$$$$
HIPS7070


 32 35  0  0  0  0  0  0  0  0999 V2000
   67.5284   77.2450   89.7834 C   0  0  0  0  0  0  0  0  0  0  0  0
   67.1203   77.0323   88.4599 C   0  0  0  0  0  0  0  0  0  0  0  0
   66.9701   78.1226   87.6001 C   0  0  0  0  0  0  0  0  0  0  0  0
   67.2312   79.4194   88.0654 C   0  0  0  0  0  0  0  0  0  0  0  0
   67.1058   80.5356   87.2272 C   0  0  0  0  0  0  0  0  0  0  0  0
   67.3981   81.8131   87.7150 C   0  0  0  0  0  0  0  0  0  0  0  0
   67.8139   81.9942   89.0396 C   0  0  0  0  0  0  0  0  0  0  0  0
   67.9174   80.8733   89.8876 C   0  0  0  0  0  0  0  0  0  0  0  0
   67.6388   79.5927   89.4028 C   0  0  0  0  0  0  0  0  0  0  0  0
   67.7719   78.5112   90.2168 N   0  0  0  0  0  0  0  0  0  0  0  0
   67.6892   76.1051   90.7446 C   0  0  0  0  0  0  0  0  0  0  0  0
   66.9388   76.3557   91.9315 O   0  0  0  0  0  0  0  0  0  0  0  0
   68.2202   74.0284   94.5187 C   0  0  0  0  0  0  0  0  0  0  0  0
   68.1321   74.8523   93.3804 C   0  0  0  0  0  0  0  0  0  0  0  0
   66.9629   75.5640   93.0904 C   0  0  0  0  0  0  0  0  0  0  0  0
   65.8590   75.4494   93.9561 C   0  0  0  0  0  0  0  0  0  0  0  0
   65.9349   74.6415   95.0919 C   0  0  0  0  0  0  0  0  0  0  0  0
   67.1097   73.9444   95.3950 C   0  0  0  0  0  0  0  0  0  0  0  0
   67.1438   73.2134   96.5856 O   0  0  0  0  0  0  0  0  0  0  0  0
   66.3878   73.1826   97.1383 H   0  0  0  0  0  0  0  0  0  0  0  0
   69.6655   72.6920   95.8456 O   0  0  0  0  0  0  0  0  0  0  0  0
   69.4627   73.2582   94.7372 C   0  0  0  0  0  0  0  0  0  0  0  0
   70.4437   73.2002   93.7520 O   0  0  0  0  0  0  0  0  0  0  0  0
   70.3025   73.6177   92.9251 H   0  0  0  0  0  0  0  0  0  0  0  0
   68.1187   83.2983   89.4669 O   0  0  0  0  0  0  0  0  0  0  0  0
   69.0540   83.6320   90.4939 C   0  0  0  0  0  0  0  0  0  0  0  0
   70.4592   83.6621   89.9521 C   0  0  0  0  0  0  0  0  0  0  0  0
   71.4262   82.7715   90.4491 C   0  0  0  0  0  0  0  0  0  0  0  0
   72.7329   82.8011   89.9519 C   0  0  0  0  0  0  0  0  0  0  0  0
   73.0818   83.7111   88.9497 C   0  0  0  0  0  0  0  0  0  0  0  0
   72.1231   84.5898   88.4403 C   0  0  0  0  0  0  0  0  0  0  0  0
   70.8141   84.5635   88.9338 C   0  0  0  0  0  0  0  0  0  0  0  0
 21 22  2  0  0  0
 22 23  1  0  0  0
 22 13  1  0  0  0
 13 14  2  0  0  0
 14 15  1  0  0  0
 15 12  1  0  0  0
 12 11  1  0  0  0
 11  1  1  0  0  0
  1  2  2  0  0  0
  2  3  1  0  0  0
  3  4  2  0  0  0
  4  5  1  0  0  0
  5  6  2  0  0  0
  6  7  1  0  0  0
  7 25  1  0  0  0
 25 26  1  0  0  0
 26 27  1  0  0  0
 27 28  2  0  0  0
 28 29  1  0  0  0
 29 30  2  0  0  0
 30 31  1  0  0  0
 31 32  2  0  0  0
  7  8  2  0  0  0
  8  9  1  0  0  0
  9 10  2  0  0  0
 15 16  2  0  0  0
 16 17  1  0  0  0
 17 18  2  0  0  0
 18 19  1  0  0  0
 18 13  1  0  0  0
 10  1  2  0  0  0
  9  4  1  0  0  0
 32 27  1  0  0  0
 23 24  1  0  0  0
 19 20  1  0  0  0
M  END
> <score>
0.291777

> <minimizedAffinity>
-8.87939

> <CNNscore>
0.5476632714

> <CNNaffinity>
5.9972295761

> <CNN_VS>
3.2844624519

$$$$
HIPS7112


 31 33  0  0  0  0  0  0  0  0999 V2000
   67.7948   79.0677   91.1931 N   0  0  0  0  0  0  0  0  0  0  0  0
   68.8692   79.3435   90.2813 C   0  0  0  0  0  0  0  0  0  0  0  0
   69.9804   78.7624   90.4084 O   0  0  0  0  0  0  0  0  0  0  0  0
   67.0642   79.7236   91.2652 H   0  0  0  0  0  0  0  0  0  0  0  0
   66.9724   77.8007   93.0378 C   0  0  0  0  0  0  0  0  0  0  0  0
   67.7314   77.9087   91.9891 N   0  0  0  0  0  0  0  0  0  0  0  0
   68.1000   74.5736   94.6660 C   0  0  0  0  0  0  0  0  0  0  0  0
   68.0996   75.7730   93.9330 C   0  0  0  0  0  0  0  0  0  0  0  0
   66.9384   76.5533   93.8279 C   0  0  0  0  0  0  0  0  0  0  0  0
   65.7655   76.1257   94.4708 C   0  0  0  0  0  0  0  0  0  0  0  0
   65.7622   74.9481   95.2200 C   0  0  0  0  0  0  0  0  0  0  0  0
   66.9226   74.1770   95.3423 C   0  0  0  0  0  0  0  0  0  0  0  0
   66.8791   73.0512   96.1670 O   0  0  0  0  0  0  0  0  0  0  0  0
   66.0814   72.8179   96.5997 H   0  0  0  0  0  0  0  0  0  0  0  0
   69.5841   72.8389   95.7517 N   0  0  0  0  0  0  0  0  0  0  0  0
   69.3318   73.7578   94.6875 C   0  0  0  0  0  0  0  0  0  0  0  0
   70.1449   73.8306   93.7274 O   0  0  0  0  0  0  0  0  0  0  0  0
   70.4091   72.3018   95.7531 H   0  0  0  0  0  0  0  0  0  0  0  0
   68.9329   72.7428   96.4838 H   0  0  0  0  0  0  0  0  0  0  0  0
   68.6957   80.3768   89.2101 C   0  0  0  0  0  0  0  0  0  0  0  0
   69.0196   81.6753   89.7072 O   0  0  0  0  0  0  0  0  0  0  0  0
   70.2280   82.3603   89.4787 C   0  0  0  0  0  0  0  0  0  0  0  0
   71.4079   82.0380   90.1793 C   0  0  0  0  0  0  0  0  0  0  0  0
   72.5952   82.7269   89.9276 C   0  0  0  0  0  0  0  0  0  0  0  0
   72.6302   83.7490   88.9801 C   0  0  0  0  0  0  0  0  0  0  0  0
   71.4707   84.0932   88.2728 C   0  0  0  0  0  0  0  0  0  0  0  0
   71.5029   85.1221   87.3183 C   0  0  0  0  0  0  0  0  0  0  0  0
   70.3469   85.4622   86.6125 C   0  0  0  0  0  0  0  0  0  0  0  0
   69.1525   84.7805   86.8516 C   0  0  0  0  0  0  0  0  0  0  0  0
   69.1045   83.7540   87.7987 C   0  0  0  0  0  0  0  0  0  0  0  0
   70.2590   83.3973   88.5212 C   0  0  0  0  0  0  0  0  0  0  0  0
 15 16  1  0  0  0
 16 17  2  0  0  0
 16  7  1  0  0  0
  7  8  2  0  0  0
  8  9  1  0  0  0
  9  5  1  0  0  0
  5  6  2  0  0  0
  6  1  1  0  0  0
  1  2  1  0  0  0
  2  3  2  0  0  0
  2 20  1  0  0  0
 20 21  1  0  0  0
 21 22  1  0  0  0
 22 23  2  0  0  0
 23 24  1  0  0  0
 24 25  2  0  0  0
 25 26  1  0  0  0
 26 27  2  0  0  0
 27 28  1  0  0  0
 28 29  2  0  0  0
 29 30  1  0  0  0
 30 31  2  0  0  0
  9 10  2  0  0  0
 10 11  1  0  0  0
 11 12  2  0  0  0
 12 13  1  0  0  0
 12  7  1  0  0  0
 31 22  1  0  0  0
 31 26  1  0  0  0
 15 18  1  0  0  0
 15 19  1  0  0  0
  1  4  1  0  0  0
 13 14  1  0  0  0
M  END
> <score>
0.323222

> <minimizedAffinity>
-8.73315

> <CNNscore>
0.5759753585

> <CNNaffinity>
5.2622308731

> <CNN_VS>
3.0309152603

$$$$
HIPS7112


 31 33  0  0  0  0  0  0  0  0999 V2000
   70.2432   77.1193   90.5537 N   0  0  0  0  0  0  0  0  0  0  0  0
   70.6124   76.5003   91.7955 C   0  0  0  0  0  0  0  0  0  0  0  0
   71.5465   76.9770   92.4945 O   0  0  0  0  0  0  0  0  0  0  0  0
   69.7392   76.5852   89.8979 H   0  0  0  0  0  0  0  0  0  0  0  0
   69.6934   79.4134   90.2082 C   0  0  0  0  0  0  0  0  0  0  0  0
   70.5642   78.4496   90.2247 N   0  0  0  0  0  0  0  0  0  0  0  0
   69.5263   82.9490   88.8632 C   0  0  0  0  0  0  0  0  0  0  0  0
   69.1767   81.6336   89.2145 C   0  0  0  0  0  0  0  0  0  0  0  0
   70.0919   80.7940   89.8670 C   0  0  0  0  0  0  0  0  0  0  0  0
   71.3716   81.2836   90.1741 C   0  0  0  0  0  0  0  0  0  0  0  0
   71.7204   82.5956   89.8501 C   0  0  0  0  0  0  0  0  0  0  0  0
   70.8046   83.4414   89.2161 C   0  0  0  0  0  0  0  0  0  0  0  0
   71.1833   84.7656   88.9866 O   0  0  0  0  0  0  0  0  0  0  0  0
   72.0388   85.0577   89.2334 H   0  0  0  0  0  0  0  0  0  0  0  0
   68.2854   85.1199   88.4926 N   0  0  0  0  0  0  0  0  0  0  0  0
   68.5469   83.7664   88.1178 C   0  0  0  0  0  0  0  0  0  0  0  0
   67.9750   83.2840   87.1037 O   0  0  0  0  0  0  0  0  0  0  0  0
   67.6301   85.6529   87.9868 H   0  0  0  0  0  0  0  0  0  0  0  0
   68.7604   85.5196   89.2566 H   0  0  0  0  0  0  0  0  0  0  0  0
   69.9306   75.2408   92.2363 C   0  0  0  0  0  0  0  0  0  0  0  0
   68.5273   75.3142   91.9840 O   0  0  0  0  0  0  0  0  0  0  0  0
   67.5255   75.4361   92.9653 C   0  0  0  0  0  0  0  0  0  0  0  0
   67.1605   74.3543   93.7918 C   0  0  0  0  0  0  0  0  0  0  0  0
   66.1697   74.5040   94.7632 C   0  0  0  0  0  0  0  0  0  0  0  0
   65.5224   75.7277   94.9276 C   0  0  0  0  0  0  0  0  0  0  0  0
   65.8622   76.8183   94.1161 C   0  0  0  0  0  0  0  0  0  0  0  0
   65.2119   78.0517   94.2791 C   0  0  0  0  0  0  0  0  0  0  0  0
   65.5534   79.1383   93.4712 C   0  0  0  0  0  0  0  0  0  0  0  0
   66.5441   79.0045   92.4969 C   0  0  0  0  0  0  0  0  0  0  0  0
   67.2004   77.7831   92.3225 C   0  0  0  0  0  0  0  0  0  0  0  0
   66.8693   76.6757   93.1264 C   0  0  0  0  0  0  0  0  0  0  0  0
 15 16  1  0  0  0
 16 17  2  0  0  0
 16  7  1  0  0  0
  7  8  2  0  0  0
  8  9  1  0  0  0
  9  5  1  0  0  0
  5  6  2  0  0  0
  6  1  1  0  0  0
  1  2  1  0  0  0
  2  3  2  0  0  0
  2 20  1  0  0  0
 20 21  1  0  0  0
 21 22  1  0  0  0
 22 23  2  0  0  0
 23 24  1  0  0  0
 24 25  2  0  0  0
 25 26  1  0  0  0
 26 27  2  0  0  0
 27 28  1  0  0  0
 28 29  2  0  0  0
 29 30  1  0  0  0
 30 31  2  0  0  0
  9 10  2  0  0  0
 10 11  1  0  0  0
 11 12  2  0  0  0
 12 13  1  0  0  0
 12  7  1  0  0  0
 31 22  1  0  0  0
 31 26  1  0  0  0
 15 18  1  0  0  0
 15 19  1  0  0  0
  1  4  1  0  0  0
 13 14  1  0  0  0
M  END
> <score>
0.323222

> <minimizedAffinity>
-7.48979

> <CNNscore>
0.4877061248

> <CNNaffinity>
5.6656827927

> <CNN_VS>
2.7631881237

$$$$
HIPS7112


 31 33  0  0  0  0  0  0  0  0999 V2000
   67.3647   79.3334   90.8773 N   0  0  0  0  0  0  0  0  0  0  0  0
   68.3051   79.6250   89.8322 C   0  0  0  0  0  0  0  0  0  0  0  0
   69.4367   79.0704   89.8175 O   0  0  0  0  0  0  0  0  0  0  0  0
   66.6344   79.9734   91.0396 H   0  0  0  0  0  0  0  0  0  0  0  0
   66.6645   77.9787   92.7100 C   0  0  0  0  0  0  0  0  0  0  0  0
   67.4323   78.1806   91.6818 N   0  0  0  0  0  0  0  0  0  0  0  0
   68.0381   74.7381   94.1060 C   0  0  0  0  0  0  0  0  0  0  0  0
   67.9073   75.9284   93.3699 C   0  0  0  0  0  0  0  0  0  0  0  0
   66.7730   76.7421   93.5103 C   0  0  0  0  0  0  0  0  0  0  0  0
   65.7608   76.3574   94.4043 C   0  0  0  0  0  0  0  0  0  0  0  0
   65.8921   75.1892   95.1566 C   0  0  0  0  0  0  0  0  0  0  0  0
   67.0296   74.3850   95.0330 C   0  0  0  0  0  0  0  0  0  0  0  0
   67.1399   73.2706   95.8669 O   0  0  0  0  0  0  0  0  0  0  0  0
   66.4520   73.0664   96.4695 H   0  0  0  0  0  0  0  0  0  0  0  0
   69.1692   72.4774   94.1012 N   0  0  0  0  0  0  0  0  0  0  0  0
   69.2216   73.8859   93.8690 C   0  0  0  0  0  0  0  0  0  0  0  0
   70.2750   74.3970   93.4027 O   0  0  0  0  0  0  0  0  0  0  0  0
   69.9656   71.9218   93.9390 H   0  0  0  0  0  0  0  0  0  0  0  0
   68.3366   72.0623   94.4234 H   0  0  0  0  0  0  0  0  0  0  0  0
   67.9700   80.6444   88.7862 C   0  0  0  0  0  0  0  0  0  0  0  0
   68.3642   81.9490   89.2114 O   0  0  0  0  0  0  0  0  0  0  0  0
   69.0700   82.8846   88.4316 C   0  0  0  0  0  0  0  0  0  0  0  0
   68.4497   83.5978   87.3860 C   0  0  0  0  0  0  0  0  0  0  0  0
   69.1701   84.5264   86.6334 C   0  0  0  0  0  0  0  0  0  0  0  0
   70.5178   84.7595   86.9031 C   0  0  0  0  0  0  0  0  0  0  0  0
   71.1605   84.0607   87.9336 C   0  0  0  0  0  0  0  0  0  0  0  0
   72.5176   84.2930   88.2073 C   0  0  0  0  0  0  0  0  0  0  0  0
   73.1560   83.5975   89.2364 C   0  0  0  0  0  0  0  0  0  0  0  0
   72.4480   82.6673   89.9993 C   0  0  0  0  0  0  0  0  0  0  0  0
   71.0966   82.4250   89.7389 C   0  0  0  0  0  0  0  0  0  0  0  0
   70.4357   83.1153   88.7050 C   0  0  0  0  0  0  0  0  0  0  0  0
 15 16  1  0  0  0
 16 17  2  0  0  0
 16  7  1  0  0  0
  7  8  2  0  0  0
  8  9  1  0  0  0
  9  5  1  0  0  0
  5  6  2  0  0  0
  6  1  1  0  0  0
  1  2  1  0  0  0
  2  3  2  0  0  0
  2 20  1  0  0  0
 20 21  1  0  0  0
 21 22  1  0  0  0
 22 23  2  0  0  0
 23 24  1  0  0  0
 24 25  2  0  0  0
 25 26  1  0  0  0
 26 27  2  0  0  0
 27 28  1  0  0  0
 28 29  2  0  0  0
 29 30  1  0  0  0
 30 31  2  0  0  0
  9 10  2  0  0  0
 10 11  1  0  0  0
 11 12  2  0  0  0
 12 13  1  0  0  0
 12  7  1  0  0  0
 31 22  1  0  0  0
 31 26  1  0  0  0
 15 18  1  0  0  0
 15 19  1  0  0  0
  1  4  1  0  0  0
 13 14  1  0  0  0
M  END
> <score>
0.323222

> <minimizedAffinity>
-8.66606

> <CNNscore>
0.4541884959

> <CNNaffinity>
5.2595729828

> <CNN_VS>
2.3888375759

$$$$
HIPS7113


 18 19  0  0  0  0  0  0  0  0999 V2000
   67.8254   73.0668   91.0719 C   0  0  0  0  0  0  0  0  0  0  0  0
   67.1213   72.9254   89.9896 N   0  0  0  0  0  0  0  0  0  0  0  0
   65.7842   75.9582   95.5780 C   0  0  0  0  0  0  0  0  0  0  0  0
   66.2851   75.2000   94.3943 C   0  0  0  0  0  0  0  0  0  0  0  0
   66.8225   75.8650   93.3380 N   0  0  0  0  0  0  0  0  0  0  0  0
   67.3162   75.1942   92.2653 C   0  0  0  0  0  0  0  0  0  0  0  0
   67.2872   73.7950   92.2371 C   0  0  0  0  0  0  0  0  0  0  0  0
   66.7417   73.1294   93.3450 C   0  0  0  0  0  0  0  0  0  0  0  0
   66.2594   73.8411   94.3964 N   0  0  0  0  0  0  0  0  0  0  0  0
   67.5715   72.2284   88.8524 N   0  0  0  0  0  0  0  0  0  0  0  0
   66.8676   72.2207   87.5984 C   0  0  0  0  0  0  0  0  0  0  0  0
   65.9452   73.0531   87.3846 O   0  0  0  0  0  0  0  0  0  0  0  0
   68.4118   71.7198   88.9191 H   0  0  0  0  0  0  0  0  0  0  0  0
   67.2408   71.2704   86.5365 C   0  0  0  0  0  0  0  0  0  0  0  0
   66.8538   71.3483   85.2027 C   0  0  0  0  0  0  0  0  0  0  0  0
   67.3489   70.2983   84.4194 C   0  0  0  0  0  0  0  0  0  0  0  0
   68.1233   69.3895   85.1284 C   0  0  0  0  0  0  0  0  0  0  0  0
   68.1908   69.8939   86.7308 S   0  0  0  0  0  0  0  0  0  0  0  0
  3  4  1  0  0  0
  4  5  2  0  0  0
  5  6  2  0  0  0
  6  7  2  0  0  0
  7  1  1  0  0  0
  1  2  2  0  0  0
  2 10  1  0  0  0
 10 11  1  0  0  0
 11 12  2  0  0  0
 11 14  1  0  0  0
 14 15  2  0  0  0
 15 16  1  0  0  0
 16 17  2  0  0  0
 17 18  1  0  0  0
  7  8  1  0  0  0
  8  9  2  0  0  0
  9  4  2  0  0  0
 18 14  1  0  0  0
 10 13  1  0  0  0
M  END
> <score>
0.965735

> <minimizedAffinity>
-5.01466

> <CNNscore>
0.7283260226

> <CNNaffinity>
4.9130210876

> <CNN_VS>
3.5782811642

$$$$
HIPS7113


 18 19  0  0  0  0  0  0  0  0999 V2000
   66.9861   80.6380   91.7766 C   0  0  0  0  0  0  0  0  0  0  0  0
   67.6801   80.7033   90.6805 N   0  0  0  0  0  0  0  0  0  0  0  0
   65.8624   75.6378   94.3392 C   0  0  0  0  0  0  0  0  0  0  0  0
   66.1386   76.9298   93.6453 C   0  0  0  0  0  0  0  0  0  0  0  0
   65.4493   78.0487   93.9913 N   0  0  0  0  0  0  0  0  0  0  0  0
   65.7080   79.2425   93.3979 C   0  0  0  0  0  0  0  0  0  0  0  0
   66.7045   79.3400   92.4197 C   0  0  0  0  0  0  0  0  0  0  0  0
   67.4134   78.1753   92.0895 C   0  0  0  0  0  0  0  0  0  0  0  0
   67.1209   77.0025   92.7089 N   0  0  0  0  0  0  0  0  0  0  0  0
   67.9962   81.9105   90.0290 N   0  0  0  0  0  0  0  0  0  0  0  0
   68.1110   82.0327   88.6008 C   0  0  0  0  0  0  0  0  0  0  0  0
   67.6774   81.1176   87.8497 O   0  0  0  0  0  0  0  0  0  0  0  0
   68.1464   82.7126   90.5797 H   0  0  0  0  0  0  0  0  0  0  0  0
   68.6980   83.2419   87.9979 C   0  0  0  0  0  0  0  0  0  0  0  0
   69.9683   83.3374   87.4392 C   0  0  0  0  0  0  0  0  0  0  0  0
   70.2646   84.6160   86.9509 C   0  0  0  0  0  0  0  0  0  0  0  0
   69.2354   85.5322   87.1234 C   0  0  0  0  0  0  0  0  0  0  0  0
   67.9568   84.7494   87.8844 S   0  0  0  0  0  0  0  0  0  0  0  0
  3  4  1  0  0  0
  4  5  2  0  0  0
  5  6  2  0  0  0
  6  7  2  0  0  0
  7  1  1  0  0  0
  1  2  2  0  0  0
  2 10  1  0  0  0
 10 11  1  0  0  0
 11 12  2  0  0  0
 11 14  1  0  0  0
 14 15  2  0  0  0
 15 16  1  0  0  0
 16 17  2  0  0  0
 17 18  1  0  0  0
  7  8  1  0  0  0
  8  9  2  0  0  0
  9  4  2  0  0  0
 18 14  1  0  0  0
 10 13  1  0  0  0
M  END
> <score>
0.965735

> <minimizedAffinity>
-4.84164

> <CNNscore>
0.5777245760

> <CNNaffinity>
4.7508411407

> <CNN_VS>
2.7446777821

$$$$
HIPS7113


 18 19  0  0  0  0  0  0  0  0999 V2000
   66.8359   72.4324   88.3146 C   0  0  0  0  0  0  0  0  0  0  0  0
   66.5576   72.8026   87.1011 N   0  0  0  0  0  0  0  0  0  0  0  0
   69.3700   76.0894   91.9252 C   0  0  0  0  0  0  0  0  0  0  0  0
   68.6873   75.1309   91.0077 C   0  0  0  0  0  0  0  0  0  0  0  0
   67.9371   75.5955   89.9741 N   0  0  0  0  0  0  0  0  0  0  0  0
   67.3352   74.7419   89.1060 C   0  0  0  0  0  0  0  0  0  0  0  0
   67.4889   73.3591   89.2593 C   0  0  0  0  0  0  0  0  0  0  0  0
   68.2800   72.9029   90.3243 C   0  0  0  0  0  0  0  0  0  0  0  0
   68.8632   73.7929   91.1683 N   0  0  0  0  0  0  0  0  0  0  0  0
   65.9215   71.9719   86.1594 N   0  0  0  0  0  0  0  0  0  0  0  0
   66.6055   71.3642   85.0499 C   0  0  0  0  0  0  0  0  0  0  0  0
   67.8656   71.3400   85.0189 O   0  0  0  0  0  0  0  0  0  0  0  0
   64.9584   71.7978   86.2658 H   0  0  0  0  0  0  0  0  0  0  0  0
   65.8457   70.7291   83.9592 C   0  0  0  0  0  0  0  0  0  0  0  0
   66.3872   69.9791   82.9204 C   0  0  0  0  0  0  0  0  0  0  0  0
   65.4262   69.5065   82.0181 C   0  0  0  0  0  0  0  0  0  0  0  0
   64.1279   69.8818   82.3375 C   0  0  0  0  0  0  0  0  0  0  0  0
   64.1775   70.8023   83.7434 S   0  0  0  0  0  0  0  0  0  0  0  0
  3  4  1  0  0  0
  4  5  2  0  0  0
  5  6  2  0  0  0
  6  7  2  0  0  0
  7  1  1  0  0  0
  1  2  2  0  0  0
  2 10  1  0  0  0
 10 11  1  0  0  0
 11 12  2  0  0  0
 11 14  1  0  0  0
 14 15  2  0  0  0
 15 16  1  0  0  0
 16 17  2  0  0  0
 17 18  1  0  0  0
  7  8  1  0  0  0
  8  9  2  0  0  0
  9  4  2  0  0  0
 18 14  1  0  0  0
 10 13  1  0  0  0
M  END
> <score>
0.965735

> <minimizedAffinity>
-5.70028

> <CNNscore>
0.5766367316

> <CNNaffinity>
4.9533538818

> <CNN_VS>
2.8562858105

$$$$
HIPS7114


 23 24  0  0  0  0  0  0  0  0999 V2000
   66.8473   76.0489   92.1549 O   0  0  0  0  0  0  0  0  0  0  0  0
   66.3400   76.1973   93.2909 C   0  0  0  0  0  0  0  0  0  0  0  0
   66.2711   77.5091   93.8215 N   0  0  0  0  0  0  0  0  0  0  0  0
   65.8741   77.6360   94.7134 H   0  0  0  0  0  0  0  0  0  0  0  0
   66.7405   78.6272   93.1363 N   0  0  0  0  0  0  0  0  0  0  0  0
   65.9963   79.6233   92.7883 C   0  0  0  0  0  0  0  0  0  0  0  0
   66.6380   80.7237   92.0734 C   0  0  0  0  0  0  0  0  0  0  0  0
   66.5774   80.8447   90.7008 C   0  0  0  0  0  0  0  0  0  0  0  0
   67.1841   81.8848   90.0269 C   0  0  0  0  0  0  0  0  0  0  0  0
   67.8850   82.8597   90.7027 C   0  0  0  0  0  0  0  0  0  0  0  0
   68.5056   83.9199   90.0378 O   0  0  0  0  0  0  0  0  0  0  0  0
   67.9519   82.7482   92.0768 C   0  0  0  0  0  0  0  0  0  0  0  0
   67.3381   81.6957   92.7584 C   0  0  0  0  0  0  0  0  0  0  0  0
   67.4125   81.5994   94.1109 F   0  0  0  0  0  0  0  0  0  0  0  0
   68.4520   83.9832   89.1045 H   0  0  0  0  0  0  0  0  0  0  0  0
   65.8224   75.0537   94.0723 C   0  0  0  0  0  0  0  0  0  0  0  0
   66.9150   74.0099   94.3100 C   0  0  0  0  0  0  0  0  0  0  0  0
   67.0400   73.1361   93.1562 C   0  0  0  0  0  0  0  0  0  0  0  0
   68.4337   72.8347   92.7878 C   0  0  0  0  0  0  0  0  0  0  0  0
   69.4677   73.9252   93.7725 S   0  0  0  0  0  0  0  0  0  0  0  0
   70.3778   73.1564   94.6521 O   0  0  0  0  0  0  0  0  0  0  0  0
   70.1717   74.9179   92.9188 O   0  0  0  0  0  0  0  0  0  0  0  0
   68.1516   74.7235   94.6601 C   0  0  0  0  0  0  0  0  0  0  0  0
  1  2  2  0  0  0
  2 16  1  0  0  0
 17 16  1  0  0  0
 17 18  1  0  0  0
 18 19  1  0  0  0
 19 20  1  0  0  0
 20 21  2  0  0  0
 20 22  2  0  0  0
 20 23  1  0  0  0
  2  3  1  0  0  0
  3  5  1  0  0  0
  5  6  2  0  0  0
  6  7  1  0  0  0
  7  8  2  0  0  0
  8  9  1  0  0  0
  9 10  2  0  0  0
 10 11  1  0  0  0
 10 12  1  0  0  0
 12 13  2  0  0  0
 13 14  1  0  0  0
 23 17  1  0  0  0
 13  7  1  0  0  0
  3  4  1  0  0  0
 11 15  1  0  0  0
M  END
> <score>
1.059752

> <minimizedAffinity>
-6.01251

> <CNNscore>
0.4621424079

> <CNNaffinity>
5.0035839081

> <CNN_VS>
2.3123683929

$$$$
HIPS7114


 23 24  0  0  0  0  0  0  0  0999 V2000
   66.1599   79.6669   90.8415 O   0  0  0  0  0  0  0  0  0  0  0  0
   67.1138   79.2483   91.5377 C   0  0  0  0  0  0  0  0  0  0  0  0
   68.4122   79.7349   91.2468 N   0  0  0  0  0  0  0  0  0  0  0  0
   69.1683   79.4120   91.7883 H   0  0  0  0  0  0  0  0  0  0  0  0
   68.6656   80.6503   90.2281 N   0  0  0  0  0  0  0  0  0  0  0  0
   69.5155   81.6176   90.3242 C   0  0  0  0  0  0  0  0  0  0  0  0
   69.6685   82.4950   89.1665 C   0  0  0  0  0  0  0  0  0  0  0  0
   68.6002   82.8638   88.3758 C   0  0  0  0  0  0  0  0  0  0  0  0
   68.7464   83.6928   87.2825 C   0  0  0  0  0  0  0  0  0  0  0  0
   69.9797   84.1947   86.9281 C   0  0  0  0  0  0  0  0  0  0  0  0
   70.1471   85.0351   85.8249 O   0  0  0  0  0  0  0  0  0  0  0  0
   71.0557   83.8318   87.7126 C   0  0  0  0  0  0  0  0  0  0  0  0
   70.9076   82.9930   88.8187 C   0  0  0  0  0  0  0  0  0  0  0  0
   71.9758   82.6447   89.5815 F   0  0  0  0  0  0  0  0  0  0  0  0
   69.4077   85.2734   85.3010 H   0  0  0  0  0  0  0  0  0  0  0  0
   66.9151   78.2766   92.6343 C   0  0  0  0  0  0  0  0  0  0  0  0
   67.5376   76.9226   92.2894 C   0  0  0  0  0  0  0  0  0  0  0  0
   67.9755   76.9047   90.9044 C   0  0  0  0  0  0  0  0  0  0  0  0
   69.2877   76.2665   90.7047 C   0  0  0  0  0  0  0  0  0  0  0  0
   69.9789   76.0008   92.3416 S   0  0  0  0  0  0  0  0  0  0  0  0
   70.2148   74.5619   92.6003 O   0  0  0  0  0  0  0  0  0  0  0  0
   71.1825   76.8448   92.5628 O   0  0  0  0  0  0  0  0  0  0  0  0
   68.6081   76.6579   93.2615 C   0  0  0  0  0  0  0  0  0  0  0  0
  1  2  2  0  0  0
  2 16  1  0  0  0
 17 16  1  0  0  0
 17 18  1  0  0  0
 18 19  1  0  0  0
 19 20  1  0  0  0
 20 21  2  0  0  0
 20 22  2  0  0  0
 20 23  1  0  0  0
  2  3  1  0  0  0
  3  5  1  0  0  0
  5  6  2  0  0  0
  6  7  1  0  0  0
  7  8  2  0  0  0
  8  9  1  0  0  0
  9 10  2  0  0  0
 10 11  1  0  0  0
 10 12  1  0  0  0
 12 13  2  0  0  0
 13 14  1  0  0  0
 23 17  1  0  0  0
 13  7  1  0  0  0
  3  4  1  0  0  0
 11 15  1  0  0  0
M  END
> <score>
1.059752

> <minimizedAffinity>
-5.88359

> <CNNscore>
0.4619789124

> <CNNaffinity>
5.1544303894

> <CNN_VS>
2.3812382221

$$$$
HIPS7114


 23 24  0  0  0  0  0  0  0  0999 V2000
   67.8737   78.5065   89.1860 O   0  0  0  0  0  0  0  0  0  0  0  0
   67.0255   79.3121   89.6347 C   0  0  0  0  0  0  0  0  0  0  0  0
   66.5031   79.0739   90.9299 N   0  0  0  0  0  0  0  0  0  0  0  0
   65.8360   79.7014   91.2912 H   0  0  0  0  0  0  0  0  0  0  0  0
   66.8920   77.9907   91.7143 N   0  0  0  0  0  0  0  0  0  0  0  0
   67.1316   78.0679   92.9807 C   0  0  0  0  0  0  0  0  0  0  0  0
   67.5308   76.8407   93.6649 C   0  0  0  0  0  0  0  0  0  0  0  0
   68.8382   76.5914   94.0269 C   0  0  0  0  0  0  0  0  0  0  0  0
   69.2136   75.4316   94.6733 C   0  0  0  0  0  0  0  0  0  0  0  0
   68.2890   74.4602   94.9896 C   0  0  0  0  0  0  0  0  0  0  0  0
   68.6503   73.2800   95.6436 O   0  0  0  0  0  0  0  0  0  0  0  0
   66.9777   74.6996   94.6318 C   0  0  0  0  0  0  0  0  0  0  0  0
   66.5980   75.8730   93.9777 C   0  0  0  0  0  0  0  0  0  0  0  0
   65.3035   76.0946   93.6320 F   0  0  0  0  0  0  0  0  0  0  0  0
   69.5444   73.1305   95.8807 H   0  0  0  0  0  0  0  0  0  0  0  0
   66.5687   80.4825   88.8551 C   0  0  0  0  0  0  0  0  0  0  0  0
   67.7487   81.3644   88.4436 C   0  0  0  0  0  0  0  0  0  0  0  0
   67.6206   81.7654   87.0532 C   0  0  0  0  0  0  0  0  0  0  0  0
   67.9632   83.1766   86.8081 C   0  0  0  0  0  0  0  0  0  0  0  0
   68.1433   83.9445   88.4224 S   0  0  0  0  0  0  0  0  0  0  0  0
   69.5105   84.4794   88.6156 O   0  0  0  0  0  0  0  0  0  0  0  0
   67.0765   84.9514   88.6632 O   0  0  0  0  0  0  0  0  0  0  0  0
   67.8227   82.4881   89.3886 C   0  0  0  0  0  0  0  0  0  0  0  0
  1  2  2  0  0  0
  2 16  1  0  0  0
 17 16  1  0  0  0
 17 18  1  0  0  0
 18 19  1  0  0  0
 19 20  1  0  0  0
 20 21  2  0  0  0
 20 22  2  0  0  0
 20 23  1  0  0  0
  2  3  1  0  0  0
  3  5  1  0  0  0
  5  6  2  0  0  0
  6  7  1  0  0  0
  7  8  2  0  0  0
  8  9  1  0  0  0
  9 10  2  0  0  0
 10 11  1  0  0  0
 10 12  1  0  0  0
 12 13  2  0  0  0
 13 14  1  0  0  0
 23 17  1  0  0  0
 13  7  1  0  0  0
  3  4  1  0  0  0
 11 15  1  0  0  0
M  END
> <score>
1.059752

> <minimizedAffinity>
-5.95785

> <CNNscore>
0.4543981552

> <CNNaffinity>
4.9115934372

> <CNN_VS>
2.2318189144

$$$$
HIPS7115


 40 44  0  0  0  0  0  0  0  0999 V2000
   69.8725   78.4000   90.4506 C   0  0  0  0  0  0  0  0  0  0  0  0
   68.6500   77.7686   90.7041 C   0  0  0  0  0  0  0  0  0  0  0  0
   68.6203   76.5962   91.3883 N   0  0  0  0  0  0  0  0  0  0  0  0
   69.7644   76.0050   91.8311 C   0  0  0  0  0  0  0  0  0  0  0  0
   70.9631   76.5992   91.5758 N   0  0  0  0  0  0  0  0  0  0  0  0
   71.0402   77.7717   90.8954 C   0  0  0  0  0  0  0  0  0  0  0  0
   69.7070   74.7229   92.5773 C   0  0  0  0  0  0  0  0  0  0  0  0
   69.5071   74.7142   93.9696 C   0  0  0  0  0  0  0  0  0  0  0  0
   69.4579   73.5078   94.6704 C   0  0  0  0  0  0  0  0  0  0  0  0
   69.6013   72.2951   93.9956 C   0  0  0  0  0  0  0  0  0  0  0  0
   69.7906   72.2758   92.6024 C   0  0  0  0  0  0  0  0  0  0  0  0
   69.8511   73.4937   91.9051 C   0  0  0  0  0  0  0  0  0  0  0  0
   69.9333   71.0426   91.8748 N   0  0  0  0  0  0  0  0  0  0  0  0
   69.5785   71.0005   90.9574 H   0  0  0  0  0  0  0  0  0  0  0  0
   70.6963   69.6251   92.5243 S   0  0  0  0  0  0  0  0  0  0  0  0
   70.0067   69.2282   93.7991 O   0  0  0  0  0  0  0  0  0  0  0  0
   70.5746   68.5012   91.5325 O   0  0  0  0  0  0  0  0  0  0  0  0
   72.3858   69.9689   92.8800 C   0  0  0  0  0  0  0  0  0  0  0  0
   72.7306   70.5722   94.1093 C   0  0  0  0  0  0  0  0  0  0  0  0
   74.0705   70.8722   94.4081 C   0  0  0  0  0  0  0  0  0  0  0  0
   75.0534   70.5612   93.4675 C   0  0  0  0  0  0  0  0  0  0  0  0
   76.3792   70.8005   93.6347 N   0  0  0  0  0  0  0  0  0  0  0  0
   77.0919   70.3926   92.5556 C   0  0  0  0  0  0  0  0  0  0  0  0
   76.0978   69.7218   91.3602 S   0  0  0  0  0  0  0  0  0  0  0  0
   74.7082   69.9663   92.2663 C   0  0  0  0  0  0  0  0  0  0  0  0
   73.3901   69.6566   91.9434 C   0  0  0  0  0  0  0  0  0  0  0  0
   69.9351   79.6734   89.6609 C   0  0  0  0  0  0  0  0  0  0  0  0
   70.7385   80.6190   90.3619 O   0  0  0  0  0  0  0  0  0  0  0  0
   70.7307   83.7979   88.4503 C   0  0  0  0  0  0  0  0  0  0  0  0
   70.3269   82.5787   89.0300 C   0  0  0  0  0  0  0  0  0  0  0  0
   71.2042   81.8243   89.8161 C   0  0  0  0  0  0  0  0  0  0  0  0
   72.5110   82.2929   90.0309 C   0  0  0  0  0  0  0  0  0  0  0  0
   72.9273   83.4960   89.4613 C   0  0  0  0  0  0  0  0  0  0  0  0
   72.0505   84.2529   88.6718 C   0  0  0  0  0  0  0  0  0  0  0  0
   72.4976   85.4493   88.1115 O   0  0  0  0  0  0  0  0  0  0  0  0
   73.3749   85.7399   88.2660 H   0  0  0  0  0  0  0  0  0  0  0  0
   69.0668   83.9892   86.7538 O   0  0  0  0  0  0  0  0  0  0  0  0
   69.7655   84.5719   87.6264 C   0  0  0  0  0  0  0  0  0  0  0  0
   69.6119   85.9441   87.8040 O   0  0  0  0  0  0  0  0  0  0  0  0
   70.1232   86.3932   88.4481 H   0  0  0  0  0  0  0  0  0  0  0  0
 37 38  2  0  0  0
 38 39  1  0  0  0
 38 29  1  0  0  0
 29 30  2  0  0  0
 30 31  1  0  0  0
 31 28  1  0  0  0
 28 27  1  0  0  0
 27  1  1  0  0  0
  1  2  2  0  0  0
  2  3  2  0  0  0
  3  4  2  0  0  0
  4  7  1  0  0  0
  7  8  2  0  0  0
  8  9  1  0  0  0
  9 10  2  0  0  0
 10 11  1  0  0  0
 11 13  1  0  0  0
 13 15  1  0  0  0
 15 16  2  0  0  0
 15 17  2  0  0  0
 15 18  1  0  0  0
 18 19  2  0  0  0
 19 20  1  0  0  0
 20 21  2  0  0  0
 21 22  2  0  0  0
 22 23  2  0  0  0
 23 24  1  0  0  0
 24 25  1  0  0  0
 25 26  2  0  0  0
 11 12  2  0  0  0
  4  5  2  0  0  0
  5  6  2  0  0  0
 31 32  2  0  0  0
 32 33  1  0  0  0
 33 34  2  0  0  0
 34 35  1  0  0  0
 34 29  1  0  0  0
  6  1  1  0  0  0
 12  7  1  0  0  0
 26 18  1  0  0  0
 25 21  1  0  0  0
 39 40  1  0  0  0
 13 14  1  0  0  0
 35 36  1  0  0  0
M  END
> <score>
0.672715

> <minimizedAffinity>
-8.78492

> <CNNscore>
0.4401461184

> <CNNaffinity>
6.3610849380

> <CNN_VS>
2.7998068333

$$$$
HIPS7115


 40 44  0  0  0  0  0  0  0  0999 V2000
   71.0228   70.7969   93.3993 C   0  0  0  0  0  0  0  0  0  0  0  0
   70.6730   72.1254   93.6643 C   0  0  0  0  0  0  0  0  0  0  0  0
   69.9064   72.8148   92.7809 N   0  0  0  0  0  0  0  0  0  0  0  0
   69.4719   72.2439   91.6233 C   0  0  0  0  0  0  0  0  0  0  0  0
   69.8199   70.9571   91.3436 N   0  0  0  0  0  0  0  0  0  0  0  0
   70.5848   70.2301   92.1980 C   0  0  0  0  0  0  0  0  0  0  0  0
   68.6345   73.0177   90.6726 C   0  0  0  0  0  0  0  0  0  0  0  0
   67.7829   72.3573   89.7686 C   0  0  0  0  0  0  0  0  0  0  0  0
   66.9996   73.0864   88.8721 C   0  0  0  0  0  0  0  0  0  0  0  0
   67.0487   74.4808   88.8665 C   0  0  0  0  0  0  0  0  0  0  0  0
   67.8830   75.1654   89.7678 C   0  0  0  0  0  0  0  0  0  0  0  0
   68.6776   74.4254   90.6591 C   0  0  0  0  0  0  0  0  0  0  0  0
   67.9510   76.6025   89.7942 N   0  0  0  0  0  0  0  0  0  0  0  0
   67.6620   77.0963   88.9931 H   0  0  0  0  0  0  0  0  0  0  0  0
   68.5142   77.5141   91.1599 S   0  0  0  0  0  0  0  0  0  0  0  0
   69.9806   77.7996   90.9976 O   0  0  0  0  0  0  0  0  0  0  0  0
   67.7668   78.8174   91.2251 O   0  0  0  0  0  0  0  0  0  0  0  0
   68.2808   76.5816   92.6348 C   0  0  0  0  0  0  0  0  0  0  0  0
   69.3318   76.4863   93.5731 C   0  0  0  0  0  0  0  0  0  0  0  0
   69.1750   75.7333   94.7490 C   0  0  0  0  0  0  0  0  0  0  0  0
   67.9606   75.0830   94.9723 C   0  0  0  0  0  0  0  0  0  0  0  0
   67.6845   74.3260   96.0649 N   0  0  0  0  0  0  0  0  0  0  0  0
   66.4272   73.8214   96.0079 C   0  0  0  0  0  0  0  0  0  0  0  0
   65.6190   74.2998   94.5988 S   0  0  0  0  0  0  0  0  0  0  0  0
   66.9335   75.1842   94.0499 C   0  0  0  0  0  0  0  0  0  0  0  0
   67.0595   75.9236   92.8772 C   0  0  0  0  0  0  0  0  0  0  0  0
   71.9032   70.0277   94.3387 C   0  0  0  0  0  0  0  0  0  0  0  0
   72.6825   69.0970   93.5923 O   0  0  0  0  0  0  0  0  0  0  0  0
   76.3181   69.8163   93.7498 C   0  0  0  0  0  0  0  0  0  0  0  0
   74.9803   69.5729   94.1193 C   0  0  0  0  0  0  0  0  0  0  0  0
   73.9951   69.3303   93.1563 C   0  0  0  0  0  0  0  0  0  0  0  0
   74.3484   69.3291   91.7965 C   0  0  0  0  0  0  0  0  0  0  0  0
   75.6675   69.5719   91.4142 C   0  0  0  0  0  0  0  0  0  0  0  0
   76.6561   69.8168   92.3774 C   0  0  0  0  0  0  0  0  0  0  0  0
   77.9654   70.0613   91.9637 O   0  0  0  0  0  0  0  0  0  0  0  0
   78.1765   70.0589   91.0508 H   0  0  0  0  0  0  0  0  0  0  0  0
   77.8716   71.1995   94.9149 O   0  0  0  0  0  0  0  0  0  0  0  0
   77.3355   70.0638   94.8049 C   0  0  0  0  0  0  0  0  0  0  0  0
   77.7100   69.0555   95.6888 O   0  0  0  0  0  0  0  0  0  0  0  0
   77.3216   68.2054   95.6215 H   0  0  0  0  0  0  0  0  0  0  0  0
 37 38  2  0  0  0
 38 39  1  0  0  0
 38 29  1  0  0  0
 29 30  2  0  0  0
 30 31  1  0  0  0
 31 28  1  0  0  0
 28 27  1  0  0  0
 27  1  1  0  0  0
  1  2  2  0  0  0
  2  3  2  0  0  0
  3  4  2  0  0  0
  4  7  1  0  0  0
  7  8  2  0  0  0
  8  9  1  0  0  0
  9 10  2  0  0  0
 10 11  1  0  0  0
 11 13  1  0  0  0
 13 15  1  0  0  0
 15 16  2  0  0  0
 15 17  2  0  0  0
 15 18  1  0  0  0
 18 19  2  0  0  0
 19 20  1  0  0  0
 20 21  2  0  0  0
 21 22  2  0  0  0
 22 23  2  0  0  0
 23 24  1  0  0  0
 24 25  1  0  0  0
 25 26  2  0  0  0
 11 12  2  0  0  0
  4  5  2  0  0  0
  5  6  2  0  0  0
 31 32  2  0  0  0
 32 33  1  0  0  0
 33 34  2  0  0  0
 34 35  1  0  0  0
 34 29  1  0  0  0
  6  1  1  0  0  0
 12  7  1  0  0  0
 26 18  1  0  0  0
 25 21  1  0  0  0
 39 40  1  0  0  0
 13 14  1  0  0  0
 35 36  1  0  0  0
M  END
> <score>
0.672715

> <minimizedAffinity>
-9.76505

> <CNNscore>
0.3348562121

> <CNNaffinity>
6.8851366043

> <CNN_VS>
2.3055307865

$$$$
HIPS7115


 40 44  0  0  0  0  0  0  0  0999 V2000
   68.4976   78.3856   90.7749 C   0  0  0  0  0  0  0  0  0  0  0  0
   69.8434   78.2157   90.4320 C   0  0  0  0  0  0  0  0  0  0  0  0
   70.6037   79.2939   90.1112 N   0  0  0  0  0  0  0  0  0  0  0  0
   70.0820   80.5518   90.1036 C   0  0  0  0  0  0  0  0  0  0  0  0
   68.7688   80.7302   90.4177 N   0  0  0  0  0  0  0  0  0  0  0  0
   67.9714   79.6811   90.7448 C   0  0  0  0  0  0  0  0  0  0  0  0
   70.9331   81.7155   89.7495 C   0  0  0  0  0  0  0  0  0  0  0  0
   72.1833   81.9013   90.3668 C   0  0  0  0  0  0  0  0  0  0  0  0
   72.9802   82.9988   90.0359 C   0  0  0  0  0  0  0  0  0  0  0  0
   72.5472   83.9220   89.0837 C   0  0  0  0  0  0  0  0  0  0  0  0
   71.3067   83.7529   88.4436 C   0  0  0  0  0  0  0  0  0  0  0  0
   70.5044   82.6531   88.7898 C   0  0  0  0  0  0  0  0  0  0  0  0
   70.8342   84.6815   87.4510 N   0  0  0  0  0  0  0  0  0  0  0  0
   71.4471   84.9365   86.7240 H   0  0  0  0  0  0  0  0  0  0  0  0
   69.2439   85.3772   87.4641 S   0  0  0  0  0  0  0  0  0  0  0  0
   69.3314   86.8272   87.0796 O   0  0  0  0  0  0  0  0  0  0  0  0
   68.3824   84.6573   86.4636 O   0  0  0  0  0  0  0  0  0  0  0  0
   68.5577   85.2627   89.0814 C   0  0  0  0  0  0  0  0  0  0  0  0
   67.5285   84.3304   89.3377 C   0  0  0  0  0  0  0  0  0  0  0  0
   66.9533   84.2331   90.6160 C   0  0  0  0  0  0  0  0  0  0  0  0
   67.4197   85.0743   91.6272 C   0  0  0  0  0  0  0  0  0  0  0  0
   66.9477   85.0796   92.9001 N   0  0  0  0  0  0  0  0  0  0  0  0
   67.5904   86.0017   93.6585 C   0  0  0  0  0  0  0  0  0  0  0  0
   68.7652   86.8392   92.7721 S   0  0  0  0  0  0  0  0  0  0  0  0
   68.4315   85.9830   91.3695 C   0  0  0  0  0  0  0  0  0  0  0  0
   69.0208   86.1011   90.1139 C   0  0  0  0  0  0  0  0  0  0  0  0
   67.6265   77.2068   91.0922 C   0  0  0  0  0  0  0  0  0  0  0  0
   67.0773   77.3693   92.3971 O   0  0  0  0  0  0  0  0  0  0  0  0
   68.1483   74.4902   94.4764 C   0  0  0  0  0  0  0  0  0  0  0  0
   68.1374   75.5269   93.5221 C   0  0  0  0  0  0  0  0  0  0  0  0
   67.0225   76.3575   93.3670 C   0  0  0  0  0  0  0  0  0  0  0  0
   65.8945   76.1529   94.1789 C   0  0  0  0  0  0  0  0  0  0  0  0
   65.8881   75.1289   95.1257 C   0  0  0  0  0  0  0  0  0  0  0  0
   67.0035   74.2944   95.2819 C   0  0  0  0  0  0  0  0  0  0  0  0
   66.9650   73.2757   96.2337 O   0  0  0  0  0  0  0  0  0  0  0  0
   66.2001   73.1563   96.7615 H   0  0  0  0  0  0  0  0  0  0  0  0
   70.2149   73.5975   93.6916 O   0  0  0  0  0  0  0  0  0  0  0  0
   69.3556   73.6339   94.6132 C   0  0  0  0  0  0  0  0  0  0  0  0
   69.5620   72.8649   95.7552 O   0  0  0  0  0  0  0  0  0  0  0  0
   68.9336   72.8800   96.4501 H   0  0  0  0  0  0  0  0  0  0  0  0
 37 38  2  0  0  0
 38 39  1  0  0  0
 38 29  1  0  0  0
 29 30  2  0  0  0
 30 31  1  0  0  0
 31 28  1  0  0  0
 28 27  1  0  0  0
 27  1  1  0  0  0
  1  2  2  0  0  0
  2  3  2  0  0  0
  3  4  2  0  0  0
  4  7  1  0  0  0
  7  8  2  0  0  0
  8  9  1  0  0  0
  9 10  2  0  0  0
 10 11  1  0  0  0
 11 13  1  0  0  0
 13 15  1  0  0  0
 15 16  2  0  0  0
 15 17  2  0  0  0
 15 18  1  0  0  0
 18 19  2  0  0  0
 19 20  1  0  0  0
 20 21  2  0  0  0
 21 22  2  0  0  0
 22 23  2  0  0  0
 23 24  1  0  0  0
 24 25  1  0  0  0
 25 26  2  0  0  0
 11 12  2  0  0  0
  4  5  2  0  0  0
  5  6  2  0  0  0
 31 32  2  0  0  0
 32 33  1  0  0  0
 33 34  2  0  0  0
 34 35  1  0  0  0
 34 29  1  0  0  0
  6  1  1  0  0  0
 12  7  1  0  0  0
 26 18  1  0  0  0
 25 21  1  0  0  0
 39 40  1  0  0  0
 13 14  1  0  0  0
 35 36  1  0  0  0
M  END
> <score>
0.672715

> <minimizedAffinity>
-9.17009

> <CNNscore>
0.3309091628

> <CNNaffinity>
6.9545288086

> <CNN_VS>
2.3013172150

$$$$
HIPS7116


 36 39  0  0  0  0  0  0  0  0999 V2000
   67.5495   79.4028   90.8828 C   0  0  0  0  0  0  0  0  0  0  0  0
   67.2460   79.9537   92.0767 N   0  0  0  0  0  0  0  0  0  0  0  0
   66.9073   81.2458   92.2128 C   0  0  0  0  0  0  0  0  0  0  0  0
   66.8560   82.0702   91.1245 C   0  0  0  0  0  0  0  0  0  0  0  0
   67.1671   81.5185   89.8764 C   0  0  0  0  0  0  0  0  0  0  0  0
   67.4949   80.2207   89.8289 N   0  0  0  0  0  0  0  0  0  0  0  0
   68.6973   75.9668   93.8107 C   0  0  0  0  0  0  0  0  0  0  0  0
   69.7808   75.5329   94.2974 O   0  0  0  0  0  0  0  0  0  0  0  0
   68.7034   76.7329   92.6157 N   0  0  0  0  0  0  0  0  0  0  0  0
   67.4961   77.2595   92.0099 C   0  0  0  0  0  0  0  0  0  0  0  0
   67.9252   77.9548   90.7651 C   0  0  0  0  0  0  0  0  0  0  0  0
   69.3951   77.8405   90.7178 C   0  0  0  0  0  0  0  0  0  0  0  0
   70.3681   78.2881   89.8409 C   0  0  0  0  0  0  0  0  0  0  0  0
   71.7064   78.0306   90.0455 C   0  0  0  0  0  0  0  0  0  0  0  0
   72.1244   77.3114   91.1410 C   0  0  0  0  0  0  0  0  0  0  0  0
   71.1681   76.8571   92.0260 C   0  0  0  0  0  0  0  0  0  0  0  0
   69.8084   77.1220   91.8126 C   0  0  0  0  0  0  0  0  0  0  0  0
   67.5487   75.6637   94.4836 O   0  0  0  0  0  0  0  0  0  0  0  0
   67.3183   73.4460   93.5015 C   0  0  0  0  0  0  0  0  0  0  0  0
   66.8929   74.4362   94.5453 C   0  0  0  0  0  0  0  0  0  0  0  0
   65.3745   74.6039   94.5423 C   0  0  0  0  0  0  0  0  0  0  0  0
   67.2426   73.8271   95.9101 C   0  0  0  0  0  0  0  0  0  0  0  0
   66.5151   83.4940   91.1434 C   0  0  0  0  0  0  0  0  0  0  0  0
   67.0646   84.2066   92.1459 O   0  0  0  0  0  0  0  0  0  0  0  0
   66.6888   84.8838   93.2423 C   0  0  0  0  0  0  0  0  0  0  0  0
   67.3217   84.8712   94.4576 C   0  0  0  0  0  0  0  0  0  0  0  0
   66.8610   85.6092   95.5440 C   0  0  0  0  0  0  0  0  0  0  0  0
   65.7291   86.3850   95.4091 C   0  0  0  0  0  0  0  0  0  0  0  0
   65.2744   87.1226   96.5071 O   0  0  0  0  0  0  0  0  0  0  0  0
   65.0566   86.4279   94.1992 C   0  0  0  0  0  0  0  0  0  0  0  0
   65.5370   85.6922   93.1568 C   0  0  0  0  0  0  0  0  0  0  0  0
   65.7378   87.0856   97.3207 H   0  0  0  0  0  0  0  0  0  0  0  0
   63.8541   87.2651   94.0928 C   0  0  0  0  0  0  0  0  0  0  0  0
   63.8054   88.2179   93.3082 O   0  0  0  0  0  0  0  0  0  0  0  0
   62.7472   86.9911   94.8812 O   0  0  0  0  0  0  0  0  0  0  0  0
   62.7662   86.2723   95.4820 H   0  0  0  0  0  0  0  0  0  0  0  0
 19 20  1  0  0  0
 20 21  1  0  0  0
 20 22  1  0  0  0
 20 18  1  0  0  0
 18  7  1  0  0  0
  7  8  2  0  0  0
  7  9  1  0  0  0
  9 10  1  0  0  0
 10 11  1  0  0  0
 11  1  1  0  0  0
  1  2  2  0  0  0
  2  3  2  0  0  0
  3  4  2  0  0  0
  4 23  1  0  0  0
 23 24  1  0  0  0
 24 25  1  0  0  0
 25 26  2  0  0  0
 26 27  1  0  0  0
 27 28  2  0  0  0
 28 29  1  0  0  0
 28 30  1  0  0  0
 30 33  1  0  0  0
 33 34  2  0  0  0
 33 35  1  0  0  0
 30 31  2  0  0  0
  4  5  1  0  0  0
  5  6  2  0  0  0
 11 12  1  0  0  0
 12 13  2  0  0  0
 13 14  1  0  0  0
 14 15  2  0  0  0
 15 16  1  0  0  0
 16 17  2  0  0  0
 17  9  1  0  0  0
  6  1  2  0  0  0
 17 12  1  0  0  0
 31 25  1  0  0  0
 29 32  1  0  0  0
 35 36  1  0  0  0
M  END
> <score>
-0.60376

> <minimizedAffinity>
-7.26019

> <CNNscore>
0.5756376386

> <CNNaffinity>
6.2831792831

> <CNN_VS>
3.6168344021

$$$$
HIPS7116


 36 39  0  0  0  0  0  0  0  0999 V2000
   66.9562   82.6300   90.6946 C   0  0  0  0  0  0  0  0  0  0  0  0
   66.0455   81.8437   91.3058 N   0  0  0  0  0  0  0  0  0  0  0  0
   66.2810   80.5541   91.5963 C   0  0  0  0  0  0  0  0  0  0  0  0
   67.4771   79.9760   91.2774 C   0  0  0  0  0  0  0  0  0  0  0  0
   68.4359   80.7744   90.6431 C   0  0  0  0  0  0  0  0  0  0  0  0
   68.1199   82.0511   90.3894 N   0  0  0  0  0  0  0  0  0  0  0  0
   69.4181   86.3926   89.4791 C   0  0  0  0  0  0  0  0  0  0  0  0
   69.9907   87.3272   90.1099 O   0  0  0  0  0  0  0  0  0  0  0  0
   68.3827   85.6411   90.0941 N   0  0  0  0  0  0  0  0  0  0  0  0
   67.6900   84.5576   89.4247 C   0  0  0  0  0  0  0  0  0  0  0  0
   66.6609   84.0678   90.3829 C   0  0  0  0  0  0  0  0  0  0  0  0
   66.8274   84.8708   91.6090 C   0  0  0  0  0  0  0  0  0  0  0  0
   66.2012   84.8851   92.8434 C   0  0  0  0  0  0  0  0  0  0  0  0
   66.5685   85.7678   93.8357 C   0  0  0  0  0  0  0  0  0  0  0  0
   67.5817   86.6751   93.6298 C   0  0  0  0  0  0  0  0  0  0  0  0
   68.2174   86.6754   92.4051 C   0  0  0  0  0  0  0  0  0  0  0  0
   67.8394   85.7752   91.3995 C   0  0  0  0  0  0  0  0  0  0  0  0
   69.8421   86.1532   88.2037 O   0  0  0  0  0  0  0  0  0  0  0  0
   71.1735   84.1563   88.6223 C   0  0  0  0  0  0  0  0  0  0  0  0
   70.9287   85.3834   87.7945 C   0  0  0  0  0  0  0  0  0  0  0  0
   72.2028   86.2180   87.6779 C   0  0  0  0  0  0  0  0  0  0  0  0
   70.6099   84.9074   86.3705 C   0  0  0  0  0  0  0  0  0  0  0  0
   67.8491   78.5823   91.5281 C   0  0  0  0  0  0  0  0  0  0  0  0
   66.9751   77.8755   92.2707 O   0  0  0  0  0  0  0  0  0  0  0  0
   66.9603   76.8219   93.1024 C   0  0  0  0  0  0  0  0  0  0  0  0
   65.8841   76.3759   93.8240 C   0  0  0  0  0  0  0  0  0  0  0  0
   65.9590   75.2686   94.6639 C   0  0  0  0  0  0  0  0  0  0  0  0
   67.1508   74.5859   94.7857 C   0  0  0  0  0  0  0  0  0  0  0  0
   67.2153   73.4746   95.6326 O   0  0  0  0  0  0  0  0  0  0  0  0
   68.2648   75.0011   94.0755 C   0  0  0  0  0  0  0  0  0  0  0  0
   68.1543   76.0896   93.2621 C   0  0  0  0  0  0  0  0  0  0  0  0
   66.4549   73.2030   96.1080 H   0  0  0  0  0  0  0  0  0  0  0  0
   69.5176   74.2495   94.2305 C   0  0  0  0  0  0  0  0  0  0  0  0
   69.9603   73.9677   95.3486 O   0  0  0  0  0  0  0  0  0  0  0  0
   70.2248   73.8431   93.1095 O   0  0  0  0  0  0  0  0  0  0  0  0
   69.9040   74.0480   92.2534 H   0  0  0  0  0  0  0  0  0  0  0  0
 19 20  1  0  0  0
 20 21  1  0  0  0
 20 22  1  0  0  0
 20 18  1  0  0  0
 18  7  1  0  0  0
  7  8  2  0  0  0
  7  9  1  0  0  0
  9 10  1  0  0  0
 10 11  1  0  0  0
 11  1  1  0  0  0
  1  2  2  0  0  0
  2  3  2  0  0  0
  3  4  2  0  0  0
  4 23  1  0  0  0
 23 24  1  0  0  0
 24 25  1  0  0  0
 25 26  2  0  0  0
 26 27  1  0  0  0
 27 28  2  0  0  0
 28 29  1  0  0  0
 28 30  1  0  0  0
 30 33  1  0  0  0
 33 34  2  0  0  0
 33 35  1  0  0  0
 30 31  2  0  0  0
  4  5  1  0  0  0
  5  6  2  0  0  0
 11 12  1  0  0  0
 12 13  2  0  0  0
 13 14  1  0  0  0
 14 15  2  0  0  0
 15 16  1  0  0  0
 16 17  2  0  0  0
 17  9  1  0  0  0
  6  1  2  0  0  0
 17 12  1  0  0  0
 31 25  1  0  0  0
 29 32  1  0  0  0
 35 36  1  0  0  0
M  END
> <score>
-0.60376

> <minimizedAffinity>
-7.33195

> <CNNscore>
0.4623005390

> <CNNaffinity>
6.2517633438

> <CNN_VS>
2.8901934624

$$$$
HIPS7116


 36 39  0  0  0  0  0  0  0  0999 V2000
   67.2946   78.5648   90.4423 C   0  0  0  0  0  0  0  0  0  0  0  0
   66.6861   79.2513   89.4526 N   0  0  0  0  0  0  0  0  0  0  0  0
   66.0661   80.4241   89.6600 C   0  0  0  0  0  0  0  0  0  0  0  0
   66.0266   80.9794   90.9077 C   0  0  0  0  0  0  0  0  0  0  0  0
   66.6521   80.2835   91.9486 C   0  0  0  0  0  0  0  0  0  0  0  0
   67.2476   79.1200   91.6556 N   0  0  0  0  0  0  0  0  0  0  0  0
   68.7240   74.9304   92.9809 C   0  0  0  0  0  0  0  0  0  0  0  0
   69.7971   74.6231   93.5752 O   0  0  0  0  0  0  0  0  0  0  0  0
   68.7334   75.8861   91.9313 N   0  0  0  0  0  0  0  0  0  0  0  0
   67.5374   76.2816   91.2137 C   0  0  0  0  0  0  0  0  0  0  0  0
   67.9780   77.2555   90.1771 C   0  0  0  0  0  0  0  0  0  0  0  0
   69.4314   77.4238   90.3643 C   0  0  0  0  0  0  0  0  0  0  0  0
   70.4000   78.1924   89.7420 C   0  0  0  0  0  0  0  0  0  0  0  0
   71.7214   78.1529   90.1310 C   0  0  0  0  0  0  0  0  0  0  0  0
   72.1264   77.3384   91.1628 C   0  0  0  0  0  0  0  0  0  0  0  0
   71.1744   76.5649   91.7948 C   0  0  0  0  0  0  0  0  0  0  0  0
   69.8318   76.6092   91.3948 C   0  0  0  0  0  0  0  0  0  0  0  0
   67.5832   74.3058   93.3960 O   0  0  0  0  0  0  0  0  0  0  0  0
   66.3812   76.0878   94.5429 C   0  0  0  0  0  0  0  0  0  0  0  0
   66.7704   74.6404   94.4768 C   0  0  0  0  0  0  0  0  0  0  0  0
   67.3748   74.1837   95.8033 C   0  0  0  0  0  0  0  0  0  0  0  0
   65.4747   73.8348   94.3094 C   0  0  0  0  0  0  0  0  0  0  0  0
   65.3738   82.2406   91.2641 C   0  0  0  0  0  0  0  0  0  0  0  0
   66.1561   83.3353   91.1971 O   0  0  0  0  0  0  0  0  0  0  0  0
   66.8518   84.1443   92.0117 C   0  0  0  0  0  0  0  0  0  0  0  0
   67.5909   83.7567   93.0985 C   0  0  0  0  0  0  0  0  0  0  0  0
   68.2851   84.6678   93.8892 C   0  0  0  0  0  0  0  0  0  0  0  0
   68.2372   86.0111   93.5818 C   0  0  0  0  0  0  0  0  0  0  0  0
   68.9382   86.9183   94.3830 O   0  0  0  0  0  0  0  0  0  0  0  0
   67.5023   86.4485   92.4925 C   0  0  0  0  0  0  0  0  0  0  0  0
   66.8353   85.5276   91.7404 C   0  0  0  0  0  0  0  0  0  0  0  0
   69.4320   86.6105   95.1174 H   0  0  0  0  0  0  0  0  0  0  0  0
   67.4740   87.8870   92.1956 C   0  0  0  0  0  0  0  0  0  0  0  0
   68.4829   88.4779   91.7971 O   0  0  0  0  0  0  0  0  0  0  0  0
   66.3001   88.6057   92.3613 O   0  0  0  0  0  0  0  0  0  0  0  0
   65.5251   88.1739   92.6628 H   0  0  0  0  0  0  0  0  0  0  0  0
 19 20  1  0  0  0
 20 21  1  0  0  0
 20 22  1  0  0  0
 20 18  1  0  0  0
 18  7  1  0  0  0
  7  8  2  0  0  0
  7  9  1  0  0  0
  9 10  1  0  0  0
 10 11  1  0  0  0
 11  1  1  0  0  0
  1  2  2  0  0  0
  2  3  2  0  0  0
  3  4  2  0  0  0
  4 23  1  0  0  0
 23 24  1  0  0  0
 24 25  1  0  0  0
 25 26  2  0  0  0
 26 27  1  0  0  0
 27 28  2  0  0  0
 28 29  1  0  0  0
 28 30  1  0  0  0
 30 33  1  0  0  0
 33 34  2  0  0  0
 33 35  1  0  0  0
 30 31  2  0  0  0
  4  5  1  0  0  0
  5  6  2  0  0  0
 11 12  1  0  0  0
 12 13  2  0  0  0
 13 14  1  0  0  0
 14 15  2  0  0  0
 15 16  1  0  0  0
 16 17  2  0  0  0
 17  9  1  0  0  0
  6  1  2  0  0  0
 17 12  1  0  0  0
 31 25  1  0  0  0
 29 32  1  0  0  0
 35 36  1  0  0  0
M  END
> <score>
-0.60376

> <minimizedAffinity>
-7.01519

> <CNNscore>
0.4488340914

> <CNNaffinity>
6.3818855286

> <CNN_VS>
2.8644077778

$$$$
HIPS7118


 33 35  0  0  0  0  0  0  0  0999 V2000
   67.2736   79.2390   88.6906 C   0  0  0  0  0  0  0  0  0  0  0  0
   67.5102   78.5204   87.5702 N   0  0  0  0  0  0  0  0  0  0  0  0
   67.3234   77.1838   87.5608 C   0  0  0  0  0  0  0  0  0  0  0  0
   66.8930   76.4780   88.6557 C   0  0  0  0  0  0  0  0  0  0  0  0
   66.6532   77.2450   89.8082 C   0  0  0  0  0  0  0  0  0  0  0  0
   66.8511   78.5503   89.7653 N   0  0  0  0  0  0  0  0  0  0  0  0
   67.8064   84.7377   89.2285 C   0  0  0  0  0  0  0  0  0  0  0  0
   67.6380   85.2496   90.3655 O   0  0  0  0  0  0  0  0  0  0  0  0
   67.4830   83.3858   88.9624 N   0  0  0  0  0  0  0  0  0  0  0  0
   67.6868   82.8424   87.6653 C   0  0  0  0  0  0  0  0  0  0  0  0
   67.3589   81.3932   87.5336 C   0  0  0  0  0  0  0  0  0  0  0  0
   67.4610   80.6388   88.7283 N   0  0  0  0  0  0  0  0  0  0  0  0
   67.7527   81.2598   89.9920 C   0  0  0  0  0  0  0  0  0  0  0  0
   66.9446   82.5644   90.0205 C   0  0  0  0  0  0  0  0  0  0  0  0
   68.3246   85.5532   88.2376 O   0  0  0  0  0  0  0  0  0  0  0  0
   70.0445   85.6144   86.6328 C   0  0  0  0  0  0  0  0  0  0  0  0
   69.6709   85.8890   88.0941 C   0  0  0  0  0  0  0  0  0  0  0  0
   70.5895   85.0536   88.9481 C   0  0  0  0  0  0  0  0  0  0  0  0
   69.9510   87.3444   88.3886 C   0  0  0  0  0  0  0  0  0  0  0  0
   66.6910   75.0111   88.6790 C   0  0  0  0  0  0  0  0  0  0  0  0
   67.7575   74.3327   89.1190 O   0  0  0  0  0  0  0  0  0  0  0  0
   68.3841   74.0369   90.2454 C   0  0  0  0  0  0  0  0  0  0  0  0
   68.5041   72.7702   90.7584 C   0  0  0  0  0  0  0  0  0  0  0  0
   69.1871   72.5400   91.9582 C   0  0  0  0  0  0  0  0  0  0  0  0
   69.7611   73.5668   92.6669 C   0  0  0  0  0  0  0  0  0  0  0  0
   70.4197   73.2953   93.8360 O   0  0  0  0  0  0  0  0  0  0  0  0
   69.6355   74.8294   92.1467 C   0  0  0  0  0  0  0  0  0  0  0  0
   68.9752   75.0957   90.9754 C   0  0  0  0  0  0  0  0  0  0  0  0
   70.4766   72.4135   94.1477 H   0  0  0  0  0  0  0  0  0  0  0  0
   70.2518   75.9381   92.9065 C   0  0  0  0  0  0  0  0  0  0  0  0
   71.1814   76.6326   92.4286 O   0  0  0  0  0  0  0  0  0  0  0  0
   69.8214   76.2558   94.1890 O   0  0  0  0  0  0  0  0  0  0  0  0
   69.1297   75.7641   94.5863 H   0  0  0  0  0  0  0  0  0  0  0  0
 16 17  1  0  0  0
 17 18  1  0  0  0
 17 19  1  0  0  0
 17 15  1  0  0  0
 15  7  1  0  0  0
  7  8  2  0  0  0
  7  9  1  0  0  0
  9 10  1  0  0  0
 10 11  1  0  0  0
 11 12  1  0  0  0
 12  1  1  0  0  0
  1  2  2  0  0  0
  2  3  2  0  0  0
  3  4  2  0  0  0
  4 20  1  0  0  0
 20 21  1  0  0  0
 21 22  1  0  0  0
 22 23  2  0  0  0
 23 24  1  0  0  0
 24 25  2  0  0  0
 25 26  1  0  0  0
 25 27  1  0  0  0
 27 30  1  0  0  0
 30 31  2  0  0  0
 30 32  1  0  0  0
 27 28  2  0  0  0
  4  5  1  0  0  0
  5  6  2  0  0  0
 12 13  1  0  0  0
 13 14  1  0  0  0
 14  9  1  0  0  0
  6  1  2  0  0  0
 28 22  1  0  0  0
 26 29  1  0  0  0
 32 33  1  0  0  0
M  END
> <score>
1.268036

> <minimizedAffinity>
-7.76446

> <CNNscore>
0.5411651731

> <CNNaffinity>
5.8595848083

> <CNN_VS>
3.1710033417

$$$$
HIPS7118


 33 35  0  0  0  0  0  0  0  0999 V2000
   67.9210   75.5571   90.6562 C   0  0  0  0  0  0  0  0  0  0  0  0
   67.9266   74.4848   89.8330 N   0  0  0  0  0  0  0  0  0  0  0  0
   68.0796   73.2396   90.3303 C   0  0  0  0  0  0  0  0  0  0  0  0
   68.2365   72.9792   91.6682 C   0  0  0  0  0  0  0  0  0  0  0  0
   68.2271   74.1081   92.5046 C   0  0  0  0  0  0  0  0  0  0  0  0
   68.0739   75.3053   91.9681 N   0  0  0  0  0  0  0  0  0  0  0  0
   67.3914   80.5628   88.3170 C   0  0  0  0  0  0  0  0  0  0  0  0
   67.2627   80.6318   87.0673 O   0  0  0  0  0  0  0  0  0  0  0  0
   67.7427   79.3555   88.9665 N   0  0  0  0  0  0  0  0  0  0  0  0
   67.8792   79.3159   90.3804 C   0  0  0  0  0  0  0  0  0  0  0  0
   68.1968   77.9713   90.9427 C   0  0  0  0  0  0  0  0  0  0  0  0
   67.7628   76.8714   90.1625 N   0  0  0  0  0  0  0  0  0  0  0  0
   67.1595   77.0525   88.8699 C   0  0  0  0  0  0  0  0  0  0  0  0
   67.9606   78.1648   88.1796 C   0  0  0  0  0  0  0  0  0  0  0  0
   67.1749   81.7225   89.0406 O   0  0  0  0  0  0  0  0  0  0  0  0
   67.7330   83.6321   90.2973 C   0  0  0  0  0  0  0  0  0  0  0  0
   67.9792   82.8614   88.9951 C   0  0  0  0  0  0  0  0  0  0  0  0
   67.6346   83.7915   87.8607 C   0  0  0  0  0  0  0  0  0  0  0  0
   69.4532   82.5401   88.9071 C   0  0  0  0  0  0  0  0  0  0  0  0
   68.4186   71.6260   92.2414 C   0  0  0  0  0  0  0  0  0  0  0  0
   69.6384   71.4234   92.7535 O   0  0  0  0  0  0  0  0  0  0  0  0
   70.7494   70.7501   92.5056 C   0  0  0  0  0  0  0  0  0  0  0  0
   70.8328   69.6726   91.6606 C   0  0  0  0  0  0  0  0  0  0  0  0
   72.0499   69.0145   91.4495 C   0  0  0  0  0  0  0  0  0  0  0  0
   73.2033   69.4180   92.0764 C   0  0  0  0  0  0  0  0  0  0  0  0
   74.3717   68.7447   91.8402 O   0  0  0  0  0  0  0  0  0  0  0  0
   73.1100   70.4955   92.9195 C   0  0  0  0  0  0  0  0  0  0  0  0
   71.9376   71.1664   93.1523 C   0  0  0  0  0  0  0  0  0  0  0  0
   74.3809   68.0137   91.2541 H   0  0  0  0  0  0  0  0  0  0  0  0
   74.3493   70.9334   93.5969 C   0  0  0  0  0  0  0  0  0  0  0  0
   74.4326   71.0006   94.8473 O   0  0  0  0  0  0  0  0  0  0  0  0
   75.4778   71.2901   92.8688 O   0  0  0  0  0  0  0  0  0  0  0  0
   75.4616   71.2553   91.9325 H   0  0  0  0  0  0  0  0  0  0  0  0
 16 17  1  0  0  0
 17 18  1  0  0  0
 17 19  1  0  0  0
 17 15  1  0  0  0
 15  7  1  0  0  0
  7  8  2  0  0  0
  7  9  1  0  0  0
  9 10  1  0  0  0
 10 11  1  0  0  0
 11 12  1  0  0  0
 12  1  1  0  0  0
  1  2  2  0  0  0
  2  3  2  0  0  0
  3  4  2  0  0  0
  4 20  1  0  0  0
 20 21  1  0  0  0
 21 22  1  0  0  0
 22 23  2  0  0  0
 23 24  1  0  0  0
 24 25  2  0  0  0
 25 26  1  0  0  0
 25 27  1  0  0  0
 27 30  1  0  0  0
 30 31  2  0  0  0
 30 32  1  0  0  0
 27 28  2  0  0  0
  4  5  1  0  0  0
  5  6  2  0  0  0
 12 13  1  0  0  0
 13 14  1  0  0  0
 14  9  1  0  0  0
  6  1  2  0  0  0
 28 22  1  0  0  0
 26 29  1  0  0  0
 32 33  1  0  0  0
M  END
> <score>
1.268036

> <minimizedAffinity>
-6.88945

> <CNNscore>
0.4811254144

> <CNNaffinity>
5.4016723633

> <CNN_VS>
2.5988819599

$$$$
HIPS7118


 33 35  0  0  0  0  0  0  0  0999 V2000
   66.9697   79.3065   92.1163 C   0  0  0  0  0  0  0  0  0  0  0  0
   67.4058   78.0844   91.7369 N   0  0  0  0  0  0  0  0  0  0  0  0
   66.9971   76.9771   92.3914 C   0  0  0  0  0  0  0  0  0  0  0  0
   66.1352   77.0104   93.4584 C   0  0  0  0  0  0  0  0  0  0  0  0
   65.6950   78.2906   93.8347 C   0  0  0  0  0  0  0  0  0  0  0  0
   66.1244   79.3426   93.1613 N   0  0  0  0  0  0  0  0  0  0  0  0
   68.2024   84.1031   89.6098 C   0  0  0  0  0  0  0  0  0  0  0  0
   67.5215   85.1222   89.8942 O   0  0  0  0  0  0  0  0  0  0  0  0
   67.8232   82.8082   90.0369 N   0  0  0  0  0  0  0  0  0  0  0  0
   68.6175   81.6802   89.6962 C   0  0  0  0  0  0  0  0  0  0  0  0
   68.1379   80.3832   90.2554 C   0  0  0  0  0  0  0  0  0  0  0  0
   67.3814   80.4819   91.4491 N   0  0  0  0  0  0  0  0  0  0  0  0
   67.0155   81.7546   92.0094 C   0  0  0  0  0  0  0  0  0  0  0  0
   66.6227   82.6440   90.8218 C   0  0  0  0  0  0  0  0  0  0  0  0
   69.3471   84.2965   88.8566 O   0  0  0  0  0  0  0  0  0  0  0  0
   70.5447   83.8097   86.8902 C   0  0  0  0  0  0  0  0  0  0  0  0
   69.3730   84.5930   87.4936 C   0  0  0  0  0  0  0  0  0  0  0  0
   69.6217   86.0507   87.2037 C   0  0  0  0  0  0  0  0  0  0  0  0
   68.1089   84.1808   86.7757 C   0  0  0  0  0  0  0  0  0  0  0  0
   65.6793   75.8145   94.2032 C   0  0  0  0  0  0  0  0  0  0  0  0
   66.3190   74.6922   93.8533 O   0  0  0  0  0  0  0  0  0  0  0  0
   67.5010   74.1119   93.9756 C   0  0  0  0  0  0  0  0  0  0  0  0
   68.4241   74.4247   94.9410 C   0  0  0  0  0  0  0  0  0  0  0  0
   69.6545   73.7605   95.0043 C   0  0  0  0  0  0  0  0  0  0  0  0
   69.9860   72.7747   94.1074 C   0  0  0  0  0  0  0  0  0  0  0  0
   71.2009   72.1514   94.2070 O   0  0  0  0  0  0  0  0  0  0  0  0
   69.0573   72.4692   93.1458 C   0  0  0  0  0  0  0  0  0  0  0  0
   67.8421   73.0962   93.0507 C   0  0  0  0  0  0  0  0  0  0  0  0
   71.8000   72.3983   94.8839 H   0  0  0  0  0  0  0  0  0  0  0  0
   69.4100   71.4086   92.1778 C   0  0  0  0  0  0  0  0  0  0  0  0
   69.3360   71.5914   90.9385 O   0  0  0  0  0  0  0  0  0  0  0  0
   69.8401   70.1590   92.6072 O   0  0  0  0  0  0  0  0  0  0  0  0
   69.9107   69.9772   93.5237 H   0  0  0  0  0  0  0  0  0  0  0  0
 16 17  1  0  0  0
 17 18  1  0  0  0
 17 19  1  0  0  0
 17 15  1  0  0  0
 15  7  1  0  0  0
  7  8  2  0  0  0
  7  9  1  0  0  0
  9 10  1  0  0  0
 10 11  1  0  0  0
 11 12  1  0  0  0
 12  1  1  0  0  0
  1  2  2  0  0  0
  2  3  2  0  0  0
  3  4  2  0  0  0
  4 20  1  0  0  0
 20 21  1  0  0  0
 21 22  1  0  0  0
 22 23  2  0  0  0
 23 24  1  0  0  0
 24 25  2  0  0  0
 25 26  1  0  0  0
 25 27  1  0  0  0
 27 30  1  0  0  0
 30 31  2  0  0  0
 30 32  1  0  0  0
 27 28  2  0  0  0
  4  5  1  0  0  0
  5  6  2  0  0  0
 12 13  1  0  0  0
 13 14  1  0  0  0
 14  9  1  0  0  0
  6  1  2  0  0  0
 28 22  1  0  0  0
 26 29  1  0  0  0
 32 33  1  0  0  0
M  END
> <score>
1.268036

> <minimizedAffinity>
-7.47565

> <CNNscore>
0.3900072873

> <CNNaffinity>
5.6151504517

> <CNN_VS>
2.1899495125

$$$$
HIPS7123


 29 31  0  0  0  0  0  0  0  0999 V2000
   67.1805   75.1799   86.3834 C   0  0  0  0  0  0  0  0  0  0  0  0
   67.6469   75.8924   85.2622 C   0  0  0  0  0  0  0  0  0  0  0  0
   67.8095   77.2786   85.3217 C   0  0  0  0  0  0  0  0  0  0  0  0
   67.5049   77.9733   86.4931 C   0  0  0  0  0  0  0  0  0  0  0  0
   67.0228   77.2855   87.6161 C   0  0  0  0  0  0  0  0  0  0  0  0
   66.8739   75.8903   87.5587 C   0  0  0  0  0  0  0  0  0  0  0  0
   67.0073   71.6347   85.7822 C   0  0  0  0  0  0  0  0  0  0  0  0
   67.3890   72.8967   85.3698 C   0  0  0  0  0  0  0  0  0  0  0  0
   67.0043   73.7495   86.3398 N   0  0  0  0  0  0  0  0  0  0  0  0
   66.4269   73.0418   87.2997 N   0  0  0  0  0  0  0  0  0  0  0  0
   66.4171   71.7538   86.9900 N   0  0  0  0  0  0  0  0  0  0  0  0
   68.6414   70.3469   84.3700 C   0  0  0  0  0  0  0  0  0  0  0  0
   67.2609   70.3249   85.0584 C   0  0  0  0  0  0  0  0  0  0  0  0
   67.2261   69.1612   86.0682 C   0  0  0  0  0  0  0  0  0  0  0  0
   66.1695   70.1170   83.9921 C   0  0  0  0  0  0  0  0  0  0  0  0
   66.7056   78.0286   88.8876 C   0  0  0  0  0  0  0  0  0  0  0  0
   67.8161   78.8245   89.3039 O   0  0  0  0  0  0  0  0  0  0  0  0
   68.9781   78.3357   89.9232 C   0  0  0  0  0  0  0  0  0  0  0  0
   70.2027   79.0235   89.8871 C   0  0  0  0  0  0  0  0  0  0  0  0
   71.3216   78.5000   90.5354 C   0  0  0  0  0  0  0  0  0  0  0  0
   71.2444   77.2876   91.2291 C   0  0  0  0  0  0  0  0  0  0  0  0
   72.3784   76.8621   91.9241 O   0  0  0  0  0  0  0  0  0  0  0  0
   70.0291   76.5606   91.2344 C   0  0  0  0  0  0  0  0  0  0  0  0
   68.9036   77.1103   90.5935 C   0  0  0  0  0  0  0  0  0  0  0  0
   73.1641   77.3718   91.8955 H   0  0  0  0  0  0  0  0  0  0  0  0
   69.9074   75.2248   91.8584 C   0  0  0  0  0  0  0  0  0  0  0  0
   70.2587   75.0548   93.0572 O   0  0  0  0  0  0  0  0  0  0  0  0
   69.3506   74.1615   91.1535 O   0  0  0  0  0  0  0  0  0  0  0  0
   69.0862   74.2775   90.2621 H   0  0  0  0  0  0  0  0  0  0  0  0
 12 13  1  0  0  0
 13 14  1  0  0  0
 13 15  1  0  0  0
 13  7  1  0  0  0
  7  8  2  0  0  0
  8  9  1  0  0  0
  9  1  1  0  0  0
  1  2  2  0  0  0
  2  3  1  0  0  0
  3  4  2  0  0  0
  4  5  1  0  0  0
  5 16  1  0  0  0
 16 17  1  0  0  0
 17 18  1  0  0  0
 18 19  2  0  0  0
 19 20  1  0  0  0
 20 21  2  0  0  0
 21 22  1  0  0  0
 21 23  1  0  0  0
 23 26  1  0  0  0
 26 27  2  0  0  0
 26 28  1  0  0  0
 23 24  2  0  0  0
  5  6  2  0  0  0
  9 10  1  0  0  0
 10 11  2  0  0  0
 11  7  2  0  0  0
  6  1  1  0  0  0
 24 18  1  0  0  0
 22 25  1  0  0  0
 28 29  1  0  0  0
M  END
> <score>
0.324942

> <minimizedAffinity>
-6.91434

> <CNNscore>
0.6858423948

> <CNNaffinity>
6.1815729141

> <CNN_VS>
4.2395849228

$$$$
HIPS7123


 29 31  0  0  0  0  0  0  0  0999 V2000
   69.7716   80.9435   89.9213 C   0  0  0  0  0  0  0  0  0  0  0  0
   70.9043   80.1141   90.0270 C   0  0  0  0  0  0  0  0  0  0  0  0
   70.7587   78.7356   90.2005 C   0  0  0  0  0  0  0  0  0  0  0  0
   69.4869   78.1664   90.2769 C   0  0  0  0  0  0  0  0  0  0  0  0
   68.3452   78.9762   90.1911 C   0  0  0  0  0  0  0  0  0  0  0  0
   68.4938   80.3598   90.0023 C   0  0  0  0  0  0  0  0  0  0  0  0
   70.3326   84.3745   88.9866 C   0  0  0  0  0  0  0  0  0  0  0  0
   70.4424   83.0275   88.7003 C   0  0  0  0  0  0  0  0  0  0  0  0
   69.9024   82.3686   89.7445 N   0  0  0  0  0  0  0  0  0  0  0  0
   69.4754   83.2685   90.6181 N   0  0  0  0  0  0  0  0  0  0  0  0
   69.7204   84.4957   90.1833 N   0  0  0  0  0  0  0  0  0  0  0  0
   70.2701   85.3011   86.6499 C   0  0  0  0  0  0  0  0  0  0  0  0
   70.7511   85.5313   88.0976 C   0  0  0  0  0  0  0  0  0  0  0  0
   70.1318   86.8398   88.6263 C   0  0  0  0  0  0  0  0  0  0  0  0
   72.2867   85.6457   88.1060 C   0  0  0  0  0  0  0  0  0  0  0  0
   66.9698   78.3652   90.2591 C   0  0  0  0  0  0  0  0  0  0  0  0
   66.4400   78.4473   91.5830 O   0  0  0  0  0  0  0  0  0  0  0  0
   66.6853   77.5256   92.6139 C   0  0  0  0  0  0  0  0  0  0  0  0
   65.6533   76.8651   93.3014 C   0  0  0  0  0  0  0  0  0  0  0  0
   65.9550   75.9450   94.3058 C   0  0  0  0  0  0  0  0  0  0  0  0
   67.2833   75.6652   94.6441 C   0  0  0  0  0  0  0  0  0  0  0  0
   67.5166   74.6745   95.6002 O   0  0  0  0  0  0  0  0  0  0  0  0
   68.3323   76.3579   93.9919 C   0  0  0  0  0  0  0  0  0  0  0  0
   68.0140   77.2681   92.9673 C   0  0  0  0  0  0  0  0  0  0  0  0
   66.7948   74.2391   96.0093 H   0  0  0  0  0  0  0  0  0  0  0  0
   69.7515   76.1876   94.3729 C   0  0  0  0  0  0  0  0  0  0  0  0
   70.6633   76.6193   93.6168 O   0  0  0  0  0  0  0  0  0  0  0  0
   70.0936   75.6072   95.5910 O   0  0  0  0  0  0  0  0  0  0  0  0
   69.4234   75.2832   96.1602 H   0  0  0  0  0  0  0  0  0  0  0  0
 12 13  1  0  0  0
 13 14  1  0  0  0
 13 15  1  0  0  0
 13  7  1  0  0  0
  7  8  2  0  0  0
  8  9  1  0  0  0
  9  1  1  0  0  0
  1  2  2  0  0  0
  2  3  1  0  0  0
  3  4  2  0  0  0
  4  5  1  0  0  0
  5 16  1  0  0  0
 16 17  1  0  0  0
 17 18  1  0  0  0
 18 19  2  0  0  0
 19 20  1  0  0  0
 20 21  2  0  0  0
 21 22  1  0  0  0
 21 23  1  0  0  0
 23 26  1  0  0  0
 26 27  2  0  0  0
 26 28  1  0  0  0
 23 24  2  0  0  0
  5  6  2  0  0  0
  9 10  1  0  0  0
 10 11  2  0  0  0
 11  7  2  0  0  0
  6  1  1  0  0  0
 24 18  1  0  0  0
 22 25  1  0  0  0
 28 29  1  0  0  0
M  END
> <score>
0.324942

> <minimizedAffinity>
-7.34743

> <CNNscore>
0.5949292779

> <CNNaffinity>
5.8788480759

> <CNN_VS>
3.4974987507

$$$$
HIPS7123


 29 31  0  0  0  0  0  0  0  0999 V2000
   67.1768   80.8787   90.8203 C   0  0  0  0  0  0  0  0  0  0  0  0
   65.9733   81.0556   90.1115 C   0  0  0  0  0  0  0  0  0  0  0  0
   64.7647   80.5989   90.6431 C   0  0  0  0  0  0  0  0  0  0  0  0
   64.7390   79.9562   91.8815 C   0  0  0  0  0  0  0  0  0  0  0  0
   65.9283   79.7543   92.5965 C   0  0  0  0  0  0  0  0  0  0  0  0
   67.1400   80.2271   92.0669 C   0  0  0  0  0  0  0  0  0  0  0  0
   70.0435   82.5122   89.3805 C   0  0  0  0  0  0  0  0  0  0  0  0
   68.7084   82.5396   89.7344 C   0  0  0  0  0  0  0  0  0  0  0  0
   68.4337   81.3413   90.2863 N   0  0  0  0  0  0  0  0  0  0  0  0
   69.5476   80.6237   90.2789 N   0  0  0  0  0  0  0  0  0  0  0  0
   70.5428   81.3102   89.7374 N   0  0  0  0  0  0  0  0  0  0  0  0
   72.3206   83.5656   89.2126 C   0  0  0  0  0  0  0  0  0  0  0  0
   70.8459   83.6448   88.7663 C   0  0  0  0  0  0  0  0  0  0  0  0
   70.7845   83.5476   87.2295 C   0  0  0  0  0  0  0  0  0  0  0  0
   70.2528   84.9904   89.2233 C   0  0  0  0  0  0  0  0  0  0  0  0
   65.9043   79.0735   93.9402 C   0  0  0  0  0  0  0  0  0  0  0  0
   65.3466   77.7626   93.8379 O   0  0  0  0  0  0  0  0  0  0  0  0
   66.0662   76.5626   93.9607 C   0  0  0  0  0  0  0  0  0  0  0  0
   65.7594   75.5906   94.9277 C   0  0  0  0  0  0  0  0  0  0  0  0
   66.4965   74.4078   94.9931 C   0  0  0  0  0  0  0  0  0  0  0  0
   67.5482   74.1702   94.1018 C   0  0  0  0  0  0  0  0  0  0  0  0
   68.1908   72.9322   94.1685 O   0  0  0  0  0  0  0  0  0  0  0  0
   67.8985   75.1611   93.1525 C   0  0  0  0  0  0  0  0  0  0  0  0
   67.1338   76.3402   93.0847 C   0  0  0  0  0  0  0  0  0  0  0  0
   67.9295   72.3028   94.8116 H   0  0  0  0  0  0  0  0  0  0  0  0
   69.0634   75.0192   92.2518 C   0  0  0  0  0  0  0  0  0  0  0  0
   68.9689   75.3579   91.0412 O   0  0  0  0  0  0  0  0  0  0  0  0
   70.2870   74.5705   92.7410 O   0  0  0  0  0  0  0  0  0  0  0  0
   70.3676   74.3165   93.6393 H   0  0  0  0  0  0  0  0  0  0  0  0
 12 13  1  0  0  0
 13 14  1  0  0  0
 13 15  1  0  0  0
 13  7  1  0  0  0
  7  8  2  0  0  0
  8  9  1  0  0  0
  9  1  1  0  0  0
  1  2  2  0  0  0
  2  3  1  0  0  0
  3  4  2  0  0  0
  4  5  1  0  0  0
  5 16  1  0  0  0
 16 17  1  0  0  0
 17 18  1  0  0  0
 18 19  2  0  0  0
 19 20  1  0  0  0
 20 21  2  0  0  0
 21 22  1  0  0  0
 21 23  1  0  0  0
 23 26  1  0  0  0
 26 27  2  0  0  0
 26 28  1  0  0  0
 23 24  2  0  0  0
  5  6  2  0  0  0
  9 10  1  0  0  0
 10 11  2  0  0  0
 11  7  2  0  0  0
  6  1  1  0  0  0
 24 18  1  0  0  0
 22 25  1  0  0  0
 28 29  1  0  0  0
M  END
> <score>
0.324942

> <minimizedAffinity>
-7.32045

> <CNNscore>
0.5922830105

> <CNNaffinity>
5.9669055939

> <CNN_VS>
3.5340967178

$$$$
HIPS7124


 31 34  0  0  0  0  0  0  0  0999 V2000
   65.4793   79.5666   92.7469 C   0  0  0  0  0  0  0  0  0  0  0  0
   64.3536   79.9280   92.0609 C   0  0  0  0  0  0  0  0  0  0  0  0
   64.4695   80.6488   90.8658 C   0  0  0  0  0  0  0  0  0  0  0  0
   65.7236   80.9839   90.3979 C   0  0  0  0  0  0  0  0  0  0  0  0
   66.8799   80.6349   91.0648 C   0  0  0  0  0  0  0  0  0  0  0  0
   66.7370   79.9254   92.2391 C   0  0  0  0  0  0  0  0  0  0  0  0
   68.1785   80.9780   90.5863 N   0  0  0  0  0  0  0  0  0  0  0  0
   68.6045   82.2209   90.2285 C   0  0  0  0  0  0  0  0  0  0  0  0
   69.9057   82.1298   89.8263 C   0  0  0  0  0  0  0  0  0  0  0  0
   70.2593   80.8586   89.9385 N   0  0  0  0  0  0  0  0  0  0  0  0
   69.2203   80.1877   90.3918 N   0  0  0  0  0  0  0  0  0  0  0  0
   70.7960   83.2291   89.3447 C   0  0  0  0  0  0  0  0  0  0  0  0
   72.2251   82.9039   89.7333 C   0  0  0  0  0  0  0  0  0  0  0  0
   73.1352   83.8454   88.9616 C   0  0  0  0  0  0  0  0  0  0  0  0
   72.3992   85.0727   88.4842 C   0  0  0  0  0  0  0  0  0  0  0  0
   71.2987   84.7464   87.5085 C   0  0  0  0  0  0  0  0  0  0  0  0
   70.7630   83.3559   87.8394 C   0  0  0  0  0  0  0  0  0  0  0  0
   65.3957   78.8135   94.0201 C   0  0  0  0  0  0  0  0  0  0  0  0
   65.4030   77.4770   93.8727 O   0  0  0  0  0  0  0  0  0  0  0  0
   68.3031   75.2974   93.8281 C   0  0  0  0  0  0  0  0  0  0  0  0
   67.4962   76.3801   93.6283 C   0  0  0  0  0  0  0  0  0  0  0  0
   66.1613   76.3933   94.0917 C   0  0  0  0  0  0  0  0  0  0  0  0
   65.7444   75.2538   94.7466 C   0  0  0  0  0  0  0  0  0  0  0  0
   66.5609   74.1719   94.9428 C   0  0  0  0  0  0  0  0  0  0  0  0
   67.8529   74.1661   94.4914 C   0  0  0  0  0  0  0  0  0  0  0  0
   68.6909   73.0804   94.6819 O   0  0  0  0  0  0  0  0  0  0  0  0
   68.3779   72.3201   95.1313 H   0  0  0  0  0  0  0  0  0  0  0  0
   70.1382   74.2954   92.7551 O   0  0  0  0  0  0  0  0  0  0  0  0
   69.6846   75.3031   93.3399 C   0  0  0  0  0  0  0  0  0  0  0  0
   70.4662   76.4196   93.5318 O   0  0  0  0  0  0  0  0  0  0  0  0
   70.1139   77.1681   93.9716 H   0  0  0  0  0  0  0  0  0  0  0  0
 28 29  2  0  0  0
 29 30  1  0  0  0
 29 20  1  0  0  0
 20 21  2  0  0  0
 21 22  1  0  0  0
 22 19  1  0  0  0
 19 18  1  0  0  0
 18  1  1  0  0  0
  1  2  2  0  0  0
  2  3  1  0  0  0
  3  4  2  0  0  0
  4  5  1  0  0  0
  5  7  1  0  0  0
  7  8  1  0  0  0
  8  9  2  0  0  0
  9 12  1  0  0  0
 12 13  1  0  0  0
 13 14  1  0  0  0
 14 15  1  0  0  0
 15 16  1  0  0  0
 16 17  1  0  0  0
  9 10  2  0  0  0
 10 11  2  0  0  0
  5  6  2  0  0  0
 22 23  2  0  0  0
 23 24  1  0  0  0
 24 25  2  0  0  0
 25 26  1  0  0  0
 25 20  1  0  0  0
  6  1  1  0  0  0
 11  7  1  0  0  0
 17 12  1  0  0  0
 30 31  1  0  0  0
 26 27  1  0  0  0
M  END
> <score>
0.080021

> <minimizedAffinity>
-8.54419

> <CNNscore>
0.7541215420

> <CNNaffinity>
6.2846450806

> <CNN_VS>
4.7393860817

$$$$
HIPS7124


 31 34  0  0  0  0  0  0  0  0999 V2000
   66.8321   78.2405   88.3259 C   0  0  0  0  0  0  0  0  0  0  0  0
   67.2120   78.7969   87.1365 C   0  0  0  0  0  0  0  0  0  0  0  0
   67.4864   77.9712   86.0392 C   0  0  0  0  0  0  0  0  0  0  0  0
   67.3682   76.6033   86.1768 C   0  0  0  0  0  0  0  0  0  0  0  0
   66.9870   76.0090   87.3622 C   0  0  0  0  0  0  0  0  0  0  0  0
   66.7228   76.8455   88.4268 C   0  0  0  0  0  0  0  0  0  0  0  0
   66.8629   74.5963   87.5106 N   0  0  0  0  0  0  0  0  0  0  0  0
   67.0118   73.6654   86.5281 C   0  0  0  0  0  0  0  0  0  0  0  0
   66.8144   72.4298   87.0735 C   0  0  0  0  0  0  0  0  0  0  0  0
   66.5518   72.6096   88.3589 N   0  0  0  0  0  0  0  0  0  0  0  0
   66.5846   73.9038   88.6018 N   0  0  0  0  0  0  0  0  0  0  0  0
   66.8743   71.1038   86.3870 C   0  0  0  0  0  0  0  0  0  0  0  0
   67.0495   71.3335   84.8985 C   0  0  0  0  0  0  0  0  0  0  0  0
   67.4347   70.0034   84.2719 C   0  0  0  0  0  0  0  0  0  0  0  0
   67.0446   68.8369   85.1454 C   0  0  0  0  0  0  0  0  0  0  0  0
   67.7619   68.8385   86.4701 C   0  0  0  0  0  0  0  0  0  0  0  0
   68.0569   70.2865   86.8525 C   0  0  0  0  0  0  0  0  0  0  0  0
   66.5444   79.0814   89.5114 C   0  0  0  0  0  0  0  0  0  0  0  0
   67.5262   79.0951   90.4301 O   0  0  0  0  0  0  0  0  0  0  0  0
   70.0080   76.9329   91.9562 C   0  0  0  0  0  0  0  0  0  0  0  0
   68.8092   77.5066   91.6446 C   0  0  0  0  0  0  0  0  0  0  0  0
   68.7239   78.5592   90.7056 C   0  0  0  0  0  0  0  0  0  0  0  0
   69.9177   78.9547   90.1406 C   0  0  0  0  0  0  0  0  0  0  0  0
   71.1162   78.3734   90.4591 C   0  0  0  0  0  0  0  0  0  0  0  0
   71.1914   77.3541   91.3693 C   0  0  0  0  0  0  0  0  0  0  0  0
   72.3951   76.7559   91.7020 O   0  0  0  0  0  0  0  0  0  0  0  0
   73.1899   77.0472   91.3001 H   0  0  0  0  0  0  0  0  0  0  0  0
   70.3629   74.6871   92.5507 O   0  0  0  0  0  0  0  0  0  0  0  0
   70.0757   75.8424   92.9326 C   0  0  0  0  0  0  0  0  0  0  0  0
   69.8216   76.1046   94.2596 O   0  0  0  0  0  0  0  0  0  0  0  0
   69.6074   76.9750   94.5325 H   0  0  0  0  0  0  0  0  0  0  0  0
 28 29  2  0  0  0
 29 30  1  0  0  0
 29 20  1  0  0  0
 20 21  2  0  0  0
 21 22  1  0  0  0
 22 19  1  0  0  0
 19 18  1  0  0  0
 18  1  1  0  0  0
  1  2  2  0  0  0
  2  3  1  0  0  0
  3  4  2  0  0  0
  4  5  1  0  0  0
  5  7  1  0  0  0
  7  8  1  0  0  0
  8  9  2  0  0  0
  9 12  1  0  0  0
 12 13  1  0  0  0
 13 14  1  0  0  0
 14 15  1  0  0  0
 15 16  1  0  0  0
 16 17  1  0  0  0
  9 10  2  0  0  0
 10 11  2  0  0  0
  5  6  2  0  0  0
 22 23  2  0  0  0
 23 24  1  0  0  0
 24 25  2  0  0  0
 25 26  1  0  0  0
 25 20  1  0  0  0
  6  1  1  0  0  0
 11  7  1  0  0  0
 17 12  1  0  0  0
 30 31  1  0  0  0
 26 27  1  0  0  0
M  END
> <score>
0.080021

> <minimizedAffinity>
-8.12094

> <CNNscore>
0.7457546592

> <CNNaffinity>
6.4300508499

> <CNN_VS>
4.7952404022

$$$$
HIPS7124


 31 34  0  0  0  0  0  0  0  0999 V2000
   66.8915   77.9103   90.0581 C   0  0  0  0  0  0  0  0  0  0  0  0
   66.8601   78.7423   88.9740 C   0  0  0  0  0  0  0  0  0  0  0  0
   66.8488   78.2010   87.6826 C   0  0  0  0  0  0  0  0  0  0  0  0
   66.8694   76.8304   87.5244 C   0  0  0  0  0  0  0  0  0  0  0  0
   66.9009   75.9621   88.5963 C   0  0  0  0  0  0  0  0  0  0  0  0
   66.9114   76.5220   89.8569 C   0  0  0  0  0  0  0  0  0  0  0  0
   66.9221   74.5451   88.4394 N   0  0  0  0  0  0  0  0  0  0  0  0
   66.8965   73.8631   87.2611 C   0  0  0  0  0  0  0  0  0  0  0  0
   66.9302   72.5267   87.5375 C   0  0  0  0  0  0  0  0  0  0  0  0
   66.9753   72.4032   88.8551 N   0  0  0  0  0  0  0  0  0  0  0  0
   66.9698   73.6131   89.3758 N   0  0  0  0  0  0  0  0  0  0  0  0
   66.9198   71.3891   86.5686 C   0  0  0  0  0  0  0  0  0  0  0  0
   67.2503   71.9221   85.1881 C   0  0  0  0  0  0  0  0  0  0  0  0
   67.5565   70.7291   84.2976 C   0  0  0  0  0  0  0  0  0  0  0  0
   66.9756   69.4514   84.8506 C   0  0  0  0  0  0  0  0  0  0  0  0
   67.5673   69.0742   86.1836 C   0  0  0  0  0  0  0  0  0  0  0  0
   67.9688   70.3560   86.9086 C   0  0  0  0  0  0  0  0  0  0  0  0
   66.9156   78.4467   91.4390 C   0  0  0  0  0  0  0  0  0  0  0  0
   67.5169   77.6426   92.3334 O   0  0  0  0  0  0  0  0  0  0  0  0
   68.0533   74.6418   94.3008 C   0  0  0  0  0  0  0  0  0  0  0  0
   68.2652   75.6741   93.4332 C   0  0  0  0  0  0  0  0  0  0  0  0
   67.2674   76.6460   93.1947 C   0  0  0  0  0  0  0  0  0  0  0  0
   66.0887   76.4758   93.8895 C   0  0  0  0  0  0  0  0  0  0  0  0
   65.8847   75.4369   94.7583 C   0  0  0  0  0  0  0  0  0  0  0  0
   66.8556   74.4993   94.9847 C   0  0  0  0  0  0  0  0  0  0  0  0
   66.6650   73.4434   95.8598 O   0  0  0  0  0  0  0  0  0  0  0  0
   65.8522   73.3552   96.3176 H   0  0  0  0  0  0  0  0  0  0  0  0
   69.0072   72.5141   94.0080 O   0  0  0  0  0  0  0  0  0  0  0  0
   69.1006   73.6441   94.5347 C   0  0  0  0  0  0  0  0  0  0  0  0
   70.1753   73.9645   95.3326 O   0  0  0  0  0  0  0  0  0  0  0  0
   70.2332   74.8150   95.7213 H   0  0  0  0  0  0  0  0  0  0  0  0
 28 29  2  0  0  0
 29 30  1  0  0  0
 29 20  1  0  0  0
 20 21  2  0  0  0
 21 22  1  0  0  0
 22 19  1  0  0  0
 19 18  1  0  0  0
 18  1  1  0  0  0
  1  2  2  0  0  0
  2  3  1  0  0  0
  3  4  2  0  0  0
  4  5  1  0  0  0
  5  7  1  0  0  0
  7  8  1  0  0  0
  8  9  2  0  0  0
  9 12  1  0  0  0
 12 13  1  0  0  0
 13 14  1  0  0  0
 14 15  1  0  0  0
 15 16  1  0  0  0
 16 17  1  0  0  0
  9 10  2  0  0  0
 10 11  2  0  0  0
  5  6  2  0  0  0
 22 23  2  0  0  0
 23 24  1  0  0  0
 24 25  2  0  0  0
 25 26  1  0  0  0
 25 20  1  0  0  0
  6  1  1  0  0  0
 11  7  1  0  0  0
 17 12  1  0  0  0
 30 31  1  0  0  0
 26 27  1  0  0  0
M  END
> <score>
0.080021

> <minimizedAffinity>
-8.51883

> <CNNscore>
0.6715906262

> <CNNaffinity>
6.4303741455

> <CNN_VS>
4.3185791969

$$$$
HIPS7125


 30 33  0  0  0  0  0  0  0  0999 V2000
   66.6145   79.8381   89.9762 C   0  0  0  0  0  0  0  0  0  0  0  0
   66.3977   78.7553   89.1152 C   0  0  0  0  0  0  0  0  0  0  0  0
   66.6171   78.9191   87.7751 C   0  0  0  0  0  0  0  0  0  0  0  0
   67.0465   80.1223   87.2465 C   0  0  0  0  0  0  0  0  0  0  0  0
   67.2652   81.1990   88.0784 C   0  0  0  0  0  0  0  0  0  0  0  0
   67.0389   81.0253   89.4506 C   0  0  0  0  0  0  0  0  0  0  0  0
   67.7059   82.4640   87.6077 N   0  0  0  0  0  0  0  0  0  0  0  0
   68.9596   82.9262   87.4064 C   0  0  0  0  0  0  0  0  0  0  0  0
   68.9095   84.2231   86.9374 C   0  0  0  0  0  0  0  0  0  0  0  0
   67.6006   84.5133   86.8674 N   0  0  0  0  0  0  0  0  0  0  0  0
   66.8958   83.4529   87.2710 N   0  0  0  0  0  0  0  0  0  0  0  0
   70.0751   85.0765   86.5966 C   0  0  0  0  0  0  0  0  0  0  0  0
   71.3562   84.5010   87.1616 C   0  0  0  0  0  0  0  0  0  0  0  0
   71.4235   85.0329   88.5868 C   0  0  0  0  0  0  0  0  0  0  0  0
   70.6532   86.3128   88.5685 C   0  0  0  0  0  0  0  0  0  0  0  0
   69.9533   86.4287   87.2541 C   0  0  0  0  0  0  0  0  0  0  0  0
   66.3995   79.6376   91.4214 C   0  0  0  0  0  0  0  0  0  0  0  0
   66.5482   78.4006   91.9345 O   0  0  0  0  0  0  0  0  0  0  0  0
   69.7659   76.8006   91.9338 C   0  0  0  0  0  0  0  0  0  0  0  0
   68.8035   77.7524   91.8035 C   0  0  0  0  0  0  0  0  0  0  0  0
   67.4684   77.4349   92.0735 C   0  0  0  0  0  0  0  0  0  0  0  0
   67.1760   76.1330   92.4721 C   0  0  0  0  0  0  0  0  0  0  0  0
   68.1778   75.1857   92.5956 C   0  0  0  0  0  0  0  0  0  0  0  0
   69.4726   75.5079   92.3297 C   0  0  0  0  0  0  0  0  0  0  0  0
   70.4656   74.5488   92.4577 O   0  0  0  0  0  0  0  0  0  0  0  0
   70.2449   73.6790   92.7273 H   0  0  0  0  0  0  0  0  0  0  0  0
   72.0417   77.0561   92.5575 O   0  0  0  0  0  0  0  0  0  0  0  0
   71.1723   77.1299   91.6508 C   0  0  0  0  0  0  0  0  0  0  0  0
   71.5856   77.5257   90.4021 O   0  0  0  0  0  0  0  0  0  0  0  0
   70.9658   77.5919   89.7026 H   0  0  0  0  0  0  0  0  0  0  0  0
 27 28  2  0  0  0
 28 29  1  0  0  0
 28 19  1  0  0  0
 19 20  2  0  0  0
 20 21  1  0  0  0
 21 18  1  0  0  0
 18 17  1  0  0  0
 17  1  1  0  0  0
  1  2  2  0  0  0
  2  3  1  0  0  0
  3  4  2  0  0  0
  4  5  1  0  0  0
  5  7  1  0  0  0
  7  8  1  0  0  0
  8  9  2  0  0  0
  9 12  1  0  0  0
 12 13  1  0  0  0
 13 14  1  0  0  0
 14 15  1  0  0  0
 15 16  1  0  0  0
  9 10  2  0  0  0
 10 11  2  0  0  0
  5  6  2  0  0  0
 21 22  2  0  0  0
 22 23  1  0  0  0
 23 24  2  0  0  0
 24 25  1  0  0  0
 24 19  1  0  0  0
  6  1  1  0  0  0
 11  7  1  0  0  0
 16 12  1  0  0  0
 29 30  1  0  0  0
 25 26  1  0  0  0
M  END
> <score>
0.312708

> <minimizedAffinity>
-7.42656

> <CNNscore>
0.5935566425

> <CNNaffinity>
6.1508693695

> <CNN_VS>
3.6508893967

$$$$
HIPS7125


 30 33  0  0  0  0  0  0  0  0999 V2000
   66.9000   76.2944   87.8858 C   0  0  0  0  0  0  0  0  0  0  0  0
   67.2265   76.2000   86.5274 C   0  0  0  0  0  0  0  0  0  0  0  0
   67.5609   77.3373   85.8450 C   0  0  0  0  0  0  0  0  0  0  0  0
   67.5858   78.5766   86.4575 C   0  0  0  0  0  0  0  0  0  0  0  0
   67.2674   78.6889   87.7936 C   0  0  0  0  0  0  0  0  0  0  0  0
   66.9258   77.5202   88.4878 C   0  0  0  0  0  0  0  0  0  0  0  0
   67.2713   79.9268   88.4890 N   0  0  0  0  0  0  0  0  0  0  0  0
   68.0695   81.0060   88.3347 C   0  0  0  0  0  0  0  0  0  0  0  0
   67.7075   81.9872   89.2353 C   0  0  0  0  0  0  0  0  0  0  0  0
   66.6803   81.4620   89.9217 N   0  0  0  0  0  0  0  0  0  0  0  0
   66.4325   80.2318   89.4642 N   0  0  0  0  0  0  0  0  0  0  0  0
   68.3433   83.3205   89.3799 C   0  0  0  0  0  0  0  0  0  0  0  0
   67.3617   84.4297   89.0672 C   0  0  0  0  0  0  0  0  0  0  0  0
   67.4331   84.5945   87.5551 C   0  0  0  0  0  0  0  0  0  0  0  0
   68.8013   84.1341   87.1709 C   0  0  0  0  0  0  0  0  0  0  0  0
   69.4417   83.4982   88.3611 C   0  0  0  0  0  0  0  0  0  0  0  0
   66.5681   75.0555   88.6139 C   0  0  0  0  0  0  0  0  0  0  0  0
   67.5723   74.2753   89.0594 O   0  0  0  0  0  0  0  0  0  0  0  0
   69.5217   74.8462   92.0238 C   0  0  0  0  0  0  0  0  0  0  0  0
   68.8137   75.0784   90.8863 C   0  0  0  0  0  0  0  0  0  0  0  0
   68.2646   74.0060   90.1760 C   0  0  0  0  0  0  0  0  0  0  0  0
   68.4698   72.7216   90.6736 C   0  0  0  0  0  0  0  0  0  0  0  0
   69.1953   72.5169   91.8346 C   0  0  0  0  0  0  0  0  0  0  0  0
   69.7242   73.5692   92.5158 C   0  0  0  0  0  0  0  0  0  0  0  0
   70.4487   73.3490   93.6772 O   0  0  0  0  0  0  0  0  0  0  0  0
   70.5739   72.4757   93.9929 H   0  0  0  0  0  0  0  0  0  0  0  0
   71.1254   76.5656   92.3479 O   0  0  0  0  0  0  0  0  0  0  0  0
   70.1015   75.9716   92.7746 C   0  0  0  0  0  0  0  0  0  0  0  0
   69.5548   76.4119   93.9552 O   0  0  0  0  0  0  0  0  0  0  0  0
   68.7921   75.9934   94.3032 H   0  0  0  0  0  0  0  0  0  0  0  0
 27 28  2  0  0  0
 28 29  1  0  0  0
 28 19  1  0  0  0
 19 20  2  0  0  0
 20 21  1  0  0  0
 21 18  1  0  0  0
 18 17  1  0  0  0
 17  1  1  0  0  0
  1  2  2  0  0  0
  2  3  1  0  0  0
  3  4  2  0  0  0
  4  5  1  0  0  0
  5  7  1  0  0  0
  7  8  1  0  0  0
  8  9  2  0  0  0
  9 12  1  0  0  0
 12 13  1  0  0  0
 13 14  1  0  0  0
 14 15  1  0  0  0
 15 16  1  0  0  0
  9 10  2  0  0  0
 10 11  2  0  0  0
  5  6  2  0  0  0
 21 22  2  0  0  0
 22 23  1  0  0  0
 23 24  2  0  0  0
 24 25  1  0  0  0
 24 19  1  0  0  0
  6  1  1  0  0  0
 11  7  1  0  0  0
 16 12  1  0  0  0
 29 30  1  0  0  0
 25 26  1  0  0  0
M  END
> <score>
0.312708

> <minimizedAffinity>
-7.72618

> <CNNscore>
0.5468896627

> <CNNaffinity>
6.1025094986

> <CNN_VS>
3.3373992443

$$$$
HIPS7125


 30 33  0  0  0  0  0  0  0  0999 V2000
   69.8119   78.7268   90.2764 C   0  0  0  0  0  0  0  0  0  0  0  0
   71.1448   78.5963   89.8674 C   0  0  0  0  0  0  0  0  0  0  0  0
   71.9444   77.6809   90.4946 C   0  0  0  0  0  0  0  0  0  0  0  0
   71.4749   76.8812   91.5200 C   0  0  0  0  0  0  0  0  0  0  0  0
   70.1660   76.9955   91.9359 C   0  0  0  0  0  0  0  0  0  0  0  0
   69.3512   77.9350   91.2896 C   0  0  0  0  0  0  0  0  0  0  0  0
   69.6144   76.2088   92.9813 N   0  0  0  0  0  0  0  0  0  0  0  0
   68.5470   75.3804   92.9731 C   0  0  0  0  0  0  0  0  0  0  0  0
   68.3791   74.8225   94.2241 C   0  0  0  0  0  0  0  0  0  0  0  0
   69.3699   75.3401   94.9674 N   0  0  0  0  0  0  0  0  0  0  0  0
   70.0982   76.1657   94.2108 N   0  0  0  0  0  0  0  0  0  0  0  0
   67.3189   73.8619   94.6193 C   0  0  0  0  0  0  0  0  0  0  0  0
   65.9454   74.3868   94.2591 C   0  0  0  0  0  0  0  0  0  0  0  0
   65.5456   75.2644   95.4375 C   0  0  0  0  0  0  0  0  0  0  0  0
   66.2905   74.7158   96.6104 C   0  0  0  0  0  0  0  0  0  0  0  0
   67.2757   73.7063   96.1192 C   0  0  0  0  0  0  0  0  0  0  0  0
   68.9553   79.6991   89.5721 C   0  0  0  0  0  0  0  0  0  0  0  0
   69.1543   81.0144   89.7862 O   0  0  0  0  0  0  0  0  0  0  0  0
   70.2391   84.0127   88.1287 C   0  0  0  0  0  0  0  0  0  0  0  0
   69.4533   82.9778   88.5295 C   0  0  0  0  0  0  0  0  0  0  0  0
   69.9600   82.0197   89.4134 C   0  0  0  0  0  0  0  0  0  0  0  0
   71.2725   82.1692   89.8542 C   0  0  0  0  0  0  0  0  0  0  0  0
   72.0481   83.2337   89.4282 C   0  0  0  0  0  0  0  0  0  0  0  0
   71.5428   84.1587   88.5679 C   0  0  0  0  0  0  0  0  0  0  0  0
   72.3313   85.2197   88.1497 O   0  0  0  0  0  0  0  0  0  0  0  0
   73.2120   85.2996   88.4596 H   0  0  0  0  0  0  0  0  0  0  0  0
   68.7329   85.7451   87.5260 O   0  0  0  0  0  0  0  0  0  0  0  0
   69.7103   85.0234   87.1985 C   0  0  0  0  0  0  0  0  0  0  0  0
   70.2558   85.2161   85.9528 O   0  0  0  0  0  0  0  0  0  0  0  0
   70.9846   84.6968   85.6750 H   0  0  0  0  0  0  0  0  0  0  0  0
 27 28  2  0  0  0
 28 29  1  0  0  0
 28 19  1  0  0  0
 19 20  2  0  0  0
 20 21  1  0  0  0
 21 18  1  0  0  0
 18 17  1  0  0  0
 17  1  1  0  0  0
  1  2  2  0  0  0
  2  3  1  0  0  0
  3  4  2  0  0  0
  4  5  1  0  0  0
  5  7  1  0  0  0
  7  8  1  0  0  0
  8  9  2  0  0  0
  9 12  1  0  0  0
 12 13  1  0  0  0
 13 14  1  0  0  0
 14 15  1  0  0  0
 15 16  1  0  0  0
  9 10  2  0  0  0
 10 11  2  0  0  0
  5  6  2  0  0  0
 21 22  2  0  0  0
 22 23  1  0  0  0
 23 24  2  0  0  0
 24 25  1  0  0  0
 24 19  1  0  0  0
  6  1  1  0  0  0
 11  7  1  0  0  0
 16 12  1  0  0  0
 29 30  1  0  0  0
 25 26  1  0  0  0
M  END
> <score>
0.312708

> <minimizedAffinity>
-8.75808

> <CNNscore>
0.5227017999

> <CNNaffinity>
5.8486909866

> <CNN_VS>
3.0571212769

$$$$
HIPS7126


 39 43  0  0  0  0  0  0  0  0999 V2000
   66.7794   83.8227   91.7622 C   0  0  0  0  0  0  0  0  0  0  0  0
   66.5060   82.4427   91.7950 C   0  0  0  0  0  0  0  0  0  0  0  0
   66.9948   81.5929   90.7914 C   0  0  0  0  0  0  0  0  0  0  0  0
   67.7300   82.1337   89.7290 C   0  0  0  0  0  0  0  0  0  0  0  0
   68.0504   83.4972   89.7059 C   0  0  0  0  0  0  0  0  0  0  0  0
   67.5511   84.3415   90.7083 C   0  0  0  0  0  0  0  0  0  0  0  0
   68.9162   84.0368   88.6327 C   0  0  0  0  0  0  0  0  0  0  0  0
   68.3117   84.6429   87.5211 C   0  0  0  0  0  0  0  0  0  0  0  0
   69.0641   85.0931   86.4847 N   0  0  0  0  0  0  0  0  0  0  0  0
   70.4170   84.9845   86.4773 C   0  0  0  0  0  0  0  0  0  0  0  0
   71.0833   84.4068   87.5645 C   0  0  0  0  0  0  0  0  0  0  0  0
   72.4832   84.3014   87.5667 C   0  0  0  0  0  0  0  0  0  0  0  0
   73.1436   83.7485   88.6653 C   0  0  0  0  0  0  0  0  0  0  0  0
   72.4159   83.3087   89.7715 C   0  0  0  0  0  0  0  0  0  0  0  0
   71.0224   83.4064   89.7830 C   0  0  0  0  0  0  0  0  0  0  0  0
   70.3310   83.9357   88.6703 C   0  0  0  0  0  0  0  0  0  0  0  0
   65.1041   86.0807   94.0049 C   0  0  0  0  0  0  0  0  0  0  0  0
   65.1486   85.4102   92.7968 C   0  0  0  0  0  0  0  0  0  0  0  0
   66.2914   84.6984   92.7960 N   0  0  0  0  0  0  0  0  0  0  0  0
   66.9030   84.9021   93.9524 N   0  0  0  0  0  0  0  0  0  0  0  0
   66.2007   85.7315   94.7104 N   0  0  0  0  0  0  0  0  0  0  0  0
   62.9057   86.0214   95.2223 C   0  0  0  0  0  0  0  0  0  0  0  0
   63.9613   86.9215   94.5452 C   0  0  0  0  0  0  0  0  0  0  0  0
   63.2860   87.6983   93.3946 C   0  0  0  0  0  0  0  0  0  0  0  0
   64.5218   87.9206   95.5732 C   0  0  0  0  0  0  0  0  0  0  0  0
   66.7476   80.1069   90.8592 C   0  0  0  0  0  0  0  0  0  0  0  0
   67.5957   79.4076   89.9445 O   0  0  0  0  0  0  0  0  0  0  0  0
   68.8056   78.7796   90.2851 C   0  0  0  0  0  0  0  0  0  0  0  0
   70.0579   79.3754   90.0539 C   0  0  0  0  0  0  0  0  0  0  0  0
   71.2309   78.6989   90.3885 C   0  0  0  0  0  0  0  0  0  0  0  0
   71.1816   77.4253   90.9647 C   0  0  0  0  0  0  0  0  0  0  0  0
   72.3920   76.8367   91.3398 O   0  0  0  0  0  0  0  0  0  0  0  0
   69.9264   76.8001   91.1774 C   0  0  0  0  0  0  0  0  0  0  0  0
   68.7508   77.5046   90.8569 C   0  0  0  0  0  0  0  0  0  0  0  0
   73.1997   77.2843   91.1809 H   0  0  0  0  0  0  0  0  0  0  0  0
   69.7967   75.4170   91.6912 C   0  0  0  0  0  0  0  0  0  0  0  0
   70.3565   75.0725   92.7657 O   0  0  0  0  0  0  0  0  0  0  0  0
   69.1043   74.4645   90.9485 O   0  0  0  0  0  0  0  0  0  0  0  0
   68.6841   74.7096   90.1476 H   0  0  0  0  0  0  0  0  0  0  0  0
 22 23  1  0  0  0
 23 24  1  0  0  0
 23 25  1  0  0  0
 23 17  1  0  0  0
 17 18  2  0  0  0
 18 19  1  0  0  0
 19  1  1  0  0  0
  1  2  2  0  0  0
  2  3  1  0  0  0
  3 26  1  0  0  0
 26 27  1  0  0  0
 27 28  1  0  0  0
 28 29  2  0  0  0
 29 30  1  0  0  0
 30 31  2  0  0  0
 31 32  1  0  0  0
 31 33  1  0  0  0
 33 36  1  0  0  0
 36 37  2  0  0  0
 36 38  1  0  0  0
 33 34  2  0  0  0
  3  4  2  0  0  0
  4  5  1  0  0  0
  5  7  1  0  0  0
  7  8  2  0  0  0
  8  9  2  0  0  0
  9 10  2  0  0  0
 10 11  1  0  0  0
 11 12  2  0  0  0
 12 13  1  0  0  0
 13 14  2  0  0  0
 14 15  1  0  0  0
 15 16  2  0  0  0
  5  6  2  0  0  0
 19 20  1  0  0  0
 20 21  2  0  0  0
 21 17  2  0  0  0
  6  1  1  0  0  0
 34 28  1  0  0  0
 16  7  1  0  0  0
 16 11  1  0  0  0
 32 35  1  0  0  0
 38 39  1  0  0  0
M  END
> <score>
-0.481383

> <minimizedAffinity>
-8.58153

> <CNNscore>
0.6196162701

> <CNNaffinity>
7.2102642059

> <CNN_VS>
4.4675970078

$$$$
HIPS7126


 39 43  0  0  0  0  0  0  0  0999 V2000
   67.1643   79.1193   89.3667 C   0  0  0  0  0  0  0  0  0  0  0  0
   66.6397   78.9781   90.6648 C   0  0  0  0  0  0  0  0  0  0  0  0
   66.7493   80.0204   91.5975 C   0  0  0  0  0  0  0  0  0  0  0  0
   67.4208   81.1965   91.2403 C   0  0  0  0  0  0  0  0  0  0  0  0
   67.9074   81.3712   89.9384 C   0  0  0  0  0  0  0  0  0  0  0  0
   67.8014   80.3215   89.0142 C   0  0  0  0  0  0  0  0  0  0  0  0
   68.5220   82.6593   89.5437 C   0  0  0  0  0  0  0  0  0  0  0  0
   67.6852   83.7017   89.1176 C   0  0  0  0  0  0  0  0  0  0  0  0
   68.2098   84.8769   88.6857 N   0  0  0  0  0  0  0  0  0  0  0  0
   69.5486   85.0976   88.6510 C   0  0  0  0  0  0  0  0  0  0  0  0
   70.4376   84.1051   89.0804 C   0  0  0  0  0  0  0  0  0  0  0  0
   71.8228   84.3318   89.0564 C   0  0  0  0  0  0  0  0  0  0  0  0
   72.7029   83.3481   89.5108 C   0  0  0  0  0  0  0  0  0  0  0  0
   72.2091   82.1391   90.0020 C   0  0  0  0  0  0  0  0  0  0  0  0
   70.8332   81.8991   90.0309 C   0  0  0  0  0  0  0  0  0  0  0  0
   69.9254   82.8687   89.5492 C   0  0  0  0  0  0  0  0  0  0  0  0
   67.1252   76.8302   86.5930 C   0  0  0  0  0  0  0  0  0  0  0  0
   67.4232   78.0777   87.1088 C   0  0  0  0  0  0  0  0  0  0  0  0
   67.0440   78.0584   88.4005 N   0  0  0  0  0  0  0  0  0  0  0  0
   66.5619   76.8549   88.6691 N   0  0  0  0  0  0  0  0  0  0  0  0
   66.6061   76.0849   87.5917 N   0  0  0  0  0  0  0  0  0  0  0  0
   66.4478   76.8136   84.1724 C   0  0  0  0  0  0  0  0  0  0  0  0
   67.4692   76.3034   85.2114 C   0  0  0  0  0  0  0  0  0  0  0  0
   67.4460   74.7597   85.2130 C   0  0  0  0  0  0  0  0  0  0  0  0
   68.8787   76.7905   84.8301 C   0  0  0  0  0  0  0  0  0  0  0  0
   66.1372   79.8875   92.9692 C   0  0  0  0  0  0  0  0  0  0  0  0
   66.9286   79.0332   93.7992 O   0  0  0  0  0  0  0  0  0  0  0  0
   67.0011   77.6350   93.6808 C   0  0  0  0  0  0  0  0  0  0  0  0
   65.8961   76.7981   93.9156 C   0  0  0  0  0  0  0  0  0  0  0  0
   66.0273   75.4136   93.8083 C   0  0  0  0  0  0  0  0  0  0  0  0
   67.2529   74.8370   93.4588 C   0  0  0  0  0  0  0  0  0  0  0  0
   67.2940   73.4495   93.2998 O   0  0  0  0  0  0  0  0  0  0  0  0
   68.3831   75.6671   93.2469 C   0  0  0  0  0  0  0  0  0  0  0  0
   68.2297   77.0634   93.3353 C   0  0  0  0  0  0  0  0  0  0  0  0
   66.5237   72.9377   93.4500 H   0  0  0  0  0  0  0  0  0  0  0  0
   69.7340   75.1264   92.9704 C   0  0  0  0  0  0  0  0  0  0  0  0
   70.0614   73.9753   93.3633 O   0  0  0  0  0  0  0  0  0  0  0  0
   70.6793   75.9205   92.3267 O   0  0  0  0  0  0  0  0  0  0  0  0
   70.4468   76.7784   92.0302 H   0  0  0  0  0  0  0  0  0  0  0  0
 22 23  1  0  0  0
 23 24  1  0  0  0
 23 25  1  0  0  0
 23 17  1  0  0  0
 17 18  2  0  0  0
 18 19  1  0  0  0
 19  1  1  0  0  0
  1  2  2  0  0  0
  2  3  1  0  0  0
  3 26  1  0  0  0
 26 27  1  0  0  0
 27 28  1  0  0  0
 28 29  2  0  0  0
 29 30  1  0  0  0
 30 31  2  0  0  0
 31 32  1  0  0  0
 31 33  1  0  0  0
 33 36  1  0  0  0
 36 37  2  0  0  0
 36 38  1  0  0  0
 33 34  2  0  0  0
  3  4  2  0  0  0
  4  5  1  0  0  0
  5  7  1  0  0  0
  7  8  2  0  0  0
  8  9  2  0  0  0
  9 10  2  0  0  0
 10 11  1  0  0  0
 11 12  2  0  0  0
 12 13  1  0  0  0
 13 14  2  0  0  0
 14 15  1  0  0  0
 15 16  2  0  0  0
  5  6  2  0  0  0
 19 20  1  0  0  0
 20 21  2  0  0  0
 21 17  2  0  0  0
  6  1  1  0  0  0
 34 28  1  0  0  0
 16  7  1  0  0  0
 16 11  1  0  0  0
 32 35  1  0  0  0
 38 39  1  0  0  0
M  END
> <score>
-0.481383

> <minimizedAffinity>
-8.61100

> <CNNscore>
0.6111838818

> <CNNaffinity>
7.5409765244

> <CNN_VS>
4.6089234352

$$$$
HIPS7126


 39 43  0  0  0  0  0  0  0  0999 V2000
   67.1798   73.6254   88.6550 C   0  0  0  0  0  0  0  0  0  0  0  0
   66.8225   74.9628   88.4025 C   0  0  0  0  0  0  0  0  0  0  0  0
   66.9962   75.9474   89.3867 C   0  0  0  0  0  0  0  0  0  0  0  0
   67.4956   75.5839   90.6439 C   0  0  0  0  0  0  0  0  0  0  0  0
   67.8994   74.2664   90.8958 C   0  0  0  0  0  0  0  0  0  0  0  0
   67.7150   73.2863   89.9097 C   0  0  0  0  0  0  0  0  0  0  0  0
   68.5228   73.9177   92.1930 C   0  0  0  0  0  0  0  0  0  0  0  0
   69.8485   73.4589   92.2009 C   0  0  0  0  0  0  0  0  0  0  0  0
   70.4378   73.0671   93.3594 N   0  0  0  0  0  0  0  0  0  0  0  0
   69.7835   73.1051   94.5480 C   0  0  0  0  0  0  0  0  0  0  0  0
   68.4648   73.5706   94.6118 C   0  0  0  0  0  0  0  0  0  0  0  0
   67.7869   73.6218   95.8400 C   0  0  0  0  0  0  0  0  0  0  0  0
   66.4811   74.1118   95.9010 C   0  0  0  0  0  0  0  0  0  0  0  0
   65.8478   74.5640   94.7429 C   0  0  0  0  0  0  0  0  0  0  0  0
   66.5097   74.5181   93.5135 C   0  0  0  0  0  0  0  0  0  0  0  0
   67.8207   73.9992   93.4234 C   0  0  0  0  0  0  0  0  0  0  0  0
   67.2545   70.8715   86.3430 C   0  0  0  0  0  0  0  0  0  0  0  0
   67.8359   71.5778   87.3795 C   0  0  0  0  0  0  0  0  0  0  0  0
   67.0161   72.6123   87.6448 N   0  0  0  0  0  0  0  0  0  0  0  0
   65.9750   72.5307   86.8310 N   0  0  0  0  0  0  0  0  0  0  0  0
   66.0888   71.4782   86.0340 N   0  0  0  0  0  0  0  0  0  0  0  0
   66.5937   68.5018   85.8271 C   0  0  0  0  0  0  0  0  0  0  0  0
   67.7231   69.5519   85.7567 C   0  0  0  0  0  0  0  0  0  0  0  0
   68.9404   69.0246   86.5463 C   0  0  0  0  0  0  0  0  0  0  0  0
   68.1273   69.7757   84.2884 C   0  0  0  0  0  0  0  0  0  0  0  0
   66.6649   77.3890   89.0942 C   0  0  0  0  0  0  0  0  0  0  0  0
   67.1302   78.2414   90.1439 O   0  0  0  0  0  0  0  0  0  0  0  0
   68.3606   78.9199   90.1466 C   0  0  0  0  0  0  0  0  0  0  0  0
   68.4597   80.3064   89.9360 C   0  0  0  0  0  0  0  0  0  0  0  0
   69.7082   80.9283   89.9241 C   0  0  0  0  0  0  0  0  0  0  0  0
   70.8772   80.1879   90.1286 C   0  0  0  0  0  0  0  0  0  0  0  0
   72.0865   80.8863   90.1749 O   0  0  0  0  0  0  0  0  0  0  0  0
   70.7946   78.7842   90.3137 C   0  0  0  0  0  0  0  0  0  0  0  0
   69.5266   78.1744   90.3472 C   0  0  0  0  0  0  0  0  0  0  0  0
   72.0967   81.8145   90.0472 H   0  0  0  0  0  0  0  0  0  0  0  0
   71.9914   77.9205   90.4385 C   0  0  0  0  0  0  0  0  0  0  0  0
   72.7967   77.7908   89.4786 O   0  0  0  0  0  0  0  0  0  0  0  0
   72.1989   77.1890   91.6047 O   0  0  0  0  0  0  0  0  0  0  0  0
   71.6063   77.2777   92.3251 H   0  0  0  0  0  0  0  0  0  0  0  0
 22 23  1  0  0  0
 23 24  1  0  0  0
 23 25  1  0  0  0
 23 17  1  0  0  0
 17 18  2  0  0  0
 18 19  1  0  0  0
 19  1  1  0  0  0
  1  2  2  0  0  0
  2  3  1  0  0  0
  3 26  1  0  0  0
 26 27  1  0  0  0
 27 28  1  0  0  0
 28 29  2  0  0  0
 29 30  1  0  0  0
 30 31  2  0  0  0
 31 32  1  0  0  0
 31 33  1  0  0  0
 33 36  1  0  0  0
 36 37  2  0  0  0
 36 38  1  0  0  0
 33 34  2  0  0  0
  3  4  2  0  0  0
  4  5  1  0  0  0
  5  7  1  0  0  0
  7  8  2  0  0  0
  8  9  2  0  0  0
  9 10  2  0  0  0
 10 11  1  0  0  0
 11 12  2  0  0  0
 12 13  1  0  0  0
 13 14  2  0  0  0
 14 15  1  0  0  0
 15 16  2  0  0  0
  5  6  2  0  0  0
 19 20  1  0  0  0
 20 21  2  0  0  0
 21 17  2  0  0  0
  6  1  1  0  0  0
 34 28  1  0  0  0
 16  7  1  0  0  0
 16 11  1  0  0  0
 32 35  1  0  0  0
 38 39  1  0  0  0
M  END
> <score>
-0.481383

> <minimizedAffinity>
-9.32524

> <CNNscore>
0.5943630934

> <CNNaffinity>
7.2787475586

> <CNN_VS>
4.3262190819

$$$$
HIPS7127


 40 45  0  0  0  0  0  0  0  0999 V2000
   66.8701   80.1101   91.0481 C   0  0  0  0  0  0  0  0  0  0  0  0
   67.4832   81.2893   90.6118 C   0  0  0  0  0  0  0  0  0  0  0  0
   68.0005   81.3565   89.3532 C   0  0  0  0  0  0  0  0  0  0  0  0
   67.9075   80.2341   88.5130 C   0  0  0  0  0  0  0  0  0  0  0  0
   67.3127   79.0594   88.9072 C   0  0  0  0  0  0  0  0  0  0  0  0
   66.7999   79.0337   90.1956 C   0  0  0  0  0  0  0  0  0  0  0  0
   68.6503   82.5542   88.8706 C   0  0  0  0  0  0  0  0  0  0  0  0
   67.8802   83.4979   88.1746 C   0  0  0  0  0  0  0  0  0  0  0  0
   68.4696   84.6267   87.7599 N   0  0  0  0  0  0  0  0  0  0  0  0
   69.7794   84.8808   87.9918 C   0  0  0  0  0  0  0  0  0  0  0  0
   70.5512   83.9801   88.6650 C   0  0  0  0  0  0  0  0  0  0  0  0
   71.8748   84.2144   88.8987 C   0  0  0  0  0  0  0  0  0  0  0  0
   72.6303   83.2959   89.5637 C   0  0  0  0  0  0  0  0  0  0  0  0
   72.0918   82.1139   90.0172 C   0  0  0  0  0  0  0  0  0  0  0  0
   70.7432   81.8714   89.7813 C   0  0  0  0  0  0  0  0  0  0  0  0
   69.9756   82.7945   89.1122 C   0  0  0  0  0  0  0  0  0  0  0  0
   67.2208   77.9254   88.0526 N   0  0  0  0  0  0  0  0  0  0  0  0
   67.5077   77.9103   86.7376 C   0  0  0  0  0  0  0  0  0  0  0  0
   67.2965   76.6332   86.2628 C   0  0  0  0  0  0  0  0  0  0  0  0
   66.8869   75.9047   87.3008 N   0  0  0  0  0  0  0  0  0  0  0  0
   66.8486   76.6948   88.3590 N   0  0  0  0  0  0  0  0  0  0  0  0
   67.4666   76.0970   84.8921 C   0  0  0  0  0  0  0  0  0  0  0  0
   66.3744   76.5475   83.9601 C   0  0  0  0  0  0  0  0  0  0  0  0
   66.3339   75.4997   82.8818 C   0  0  0  0  0  0  0  0  0  0  0  0
   67.2163   74.3601   83.3351 C   0  0  0  0  0  0  0  0  0  0  0  0
   67.3183   74.5901   84.8481 C   0  0  0  0  0  0  0  0  0  0  0  0
   66.3694   80.1179   92.4518 C   0  0  0  0  0  0  0  0  0  0  0  0
   66.9067   79.2188   93.3153 O   0  0  0  0  0  0  0  0  0  0  0  0
   68.0931   75.7782   93.3560 C   0  0  0  0  0  0  0  0  0  0  0  0
   68.0513   77.1407   93.2333 C   0  0  0  0  0  0  0  0  0  0  0  0
   66.8622   77.8805   93.4588 C   0  0  0  0  0  0  0  0  0  0  0  0
   65.7667   77.1224   93.8068 C   0  0  0  0  0  0  0  0  0  0  0  0
   65.8074   75.7285   93.9331 C   0  0  0  0  0  0  0  0  0  0  0  0
   66.9750   75.0468   93.7076 C   0  0  0  0  0  0  0  0  0  0  0  0
   67.0662   73.6628   93.8203 O   0  0  0  0  0  0  0  0  0  0  0  0
   66.3114   73.1614   94.0584 H   0  0  0  0  0  0  0  0  0  0  0  0
   69.8433   75.1133   91.9505 O   0  0  0  0  0  0  0  0  0  0  0  0
   69.3393   75.0585   93.1144 C   0  0  0  0  0  0  0  0  0  0  0  0
   69.9384   74.3469   94.1250 O   0  0  0  0  0  0  0  0  0  0  0  0
   69.5470   74.3216   94.9760 H   0  0  0  0  0  0  0  0  0  0  0  0
 37 38  2  0  0  0
 38 39  1  0  0  0
 38 29  1  0  0  0
 29 30  2  0  0  0
 30 31  1  0  0  0
 31 28  1  0  0  0
 28 27  1  0  0  0
 27  1  1  0  0  0
  1  2  2  0  0  0
  2  3  1  0  0  0
  3  7  1  0  0  0
  7  8  2  0  0  0
  8  9  2  0  0  0
  9 10  2  0  0  0
 10 11  1  0  0  0
 11 12  2  0  0  0
 12 13  1  0  0  0
 13 14  2  0  0  0
 14 15  1  0  0  0
 15 16  2  0  0  0
  3  4  2  0  0  0
  4  5  1  0  0  0
  5 17  1  0  0  0
 17 18  1  0  0  0
 18 19  2  0  0  0
 19 22  1  0  0  0
 22 23  1  0  0  0
 23 24  1  0  0  0
 24 25  1  0  0  0
 25 26  1  0  0  0
 19 20  2  0  0  0
 20 21  2  0  0  0
  5  6  2  0  0  0
 31 32  2  0  0  0
 32 33  1  0  0  0
 33 34  2  0  0  0
 34 35  1  0  0  0
 34 29  1  0  0  0
  6  1  1  0  0  0
 16  7  1  0  0  0
 21 17  1  0  0  0
 16 11  1  0  0  0
 26 22  1  0  0  0
 39 40  1  0  0  0
 35 36  1  0  0  0
M  END
> <score>
-0.699296

> <minimizedAffinity>
-8.55690

> <CNNscore>
0.6611425281

> <CNNaffinity>
7.6382970810

> <CNN_VS>
5.0500030518

$$$$
HIPS7127


 40 45  0  0  0  0  0  0  0  0999 V2000
   67.0120   79.4579   91.4950 C   0  0  0  0  0  0  0  0  0  0  0  0
   67.8649   80.5034   91.1259 C   0  0  0  0  0  0  0  0  0  0  0  0
   68.4872   80.4725   89.9143 C   0  0  0  0  0  0  0  0  0  0  0  0
   68.2588   79.3853   89.0539 C   0  0  0  0  0  0  0  0  0  0  0  0
   67.4281   78.3408   89.3825 C   0  0  0  0  0  0  0  0  0  0  0  0
   66.8155   78.4117   90.6248 C   0  0  0  0  0  0  0  0  0  0  0  0
   69.3832   81.5294   89.5023 C   0  0  0  0  0  0  0  0  0  0  0  0
   70.6875   81.5389   90.0187 C   0  0  0  0  0  0  0  0  0  0  0  0
   71.5327   82.4937   89.6095 N   0  0  0  0  0  0  0  0  0  0  0  0
   71.1659   83.4440   88.7172 C   0  0  0  0  0  0  0  0  0  0  0  0
   69.9039   83.4586   88.2001 C   0  0  0  0  0  0  0  0  0  0  0  0
   69.5136   84.4143   87.3080 C   0  0  0  0  0  0  0  0  0  0  0  0
   68.2444   84.4169   86.8122 C   0  0  0  0  0  0  0  0  0  0  0  0
   67.3227   83.4677   87.1893 C   0  0  0  0  0  0  0  0  0  0  0  0
   67.7166   82.4919   88.0979 C   0  0  0  0  0  0  0  0  0  0  0  0
   68.9957   82.4831   88.6007 C   0  0  0  0  0  0  0  0  0  0  0  0
   67.1998   77.2420   88.5078 N   0  0  0  0  0  0  0  0  0  0  0  0
   66.9431   75.9771   88.8897 C   0  0  0  0  0  0  0  0  0  0  0  0
   66.7808   75.2072   87.7573 C   0  0  0  0  0  0  0  0  0  0  0  0
   66.9430   76.0234   86.7165 N   0  0  0  0  0  0  0  0  0  0  0  0
   67.1922   77.2328   87.1862 N   0  0  0  0  0  0  0  0  0  0  0  0
   66.4848   73.7606   87.6356 C   0  0  0  0  0  0  0  0  0  0  0  0
   67.2434   72.9333   88.6380 C   0  0  0  0  0  0  0  0  0  0  0  0
   67.3239   71.5634   88.0223 C   0  0  0  0  0  0  0  0  0  0  0  0
   66.8366   71.6864   86.5974 C   0  0  0  0  0  0  0  0  0  0  0  0
   66.9722   73.1888   86.3202 C   0  0  0  0  0  0  0  0  0  0  0  0
   66.4080   79.5597   92.8536 C   0  0  0  0  0  0  0  0  0  0  0  0
   65.8129   78.4501   93.3611 O   0  0  0  0  0  0  0  0  0  0  0  0
   68.0943   75.7265   94.1507 C   0  0  0  0  0  0  0  0  0  0  0  0
   67.6021   76.9644   93.8368 C   0  0  0  0  0  0  0  0  0  0  0  0
   66.2137   77.2025   93.6713 C   0  0  0  0  0  0  0  0  0  0  0  0
   65.4121   76.0973   93.8503 C   0  0  0  0  0  0  0  0  0  0  0  0
   65.9135   74.8301   94.1717 C   0  0  0  0  0  0  0  0  0  0  0  0
   67.2621   74.6374   94.3241 C   0  0  0  0  0  0  0  0  0  0  0  0
   67.8088   73.3982   94.6431 O   0  0  0  0  0  0  0  0  0  0  0  0
   67.2494   72.6559   94.7619 H   0  0  0  0  0  0  0  0  0  0  0  0
   70.1240   74.7679   93.4855 O   0  0  0  0  0  0  0  0  0  0  0  0
   69.5310   75.5282   94.3114 C   0  0  0  0  0  0  0  0  0  0  0  0
   70.2093   76.1515   95.3303 O   0  0  0  0  0  0  0  0  0  0  0  0
   69.7494   76.7081   95.9275 H   0  0  0  0  0  0  0  0  0  0  0  0
 37 38  2  0  0  0
 38 39  1  0  0  0
 38 29  1  0  0  0
 29 30  2  0  0  0
 30 31  1  0  0  0
 31 28  1  0  0  0
 28 27  1  0  0  0
 27  1  1  0  0  0
  1  2  2  0  0  0
  2  3  1  0  0  0
  3  7  1  0  0  0
  7  8  2  0  0  0
  8  9  2  0  0  0
  9 10  2  0  0  0
 10 11  1  0  0  0
 11 12  2  0  0  0
 12 13  1  0  0  0
 13 14  2  0  0  0
 14 15  1  0  0  0
 15 16  2  0  0  0
  3  4  2  0  0  0
  4  5  1  0  0  0
  5 17  1  0  0  0
 17 18  1  0  0  0
 18 19  2  0  0  0
 19 22  1  0  0  0
 22 23  1  0  0  0
 23 24  1  0  0  0
 24 25  1  0  0  0
 25 26  1  0  0  0
 19 20  2  0  0  0
 20 21  2  0  0  0
  5  6  2  0  0  0
 31 32  2  0  0  0
 32 33  1  0  0  0
 33 34  2  0  0  0
 34 35  1  0  0  0
 34 29  1  0  0  0
  6  1  1  0  0  0
 16  7  1  0  0  0
 21 17  1  0  0  0
 16 11  1  0  0  0
 26 22  1  0  0  0
 39 40  1  0  0  0
 35 36  1  0  0  0
M  END
> <score>
-0.699296

> <minimizedAffinity>
-8.78137

> <CNNscore>
0.6589448452

> <CNNaffinity>
7.5918846130

> <CNN_VS>
5.0026330948

$$$$
HIPS7127


 40 45  0  0  0  0  0  0  0  0999 V2000
   67.1957   80.9209   91.1401 C   0  0  0  0  0  0  0  0  0  0  0  0
   67.9157   81.9168   90.4719 C   0  0  0  0  0  0  0  0  0  0  0  0
   68.4107   81.6727   89.2263 C   0  0  0  0  0  0  0  0  0  0  0  0
   68.1869   80.4186   88.6333 C   0  0  0  0  0  0  0  0  0  0  0  0
   67.4846   79.4166   89.2592 C   0  0  0  0  0  0  0  0  0  0  0  0
   66.9990   79.7067   90.5256 C   0  0  0  0  0  0  0  0  0  0  0  0
   69.1681   82.6734   88.5090 C   0  0  0  0  0  0  0  0  0  0  0  0
   68.5222   83.4054   87.5016 C   0  0  0  0  0  0  0  0  0  0  0  0
   69.2092   84.3603   86.8614 N   0  0  0  0  0  0  0  0  0  0  0  0
   70.5014   84.6369   87.1573 C   0  0  0  0  0  0  0  0  0  0  0  0
   71.1536   83.9399   88.1314 C   0  0  0  0  0  0  0  0  0  0  0  0
   72.4583   84.1979   88.4359 C   0  0  0  0  0  0  0  0  0  0  0  0
   73.0942   83.4819   89.4053 C   0  0  0  0  0  0  0  0  0  0  0  0
   72.4510   82.4855   90.1026 C   0  0  0  0  0  0  0  0  0  0  0  0
   71.1213   82.2197   89.7955 C   0  0  0  0  0  0  0  0  0  0  0  0
   70.4740   82.9392   88.8196 C   0  0  0  0  0  0  0  0  0  0  0  0
   67.2604   78.1482   88.6546 N   0  0  0  0  0  0  0  0  0  0  0  0
   67.0255   76.9976   89.3124 C   0  0  0  0  0  0  0  0  0  0  0  0
   66.8597   75.9932   88.3824 C   0  0  0  0  0  0  0  0  0  0  0  0
   66.9980   76.5586   87.1837 N   0  0  0  0  0  0  0  0  0  0  0  0
   67.2366   77.8447   87.3685 N   0  0  0  0  0  0  0  0  0  0  0  0
   66.5818   74.5527   88.5903 C   0  0  0  0  0  0  0  0  0  0  0  0
   67.5355   73.9194   89.5669 C   0  0  0  0  0  0  0  0  0  0  0  0
   67.5325   72.4576   89.2130 C   0  0  0  0  0  0  0  0  0  0  0  0
   66.7830   72.3169   87.9087 C   0  0  0  0  0  0  0  0  0  0  0  0
   66.8270   73.7393   87.3361 C   0  0  0  0  0  0  0  0  0  0  0  0
   66.7280   81.2658   92.5124 C   0  0  0  0  0  0  0  0  0  0  0  0
   66.8897   80.3319   93.4843 O   0  0  0  0  0  0  0  0  0  0  0  0
   67.8652   76.8257   93.5204 C   0  0  0  0  0  0  0  0  0  0  0  0
   67.9161   78.1917   93.4526 C   0  0  0  0  0  0  0  0  0  0  0  0
   66.7521   78.9946   93.5632 C   0  0  0  0  0  0  0  0  0  0  0  0
   65.5807   78.2933   93.7418 C   0  0  0  0  0  0  0  0  0  0  0  0
   65.5264   76.8959   93.8117 C   0  0  0  0  0  0  0  0  0  0  0  0
   66.6725   76.1522   93.7010 C   0  0  0  0  0  0  0  0  0  0  0  0
   66.6706   74.7621   93.7639 O   0  0  0  0  0  0  0  0  0  0  0  0
   65.8648   74.2998   93.8862 H   0  0  0  0  0  0  0  0  0  0  0  0
   70.0094   76.2374   94.2535 O   0  0  0  0  0  0  0  0  0  0  0  0
   69.0890   76.0399   93.4016 C   0  0  0  0  0  0  0  0  0  0  0  0
   69.2279   75.1176   92.3933 O   0  0  0  0  0  0  0  0  0  0  0  0
   68.5343   74.9898   91.7764 H   0  0  0  0  0  0  0  0  0  0  0  0
 37 38  2  0  0  0
 38 39  1  0  0  0
 38 29  1  0  0  0
 29 30  2  0  0  0
 30 31  1  0  0  0
 31 28  1  0  0  0
 28 27  1  0  0  0
 27  1  1  0  0  0
  1  2  2  0  0  0
  2  3  1  0  0  0
  3  7  1  0  0  0
  7  8  2  0  0  0
  8  9  2  0  0  0
  9 10  2  0  0  0
 10 11  1  0  0  0
 11 12  2  0  0  0
 12 13  1  0  0  0
 13 14  2  0  0  0
 14 15  1  0  0  0
 15 16  2  0  0  0
  3  4  2  0  0  0
  4  5  1  0  0  0
  5 17  1  0  0  0
 17 18  1  0  0  0
 18 19  2  0  0  0
 19 22  1  0  0  0
 22 23  1  0  0  0
 23 24  1  0  0  0
 24 25  1  0  0  0
 25 26  1  0  0  0
 19 20  2  0  0  0
 20 21  2  0  0  0
  5  6  2  0  0  0
 31 32  2  0  0  0
 32 33  1  0  0  0
 33 34  2  0  0  0
 34 35  1  0  0  0
 34 29  1  0  0  0
  6  1  1  0  0  0
 16  7  1  0  0  0
 21 17  1  0  0  0
 16 11  1  0  0  0
 26 22  1  0  0  0
 39 40  1  0  0  0
 35 36  1  0  0  0
M  END
> <score>
-0.699296

> <minimizedAffinity>
-9.19027

> <CNNscore>
0.6134885550

> <CNNaffinity>
7.4533605576

> <CNN_VS>
4.5725512505

$$$$
HIPS7128


 46 51  0  0  0  0  0  0  0  0999 V2000
   67.3275   78.9488   88.1235 C   0  0  0  0  0  0  0  0  0  0  0  0
   67.8351   80.1522   87.6067 C   0  0  0  0  0  0  0  0  0  0  0  0
   67.8997   81.3015   88.4104 C   0  0  0  0  0  0  0  0  0  0  0  0
   67.4244   81.2459   89.7293 C   0  0  0  0  0  0  0  0  0  0  0  0
   66.9713   80.0367   90.2757 C   0  0  0  0  0  0  0  0  0  0  0  0
   66.9293   78.8877   89.4686 C   0  0  0  0  0  0  0  0  0  0  0  0
   68.4383   82.5701   87.8611 C   0  0  0  0  0  0  0  0  0  0  0  0
   67.6405   83.3059   86.9699 C   0  0  0  0  0  0  0  0  0  0  0  0
   68.0641   84.5009   86.4838 N   0  0  0  0  0  0  0  0  0  0  0  0
   69.2628   85.0329   86.8300 C   0  0  0  0  0  0  0  0  0  0  0  0
   70.1137   84.3431   87.7023 C   0  0  0  0  0  0  0  0  0  0  0  0
   71.3591   84.8851   88.0539 C   0  0  0  0  0  0  0  0  0  0  0  0
   72.2151   84.1828   88.9020 C   0  0  0  0  0  0  0  0  0  0  0  0
   71.8431   82.9312   89.3938 C   0  0  0  0  0  0  0  0  0  0  0  0
   70.6093   82.3762   89.0473 C   0  0  0  0  0  0  0  0  0  0  0  0
   69.7118   83.0842   88.2181 C   0  0  0  0  0  0  0  0  0  0  0  0
   66.5960   79.9773   91.6598 N   0  0  0  0  0  0  0  0  0  0  0  0
   65.8111   79.0514   92.2411 C   0  0  0  0  0  0  0  0  0  0  0  0
   65.8782   79.2939   93.5945 C   0  0  0  0  0  0  0  0  0  0  0  0
   66.6824   80.3563   93.8006 N   0  0  0  0  0  0  0  0  0  0  0  0
   67.1131   80.7422   92.6083 N   0  0  0  0  0  0  0  0  0  0  0  0
   65.2641   78.4681   94.6825 C   0  0  0  0  0  0  0  0  0  0  0  0
   65.2371   77.0879   94.3112 O   0  0  0  0  0  0  0  0  0  0  0  0
   66.2104   76.1349   94.6602 C   0  0  0  0  0  0  0  0  0  0  0  0
   65.9093   74.9767   95.4025 C   0  0  0  0  0  0  0  0  0  0  0  0
   66.9094   74.0422   95.6924 C   0  0  0  0  0  0  0  0  0  0  0  0
   68.2224   74.2489   95.2450 C   0  0  0  0  0  0  0  0  0  0  0  0
   68.5294   75.4182   94.5338 C   0  0  0  0  0  0  0  0  0  0  0  0
   67.5280   76.3503   94.2426 C   0  0  0  0  0  0  0  0  0  0  0  0
   69.3040   73.2575   95.5746 C   0  0  0  0  0  0  0  0  0  0  0  0
   70.2889   73.2661   94.5775 O   0  0  0  0  0  0  0  0  0  0  0  0
   69.8904   73.0232   93.7272 H   0  0  0  0  0  0  0  0  0  0  0  0
   67.2654   77.7205   87.2622 C   0  0  0  0  0  0  0  0  0  0  0  0
   66.4631   76.7338   87.9056 O   0  0  0  0  0  0  0  0  0  0  0  0
   68.5053   74.7606   90.2896 C   0  0  0  0  0  0  0  0  0  0  0  0
   67.9292   75.8364   89.5897 C   0  0  0  0  0  0  0  0  0  0  0  0
   66.9751   75.6202   88.5903 C   0  0  0  0  0  0  0  0  0  0  0  0
   66.5763   74.3055   88.2947 C   0  0  0  0  0  0  0  0  0  0  0  0
   67.1273   73.2300   88.9941 C   0  0  0  0  0  0  0  0  0  0  0  0
   68.0753   73.4431   90.0009 C   0  0  0  0  0  0  0  0  0  0  0  0
   68.5377   72.3318   90.7081 O   0  0  0  0  0  0  0  0  0  0  0  0
   68.2296   71.4748   90.4876 H   0  0  0  0  0  0  0  0  0  0  0  0
   69.8931   76.2363   91.5308 O   0  0  0  0  0  0  0  0  0  0  0  0
   69.5765   75.0438   91.2685 C   0  0  0  0  0  0  0  0  0  0  0  0
   70.2876   74.0042   91.8572 O   0  0  0  0  0  0  0  0  0  0  0  0
   70.0599   73.1151   91.6686 H   0  0  0  0  0  0  0  0  0  0  0  0
 43 44  2  0  0  0
 44 45  1  0  0  0
 44 35  1  0  0  0
 35 36  2  0  0  0
 36 37  1  0  0  0
 37 34  1  0  0  0
 34 33  1  0  0  0
 33  1  1  0  0  0
  1  2  2  0  0  0
  2  3  1  0  0  0
  3  7  1  0  0  0
  7  8  2  0  0  0
  8  9  2  0  0  0
  9 10  2  0  0  0
 10 11  1  0  0  0
 11 12  2  0  0  0
 12 13  1  0  0  0
 13 14  2  0  0  0
 14 15  1  0  0  0
 15 16  2  0  0  0
  3  4  2  0  0  0
  4  5  1  0  0  0
  5 17  1  0  0  0
 17 18  1  0  0  0
 18 19  2  0  0  0
 19 22  1  0  0  0
 22 23  1  0  0  0
 23 24  1  0  0  0
 24 25  2  0  0  0
 25 26  1  0  0  0
 26 27  2  0  0  0
 27 30  1  0  0  0
 30 31  1  0  0  0
 27 28  1  0  0  0
 28 29  2  0  0  0
 19 20  2  0  0  0
 20 21  2  0  0  0
  5  6  2  0  0  0
 37 38  2  0  0  0
 38 39  1  0  0  0
 39 40  2  0  0  0
 40 41  1  0  0  0
 40 35  1  0  0  0
  6  1  1  0  0  0
 16  7  1  0  0  0
 21 17  1  0  0  0
 16 11  1  0  0  0
 29 24  1  0  0  0
 45 46  1  0  0  0
 31 32  1  0  0  0
 41 42  1  0  0  0
M  END
> <score>
0.526927

> <minimizedAffinity>
-9.35348

> <CNNscore>
0.6313226819

> <CNNaffinity>
7.6533889771

> <CNN_VS>
4.8317580223

$$$$
HIPS7128


 46 51  0  0  0  0  0  0  0  0999 V2000
   66.9672   73.9674   88.7927 C   0  0  0  0  0  0  0  0  0  0  0  0
   67.4836   73.4914   90.0092 C   0  0  0  0  0  0  0  0  0  0  0  0
   68.1535   74.3587   90.8867 C   0  0  0  0  0  0  0  0  0  0  0  0
   68.3294   75.7027   90.5242 C   0  0  0  0  0  0  0  0  0  0  0  0
   67.7670   76.2038   89.3415 C   0  0  0  0  0  0  0  0  0  0  0  0
   67.0814   75.3315   88.4799 C   0  0  0  0  0  0  0  0  0  0  0  0
   68.6958   73.8522   92.1714 C   0  0  0  0  0  0  0  0  0  0  0  0
   69.9830   73.2907   92.1798 C   0  0  0  0  0  0  0  0  0  0  0  0
   70.5467   72.8649   93.3394 N   0  0  0  0  0  0  0  0  0  0  0  0
   69.9012   72.9588   94.5287 C   0  0  0  0  0  0  0  0  0  0  0  0
   68.6089   73.4944   94.5880 C   0  0  0  0  0  0  0  0  0  0  0  0
   67.9338   73.5829   95.8148 C   0  0  0  0  0  0  0  0  0  0  0  0
   66.6366   74.0924   95.8660 C   0  0  0  0  0  0  0  0  0  0  0  0
   65.9982   74.5035   94.6954 C   0  0  0  0  0  0  0  0  0  0  0  0
   66.6552   74.4155   93.4662 C   0  0  0  0  0  0  0  0  0  0  0  0
   67.9814   73.9353   93.3946 C   0  0  0  0  0  0  0  0  0  0  0  0
   67.8623   77.6051   89.0460 N   0  0  0  0  0  0  0  0  0  0  0  0
   67.0947   78.2995   88.1860 C   0  0  0  0  0  0  0  0  0  0  0  0
   67.4277   79.6232   88.3651 C   0  0  0  0  0  0  0  0  0  0  0  0
   68.3871   79.7002   89.3092 N   0  0  0  0  0  0  0  0  0  0  0  0
   68.6218   78.4600   89.7128 N   0  0  0  0  0  0  0  0  0  0  0  0
   66.7746   80.8052   87.7176 C   0  0  0  0  0  0  0  0  0  0  0  0
   67.7297   81.5575   86.9657 O   0  0  0  0  0  0  0  0  0  0  0  0
   68.2928   82.7827   87.3649 C   0  0  0  0  0  0  0  0  0  0  0  0
   69.1941   82.8907   88.4415 C   0  0  0  0  0  0  0  0  0  0  0  0
   69.7530   84.1293   88.7747 C   0  0  0  0  0  0  0  0  0  0  0  0
   69.4222   85.2761   88.0385 C   0  0  0  0  0  0  0  0  0  0  0  0
   68.4996   85.1746   86.9869 C   0  0  0  0  0  0  0  0  0  0  0  0
   67.9436   83.9353   86.6534 C   0  0  0  0  0  0  0  0  0  0  0  0
   70.0039   86.6126   88.4087 C   0  0  0  0  0  0  0  0  0  0  0  0
   71.3841   86.6241   88.1655 O   0  0  0  0  0  0  0  0  0  0  0  0
   71.8124   85.9375   88.7003 H   0  0  0  0  0  0  0  0  0  0  0  0
   66.2464   73.0376   87.8597 C   0  0  0  0  0  0  0  0  0  0  0  0
   67.1572   72.0518   87.3803 O   0  0  0  0  0  0  0  0  0  0  0  0
   65.6568   70.9284   84.1811 C   0  0  0  0  0  0  0  0  0  0  0  0
   65.8658   71.5965   85.4014 C   0  0  0  0  0  0  0  0  0  0  0  0
   67.0239   71.3800   86.1547 C   0  0  0  0  0  0  0  0  0  0  0  0
   68.0002   70.4913   85.6729 C   0  0  0  0  0  0  0  0  0  0  0  0
   67.8132   69.8352   84.4547 C   0  0  0  0  0  0  0  0  0  0  0  0
   66.6600   70.0564   83.6939 C   0  0  0  0  0  0  0  0  0  0  0  0
   66.5640   69.4217   82.4542 O   0  0  0  0  0  0  0  0  0  0  0  0
   67.2489   68.8510   82.1658 H   0  0  0  0  0  0  0  0  0  0  0  0
   63.2836   70.9991   84.0998 O   0  0  0  0  0  0  0  0  0  0  0  0
   64.3725   71.1252   83.4758 C   0  0  0  0  0  0  0  0  0  0  0  0
   64.3497   71.3843   82.1100 O   0  0  0  0  0  0  0  0  0  0  0  0
   65.1534   71.4796   81.6378 H   0  0  0  0  0  0  0  0  0  0  0  0
 43 44  2  0  0  0
 44 45  1  0  0  0
 44 35  1  0  0  0
 35 36  2  0  0  0
 36 37  1  0  0  0
 37 34  1  0  0  0
 34 33  1  0  0  0
 33  1  1  0  0  0
  1  2  2  0  0  0
  2  3  1  0  0  0
  3  7  1  0  0  0
  7  8  2  0  0  0
  8  9  2  0  0  0
  9 10  2  0  0  0
 10 11  1  0  0  0
 11 12  2  0  0  0
 12 13  1  0  0  0
 13 14  2  0  0  0
 14 15  1  0  0  0
 15 16  2  0  0  0
  3  4  2  0  0  0
  4  5  1  0  0  0
  5 17  1  0  0  0
 17 18  1  0  0  0
 18 19  2  0  0  0
 19 22  1  0  0  0
 22 23  1  0  0  0
 23 24  1  0  0  0
 24 25  2  0  0  0
 25 26  1  0  0  0
 26 27  2  0  0  0
 27 30  1  0  0  0
 30 31  1  0  0  0
 27 28  1  0  0  0
 28 29  2  0  0  0
 19 20  2  0  0  0
 20 21  2  0  0  0
  5  6  2  0  0  0
 37 38  2  0  0  0
 38 39  1  0  0  0
 39 40  2  0  0  0
 40 41  1  0  0  0
 40 35  1  0  0  0
  6  1  1  0  0  0
 16  7  1  0  0  0
 21 17  1  0  0  0
 16 11  1  0  0  0
 29 24  1  0  0  0
 45 46  1  0  0  0
 31 32  1  0  0  0
 41 42  1  0  0  0
M  END
> <score>
0.526927

> <minimizedAffinity>
-10.31868

> <CNNscore>
0.4709788561

> <CNNaffinity>
7.2858381271

> <CNN_VS>
3.4314756393

$$$$
HIPS7128


 46 51  0  0  0  0  0  0  0  0999 V2000
   67.1106   78.6284   91.0449 C   0  0  0  0  0  0  0  0  0  0  0  0
   67.0834   77.6843   90.0052 C   0  0  0  0  0  0  0  0  0  0  0  0
   67.1740   78.0966   88.6662 C   0  0  0  0  0  0  0  0  0  0  0  0
   67.2625   79.4658   88.3728 C   0  0  0  0  0  0  0  0  0  0  0  0
   67.3511   80.4135   89.4024 C   0  0  0  0  0  0  0  0  0  0  0  0
   67.2794   79.9884   90.7394 C   0  0  0  0  0  0  0  0  0  0  0  0
   67.1466   77.0960   87.5711 C   0  0  0  0  0  0  0  0  0  0  0  0
   67.2821   77.5474   86.2482 C   0  0  0  0  0  0  0  0  0  0  0  0
   67.3205   76.6671   85.2152 N   0  0  0  0  0  0  0  0  0  0  0  0
   67.2292   75.3277   85.4091 C   0  0  0  0  0  0  0  0  0  0  0  0
   67.0767   74.8123   86.7020 C   0  0  0  0  0  0  0  0  0  0  0  0
   66.9709   73.4281   86.9054 C   0  0  0  0  0  0  0  0  0  0  0  0
   66.7924   72.9202   88.1920 C   0  0  0  0  0  0  0  0  0  0  0  0
   66.7040   73.7870   89.2818 C   0  0  0  0  0  0  0  0  0  0  0  0
   66.8011   75.1674   89.0940 C   0  0  0  0  0  0  0  0  0  0  0  0
   67.0167   75.7024   87.8049 C   0  0  0  0  0  0  0  0  0  0  0  0
   67.5547   81.7973   89.0806 N   0  0  0  0  0  0  0  0  0  0  0  0
   67.9358   82.2986   87.8912 C   0  0  0  0  0  0  0  0  0  0  0  0
   67.8249   83.6661   88.0036 C   0  0  0  0  0  0  0  0  0  0  0  0
   67.3964   83.9609   89.2476 N   0  0  0  0  0  0  0  0  0  0  0  0
   67.2294   82.8054   89.8744 N   0  0  0  0  0  0  0  0  0  0  0  0
   68.0305   84.6726   86.9139 C   0  0  0  0  0  0  0  0  0  0  0  0
   69.4251   84.8827   86.6806 O   0  0  0  0  0  0  0  0  0  0  0  0
   70.2165   85.8551   87.3175 C   0  0  0  0  0  0  0  0  0  0  0  0
   69.6671   86.9811   87.9606 C   0  0  0  0  0  0  0  0  0  0  0  0
   70.4981   87.9003   88.6103 C   0  0  0  0  0  0  0  0  0  0  0  0
   71.8872   87.7087   88.6289 C   0  0  0  0  0  0  0  0  0  0  0  0
   72.4372   86.6048   87.9607 C   0  0  0  0  0  0  0  0  0  0  0  0
   71.6050   85.6855   87.3138 C   0  0  0  0  0  0  0  0  0  0  0  0
   72.7845   88.7070   89.3069 C   0  0  0  0  0  0  0  0  0  0  0  0
   73.9260   88.9398   88.5277 O   0  0  0  0  0  0  0  0  0  0  0  0
   74.4133   88.1091   88.4119 H   0  0  0  0  0  0  0  0  0  0  0  0
   67.0191   78.1826   92.4758 C   0  0  0  0  0  0  0  0  0  0  0  0
   66.4665   76.8699   92.5260 O   0  0  0  0  0  0  0  0  0  0  0  0
   68.2503   74.1198   94.2589 C   0  0  0  0  0  0  0  0  0  0  0  0
   67.9053   75.1146   93.3259 C   0  0  0  0  0  0  0  0  0  0  0  0
   66.7755   75.9178   93.5105 C   0  0  0  0  0  0  0  0  0  0  0  0
   65.9833   75.7355   94.6569 C   0  0  0  0  0  0  0  0  0  0  0  0
   66.3246   74.7637   95.5995 C   0  0  0  0  0  0  0  0  0  0  0  0
   67.4593   73.9645   95.4227 C   0  0  0  0  0  0  0  0  0  0  0  0
   67.7832   73.0577   96.4336 O   0  0  0  0  0  0  0  0  0  0  0  0
   67.2347   72.9833   97.1896 H   0  0  0  0  0  0  0  0  0  0  0  0
   69.4855   72.1063   94.5119 O   0  0  0  0  0  0  0  0  0  0  0  0
   69.4006   73.2391   93.9638 C   0  0  0  0  0  0  0  0  0  0  0  0
   70.4288   73.6748   93.1356 O   0  0  0  0  0  0  0  0  0  0  0  0
   70.3748   74.5148   92.7240 H   0  0  0  0  0  0  0  0  0  0  0  0
 43 44  2  0  0  0
 44 45  1  0  0  0
 44 35  1  0  0  0
 35 36  2  0  0  0
 36 37  1  0  0  0
 37 34  1  0  0  0
 34 33  1  0  0  0
 33  1  1  0  0  0
  1  2  2  0  0  0
  2  3  1  0  0  0
  3  7  1  0  0  0
  7  8  2  0  0  0
  8  9  2  0  0  0
  9 10  2  0  0  0
 10 11  1  0  0  0
 11 12  2  0  0  0
 12 13  1  0  0  0
 13 14  2  0  0  0
 14 15  1  0  0  0
 15 16  2  0  0  0
  3  4  2  0  0  0
  4  5  1  0  0  0
  5 17  1  0  0  0
 17 18  1  0  0  0
 18 19  2  0  0  0
 19 22  1  0  0  0
 22 23  1  0  0  0
 23 24  1  0  0  0
 24 25  2  0  0  0
 25 26  1  0  0  0
 26 27  2  0  0  0
 27 30  1  0  0  0
 30 31  1  0  0  0
 27 28  1  0  0  0
 28 29  2  0  0  0
 19 20  2  0  0  0
 20 21  2  0  0  0
  5  6  2  0  0  0
 37 38  2  0  0  0
 38 39  1  0  0  0
 39 40  2  0  0  0
 40 41  1  0  0  0
 40 35  1  0  0  0
  6  1  1  0  0  0
 16  7  1  0  0  0
 21 17  1  0  0  0
 16 11  1  0  0  0
 29 24  1  0  0  0
 45 46  1  0  0  0
 31 32  1  0  0  0
 41 42  1  0  0  0
M  END
> <score>
0.526927

> <minimizedAffinity>
-9.23361

> <CNNscore>
0.4658343792

> <CNNaffinity>
7.2143783569

> <CNN_VS>
3.3607053757

$$$$
HIPS7140


 35 37  0  0  0  0  0  0  0  0999 V2000
   66.7567   77.2837   93.3483 C   0  0  0  0  0  0  0  0  0  0  0  0
   67.4300   77.4355   92.1740 N   0  0  0  0  0  0  0  0  0  0  0  0
   67.2664   78.5425   91.4049 C   0  0  0  0  0  0  0  0  0  0  0  0
   66.4011   79.5606   91.8190 C   0  0  0  0  0  0  0  0  0  0  0  0
   65.7064   79.3848   93.0207 C   0  0  0  0  0  0  0  0  0  0  0  0
   65.8988   78.2598   93.7569 N   0  0  0  0  0  0  0  0  0  0  0  0
   68.3389   74.1852   94.8983 C   0  0  0  0  0  0  0  0  0  0  0  0
   67.2817   73.7282   95.6980 C   0  0  0  0  0  0  0  0  0  0  0  0
   66.0690   74.4173   95.7316 C   0  0  0  0  0  0  0  0  0  0  0  0
   65.8954   75.5722   94.9678 C   0  0  0  0  0  0  0  0  0  0  0  0
   66.9417   76.0585   94.1638 C   0  0  0  0  0  0  0  0  0  0  0  0
   68.1679   75.3649   94.1475 C   0  0  0  0  0  0  0  0  0  0  0  0
   70.0661   72.5885   93.9040 C   0  0  0  0  0  0  0  0  0  0  0  0
   69.2805   72.1576   93.0175 O   0  0  0  0  0  0  0  0  0  0  0  0
   69.5930   73.4759   94.9291 N   0  0  0  0  0  0  0  0  0  0  0  0
   70.1709   73.6104   95.7147 H   0  0  0  0  0  0  0  0  0  0  0  0
   71.4078   72.1802   93.9371 O   0  0  0  0  0  0  0  0  0  0  0  0
   71.1143   70.0998   95.0828 C   0  0  0  0  0  0  0  0  0  0  0  0
   71.8849   70.8269   93.9693 C   0  0  0  0  0  0  0  0  0  0  0  0
   71.6136   70.1199   92.6295 C   0  0  0  0  0  0  0  0  0  0  0  0
   73.3882   70.7941   94.3035 C   0  0  0  0  0  0  0  0  0  0  0  0
   66.1838   80.7719   90.9631 C   0  0  0  0  0  0  0  0  0  0  0  0
   66.6994   80.5233   89.6586 O   0  0  0  0  0  0  0  0  0  0  0  0
   67.3632   81.4768   88.8732 C   0  0  0  0  0  0  0  0  0  0  0  0
   67.2531   81.5055   87.4734 C   0  0  0  0  0  0  0  0  0  0  0  0
   67.9188   82.4862   86.7385 C   0  0  0  0  0  0  0  0  0  0  0  0
   68.6966   83.4570   87.3798 C   0  0  0  0  0  0  0  0  0  0  0  0
   69.2622   84.4586   86.5893 O   0  0  0  0  0  0  0  0  0  0  0  0
   68.8523   83.4123   88.7872 C   0  0  0  0  0  0  0  0  0  0  0  0
   68.1641   82.4259   89.5166 C   0  0  0  0  0  0  0  0  0  0  0  0
   69.1346   84.4509   85.6610 H   0  0  0  0  0  0  0  0  0  0  0  0
   69.7236   84.3495   89.5294 C   0  0  0  0  0  0  0  0  0  0  0  0
   69.3635   84.8278   90.6396 O   0  0  0  0  0  0  0  0  0  0  0  0
   70.9352   84.7521   88.9722 O   0  0  0  0  0  0  0  0  0  0  0  0
   71.2110   84.4022   88.1479 H   0  0  0  0  0  0  0  0  0  0  0  0
 18 19  1  0  0  0
 19 20  1  0  0  0
 19 21  1  0  0  0
 19 17  1  0  0  0
 17 13  1  0  0  0
 13 14  2  0  0  0
 13 15  1  0  0  0
 15  7  1  0  0  0
  7  8  2  0  0  0
  8  9  1  0  0  0
  9 10  2  0  0  0
 10 11  1  0  0  0
 11  1  1  0  0  0
  1  2  2  0  0  0
  2  3  2  0  0  0
  3  4  2  0  0  0
  4 22  1  0  0  0
 22 23  1  0  0  0
 23 24  1  0  0  0
 24 25  2  0  0  0
 25 26  1  0  0  0
 26 27  2  0  0  0
 27 28  1  0  0  0
 27 29  1  0  0  0
 29 32  1  0  0  0
 32 33  2  0  0  0
 32 34  1  0  0  0
 29 30  2  0  0  0
  4  5  1  0  0  0
  5  6  2  0  0  0
 11 12  2  0  0  0
 12  7  1  0  0  0
  6  1  2  0  0  0
 30 24  1  0  0  0
 15 16  1  0  0  0
 28 31  1  0  0  0
 34 35  1  0  0  0
M  END
> <score>
0.478913

> <minimizedAffinity>
-7.74350

> <CNNscore>
0.4269365966

> <CNNaffinity>
5.7300748825

> <CNN_VS>
2.4463787079

$$$$
HIPS7140


 35 37  0  0  0  0  0  0  0  0999 V2000
   66.9028   76.3670   88.5319 C   0  0  0  0  0  0  0  0  0  0  0  0
   66.8915   77.0478   89.7116 N   0  0  0  0  0  0  0  0  0  0  0  0
   66.7990   78.4021   89.7437 C   0  0  0  0  0  0  0  0  0  0  0  0
   66.7020   79.1254   88.5503 C   0  0  0  0  0  0  0  0  0  0  0  0
   66.7282   78.4135   87.3460 C   0  0  0  0  0  0  0  0  0  0  0  0
   66.8246   77.0589   87.3610 N   0  0  0  0  0  0  0  0  0  0  0  0
   66.5576   72.7268   87.4661 C   0  0  0  0  0  0  0  0  0  0  0  0
   67.2273   72.0853   88.5178 C   0  0  0  0  0  0  0  0  0  0  0  0
   67.7825   72.8264   89.5614 C   0  0  0  0  0  0  0  0  0  0  0  0
   67.6771   74.2179   89.5691 C   0  0  0  0  0  0  0  0  0  0  0  0
   67.0190   74.8882   88.5226 C   0  0  0  0  0  0  0  0  0  0  0  0
   66.4745   74.1331   87.4650 C   0  0  0  0  0  0  0  0  0  0  0  0
   66.7822   71.5525   85.2096 C   0  0  0  0  0  0  0  0  0  0  0  0
   67.8687   72.1248   84.9257 O   0  0  0  0  0  0  0  0  0  0  0  0
   66.0421   71.9316   86.3803 N   0  0  0  0  0  0  0  0  0  0  0  0
   65.1092   71.6242   86.4464 H   0  0  0  0  0  0  0  0  0  0  0  0
   66.2484   70.5637   84.3697 O   0  0  0  0  0  0  0  0  0  0  0  0
   63.9475   70.7910   83.7520 C   0  0  0  0  0  0  0  0  0  0  0  0
   65.3953   70.7801   83.2358 C   0  0  0  0  0  0  0  0  0  0  0  0
   65.7002   72.1352   82.5733 C   0  0  0  0  0  0  0  0  0  0  0  0
   65.5507   69.6336   82.2189 C   0  0  0  0  0  0  0  0  0  0  0  0
   66.6350   80.6228   88.5693 C   0  0  0  0  0  0  0  0  0  0  0  0
   67.3533   81.1387   87.4525 O   0  0  0  0  0  0  0  0  0  0  0  0
   68.0220   82.3713   87.4404 C   0  0  0  0  0  0  0  0  0  0  0  0
   67.5216   83.4910   86.7561 C   0  0  0  0  0  0  0  0  0  0  0  0
   68.2155   84.7003   86.7901 C   0  0  0  0  0  0  0  0  0  0  0  0
   69.4105   84.8201   87.5085 C   0  0  0  0  0  0  0  0  0  0  0  0
   70.0042   86.0817   87.5707 O   0  0  0  0  0  0  0  0  0  0  0  0
   69.9493   83.6866   88.1659 C   0  0  0  0  0  0  0  0  0  0  0  0
   69.2318   82.4773   88.1343 C   0  0  0  0  0  0  0  0  0  0  0  0
   69.6147   86.8055   87.1207 H   0  0  0  0  0  0  0  0  0  0  0  0
   71.2479   83.7103   88.8741 C   0  0  0  0  0  0  0  0  0  0  0  0
   71.5266   82.8419   89.7454 O   0  0  0  0  0  0  0  0  0  0  0  0
   72.1554   84.7351   88.6154 O   0  0  0  0  0  0  0  0  0  0  0  0
   71.9570   85.3847   87.9700 H   0  0  0  0  0  0  0  0  0  0  0  0
 18 19  1  0  0  0
 19 20  1  0  0  0
 19 21  1  0  0  0
 19 17  1  0  0  0
 17 13  1  0  0  0
 13 14  2  0  0  0
 13 15  1  0  0  0
 15  7  1  0  0  0
  7  8  2  0  0  0
  8  9  1  0  0  0
  9 10  2  0  0  0
 10 11  1  0  0  0
 11  1  1  0  0  0
  1  2  2  0  0  0
  2  3  2  0  0  0
  3  4  2  0  0  0
  4 22  1  0  0  0
 22 23  1  0  0  0
 23 24  1  0  0  0
 24 25  2  0  0  0
 25 26  1  0  0  0
 26 27  2  0  0  0
 27 28  1  0  0  0
 27 29  1  0  0  0
 29 32  1  0  0  0
 32 33  2  0  0  0
 32 34  1  0  0  0
 29 30  2  0  0  0
  4  5  1  0  0  0
  5  6  2  0  0  0
 11 12  2  0  0  0
 12  7  1  0  0  0
  6  1  2  0  0  0
 30 24  1  0  0  0
 15 16  1  0  0  0
 28 31  1  0  0  0
 34 35  1  0  0  0
M  END
> <score>
0.478913

> <minimizedAffinity>
-7.84884

> <CNNscore>
0.4197205007

> <CNNaffinity>
6.0116300583

> <CNN_VS>
2.5232043266

$$$$
HIPS7140


 35 37  0  0  0  0  0  0  0  0999 V2000
   67.8416   77.0421   89.4812 C   0  0  0  0  0  0  0  0  0  0  0  0
   67.1709   76.0134   88.8919 N   0  0  0  0  0  0  0  0  0  0  0  0
   67.3776   74.7265   89.2724 C   0  0  0  0  0  0  0  0  0  0  0  0
   68.2861   74.4367   90.2958 C   0  0  0  0  0  0  0  0  0  0  0  0
   68.9774   75.5023   90.8826 C   0  0  0  0  0  0  0  0  0  0  0  0
   68.7410   76.7740   90.4686 N   0  0  0  0  0  0  0  0  0  0  0  0
   68.1786   80.8193   89.1266 C   0  0  0  0  0  0  0  0  0  0  0  0
   67.1532   81.0848   88.2079 C   0  0  0  0  0  0  0  0  0  0  0  0
   66.3607   80.0494   87.7113 C   0  0  0  0  0  0  0  0  0  0  0  0
   66.5815   78.7350   88.1247 C   0  0  0  0  0  0  0  0  0  0  0  0
   67.6088   78.4385   89.0380 C   0  0  0  0  0  0  0  0  0  0  0  0
   68.4140   79.4881   89.5228 C   0  0  0  0  0  0  0  0  0  0  0  0
   70.4364   81.8520   89.7244 C   0  0  0  0  0  0  0  0  0  0  0  0
   71.0378   80.7444   89.7220 O   0  0  0  0  0  0  0  0  0  0  0  0
   69.0090   81.9074   89.5778 N   0  0  0  0  0  0  0  0  0  0  0  0
   68.5624   82.7553   89.8032 H   0  0  0  0  0  0  0  0  0  0  0  0
   71.1383   83.0520   89.9124 O   0  0  0  0  0  0  0  0  0  0  0  0
   71.0318   83.4494   87.5548 C   0  0  0  0  0  0  0  0  0  0  0  0
   71.3759   84.0629   88.9215 C   0  0  0  0  0  0  0  0  0  0  0  0
   70.4739   85.2864   89.1619 C   0  0  0  0  0  0  0  0  0  0  0  0
   72.8597   84.4767   88.9200 C   0  0  0  0  0  0  0  0  0  0  0  0
   68.5505   73.0182   90.7019 C   0  0  0  0  0  0  0  0  0  0  0  0
   69.5317   73.0009   91.7345 O   0  0  0  0  0  0  0  0  0  0  0  0
   70.0518   71.8350   92.3149 C   0  0  0  0  0  0  0  0  0  0  0  0
   69.2845   70.6702   92.4782 C   0  0  0  0  0  0  0  0  0  0  0  0
   69.8540   69.5300   93.0445 C   0  0  0  0  0  0  0  0  0  0  0  0
   71.1935   69.5247   93.4500 C   0  0  0  0  0  0  0  0  0  0  0  0
   71.7202   68.3235   93.9270 O   0  0  0  0  0  0  0  0  0  0  0  0
   71.9657   70.7067   93.3323 C   0  0  0  0  0  0  0  0  0  0  0  0
   71.3821   71.8447   92.7468 C   0  0  0  0  0  0  0  0  0  0  0  0
   71.1744   67.5644   93.9890 H   0  0  0  0  0  0  0  0  0  0  0  0
   73.3605   70.8066   93.8148 C   0  0  0  0  0  0  0  0  0  0  0  0
   73.6774   70.4062   94.9681 O   0  0  0  0  0  0  0  0  0  0  0  0
   74.3285   71.3988   93.0067 O   0  0  0  0  0  0  0  0  0  0  0  0
   74.1025   71.6992   92.1484 H   0  0  0  0  0  0  0  0  0  0  0  0
 18 19  1  0  0  0
 19 20  1  0  0  0
 19 21  1  0  0  0
 19 17  1  0  0  0
 17 13  1  0  0  0
 13 14  2  0  0  0
 13 15  1  0  0  0
 15  7  1  0  0  0
  7  8  2  0  0  0
  8  9  1  0  0  0
  9 10  2  0  0  0
 10 11  1  0  0  0
 11  1  1  0  0  0
  1  2  2  0  0  0
  2  3  2  0  0  0
  3  4  2  0  0  0
  4 22  1  0  0  0
 22 23  1  0  0  0
 23 24  1  0  0  0
 24 25  2  0  0  0
 25 26  1  0  0  0
 26 27  2  0  0  0
 27 28  1  0  0  0
 27 29  1  0  0  0
 29 32  1  0  0  0
 32 33  2  0  0  0
 32 34  1  0  0  0
 29 30  2  0  0  0
  4  5  1  0  0  0
  5  6  2  0  0  0
 11 12  2  0  0  0
 12  7  1  0  0  0
  6  1  2  0  0  0
 30 24  1  0  0  0
 15 16  1  0  0  0
 28 31  1  0  0  0
 34 35  1  0  0  0
M  END
> <score>
0.478913

> <minimizedAffinity>
-7.30169

> <CNNscore>
0.4120661020

> <CNNaffinity>
5.6500186920

> <CNN_VS>
2.3281812668

$$$$
HIPS7239


 35 39  0  0  0  0  0  0  0  0999 V2000
   66.2322   79.5973   91.5602 C   0  0  0  0  0  0  0  0  0  0  0  0
   66.7464   78.4166   90.9903 C   0  0  0  0  0  0  0  0  0  0  0  0
   66.9488   77.2809   91.7775 C   0  0  0  0  0  0  0  0  0  0  0  0
   66.6646   77.3105   93.1510 C   0  0  0  0  0  0  0  0  0  0  0  0
   66.1474   78.4824   93.7215 C   0  0  0  0  0  0  0  0  0  0  0  0
   65.9430   79.6187   92.9342 C   0  0  0  0  0  0  0  0  0  0  0  0
   66.8887   76.1100   93.9863 C   0  0  0  0  0  0  0  0  0  0  0  0
   65.8417   75.6768   94.8182 C   0  0  0  0  0  0  0  0  0  0  0  0
   65.9660   74.5060   95.5664 C   0  0  0  0  0  0  0  0  0  0  0  0
   67.1343   73.7505   95.4917 C   0  0  0  0  0  0  0  0  0  0  0  0
   68.1910   74.1717   94.6825 C   0  0  0  0  0  0  0  0  0  0  0  0
   68.0948   75.3592   93.9333 C   0  0  0  0  0  0  0  0  0  0  0  0
   69.2786   75.8002   93.1539 C   0  0  0  0  0  0  0  0  0  0  0  0
   70.2082   76.6635   93.6127 N   0  0  0  0  0  0  0  0  0  0  0  0
   71.0587   76.8165   92.6109 N   0  0  0  0  0  0  0  0  0  0  0  0
   70.6573   76.0836   91.5877 N   0  0  0  0  0  0  0  0  0  0  0  0
   69.5433   75.4380   91.8828 N   0  0  0  0  0  0  0  0  0  0  0  0
   71.1247   76.0264   90.7231 H   0  0  0  0  0  0  0  0  0  0  0  0
   66.0449   80.8619   90.7525 C   0  0  0  0  0  0  0  0  0  0  0  0
   67.5347   80.6463   88.7559 C   0  0  0  0  0  0  0  0  0  0  0  0
   68.6396   81.1730   88.1732 N   0  0  0  0  0  0  0  0  0  0  0  0
   69.0434   82.0863   89.0732 C   0  0  0  0  0  0  0  0  0  0  0  0
   70.1205   82.9560   88.9390 C   0  0  0  0  0  0  0  0  0  0  0  0
   70.3558   83.8748   89.9709 C   0  0  0  0  0  0  0  0  0  0  0  0
   69.5334   83.8895   91.1151 C   0  0  0  0  0  0  0  0  0  0  0  0
   68.4583   82.9823   91.2513 C   0  0  0  0  0  0  0  0  0  0  0  0
   68.2197   82.0973   90.1732 C   0  0  0  0  0  0  0  0  0  0  0  0
   67.2343   81.1927   89.9604 N   0  0  0  0  0  0  0  0  0  0  0  0
   67.7177   82.9617   92.5227 C   0  0  0  0  0  0  0  0  0  0  0  0
   68.0455   82.1481   93.4275 O   0  0  0  0  0  0  0  0  0  0  0  0
   66.6084   83.7814   92.7019 O   0  0  0  0  0  0  0  0  0  0  0  0
   66.3608   84.3879   92.0319 H   0  0  0  0  0  0  0  0  0  0  0  0
   66.7613   79.6376   88.1704 O   0  0  0  0  0  0  0  0  0  0  0  0
   66.6044   77.3180   87.4873 C   0  0  0  0  0  0  0  0  0  0  0  0
   67.2971   78.6599   87.2832 C   0  0  0  0  0  0  0  0  0  0  0  0
 34 35  1  0  0  0
 35 33  1  0  0  0
 33 20  1  0  0  0
 20 21  2  0  0  0
 21 22  2  0  0  0
 22 23  2  0  0  0
 23 24  1  0  0  0
 24 25  2  0  0  0
 25 26  1  0  0  0
 26 29  1  0  0  0
 29 30  2  0  0  0
 29 31  1  0  0  0
 26 27  2  0  0  0
 27 28  1  0  0  0
 28 19  1  0  0  0
 19  1  1  0  0  0
  1  2  2  0  0  0
  2  3  1  0  0  0
  3  4  2  0  0  0
  4  7  1  0  0  0
  7  8  2  0  0  0
  8  9  1  0  0  0
  9 10  2  0  0  0
 10 11  1  0  0  0
 11 12  2  0  0  0
 12 13  1  0  0  0
 13 14  2  0  0  0
 14 15  2  0  0  0
 15 16  1  0  0  0
 16 17  1  0  0  0
  4  5  1  0  0  0
  5  6  2  0  0  0
 28 20  1  0  0  0
  6  1  1  0  0  0
 27 22  1  0  0  0
 12  7  1  0  0  0
 17 13  2  0  0  0
 31 32  1  0  0  0
 16 18  1  0  0  0
M  END
> <score>
0.59379

> <minimizedAffinity>
-7.53390

> <CNNscore>
0.5704807043

> <CNNaffinity>
6.8305492401

> <CNN_VS>
3.8966965675

$$$$
HIPS7239


 35 39  0  0  0  0  0  0  0  0999 V2000
   69.2032   76.3129   90.9743 C   0  0  0  0  0  0  0  0  0  0  0  0
   67.8423   76.6293   90.7982 C   0  0  0  0  0  0  0  0  0  0  0  0
   67.4682   77.7939   90.1242 C   0  0  0  0  0  0  0  0  0  0  0  0
   68.4445   78.6748   89.6355 C   0  0  0  0  0  0  0  0  0  0  0  0
   69.8007   78.3609   89.8039 C   0  0  0  0  0  0  0  0  0  0  0  0
   70.1760   77.1950   90.4767 C   0  0  0  0  0  0  0  0  0  0  0  0
   68.0474   79.9134   88.9303 C   0  0  0  0  0  0  0  0  0  0  0  0
   68.1619   81.1336   89.6188 C   0  0  0  0  0  0  0  0  0  0  0  0
   67.8798   82.3404   88.9785 C   0  0  0  0  0  0  0  0  0  0  0  0
   67.4833   82.3461   87.6428 C   0  0  0  0  0  0  0  0  0  0  0  0
   67.3497   81.1438   86.9461 C   0  0  0  0  0  0  0  0  0  0  0  0
   67.6112   79.9134   87.5772 C   0  0  0  0  0  0  0  0  0  0  0  0
   67.3750   78.6633   86.8123 C   0  0  0  0  0  0  0  0  0  0  0  0
   66.2841   77.8827   86.9561 N   0  0  0  0  0  0  0  0  0  0  0  0
   66.4787   76.8659   86.1324 N   0  0  0  0  0  0  0  0  0  0  0  0
   67.6403   77.0203   85.5223 N   0  0  0  0  0  0  0  0  0  0  0  0
   68.2367   78.1280   85.9248 N   0  0  0  0  0  0  0  0  0  0  0  0
   68.0108   76.3950   84.8583 H   0  0  0  0  0  0  0  0  0  0  0  0
   69.6489   75.0875   91.7403 C   0  0  0  0  0  0  0  0  0  0  0  0
   67.9051   73.2981   91.6428 C   0  0  0  0  0  0  0  0  0  0  0  0
   66.9367   72.6953   92.3755 N   0  0  0  0  0  0  0  0  0  0  0  0
   66.9470   73.4011   93.5195 C   0  0  0  0  0  0  0  0  0  0  0  0
   66.1672   73.1581   94.6453 C   0  0  0  0  0  0  0  0  0  0  0  0
   66.3564   73.9789   95.7654 C   0  0  0  0  0  0  0  0  0  0  0  0
   67.2938   75.0304   95.7300 C   0  0  0  0  0  0  0  0  0  0  0  0
   68.0610   75.2837   94.5703 C   0  0  0  0  0  0  0  0  0  0  0  0
   67.8786   74.4102   93.4720 C   0  0  0  0  0  0  0  0  0  0  0  0
   68.5142   74.3298   92.2786 N   0  0  0  0  0  0  0  0  0  0  0  0
   68.9280   76.4725   94.5515 C   0  0  0  0  0  0  0  0  0  0  0  0
   68.5113   77.5458   94.0392 O   0  0  0  0  0  0  0  0  0  0  0  0
   70.2334   76.3966   95.0257 O   0  0  0  0  0  0  0  0  0  0  0  0
   70.5476   75.6006   95.4074 H   0  0  0  0  0  0  0  0  0  0  0  0
   68.2589   72.8927   90.3510 O   0  0  0  0  0  0  0  0  0  0  0  0
   66.9649   74.0214   88.6412 C   0  0  0  0  0  0  0  0  0  0  0  0
   67.3085   72.6949   89.3081 C   0  0  0  0  0  0  0  0  0  0  0  0
 34 35  1  0  0  0
 35 33  1  0  0  0
 33 20  1  0  0  0
 20 21  2  0  0  0
 21 22  2  0  0  0
 22 23  2  0  0  0
 23 24  1  0  0  0
 24 25  2  0  0  0
 25 26  1  0  0  0
 26 29  1  0  0  0
 29 30  2  0  0  0
 29 31  1  0  0  0
 26 27  2  0  0  0
 27 28  1  0  0  0
 28 19  1  0  0  0
 19  1  1  0  0  0
  1  2  2  0  0  0
  2  3  1  0  0  0
  3  4  2  0  0  0
  4  7  1  0  0  0
  7  8  2  0  0  0
  8  9  1  0  0  0
  9 10  2  0  0  0
 10 11  1  0  0  0
 11 12  2  0  0  0
 12 13  1  0  0  0
 13 14  2  0  0  0
 14 15  2  0  0  0
 15 16  1  0  0  0
 16 17  1  0  0  0
  4  5  1  0  0  0
  5  6  2  0  0  0
 28 20  1  0  0  0
  6  1  1  0  0  0
 27 22  1  0  0  0
 12  7  1  0  0  0
 17 13  2  0  0  0
 31 32  1  0  0  0
 16 18  1  0  0  0
M  END
> <score>
0.59379

> <minimizedAffinity>
-7.50527

> <CNNscore>
0.4768875837

> <CNNaffinity>
6.8326425552

> <CNN_VS>
3.2584023476

$$$$
HIPS7239


 35 39  0  0  0  0  0  0  0  0999 V2000
   68.2313   78.8401   90.1962 C   0  0  0  0  0  0  0  0  0  0  0  0
   69.6184   78.6171   90.2939 C   0  0  0  0  0  0  0  0  0  0  0  0
   70.5188   79.6683   90.1071 C   0  0  0  0  0  0  0  0  0  0  0  0
   70.0526   80.9543   89.7961 C   0  0  0  0  0  0  0  0  0  0  0  0
   68.6721   81.1819   89.7033 C   0  0  0  0  0  0  0  0  0  0  0  0
   67.7703   80.1311   89.8917 C   0  0  0  0  0  0  0  0  0  0  0  0
   71.0075   82.0653   89.5885 C   0  0  0  0  0  0  0  0  0  0  0  0
   72.2729   81.9731   90.1936 C   0  0  0  0  0  0  0  0  0  0  0  0
   73.2423   82.9503   89.9670 C   0  0  0  0  0  0  0  0  0  0  0  0
   72.9633   84.0299   89.1315 C   0  0  0  0  0  0  0  0  0  0  0  0
   71.7076   84.1469   88.5329 C   0  0  0  0  0  0  0  0  0  0  0  0
   70.7084   83.1826   88.7619 C   0  0  0  0  0  0  0  0  0  0  0  0
   69.3671   83.4001   88.1645 C   0  0  0  0  0  0  0  0  0  0  0  0
   68.9690   82.8763   86.9868 N   0  0  0  0  0  0  0  0  0  0  0  0
   67.7419   83.3359   86.8039 N   0  0  0  0  0  0  0  0  0  0  0  0
   67.4144   84.1103   87.8228 N   0  0  0  0  0  0  0  0  0  0  0  0
   68.4057   84.1836   88.6927 N   0  0  0  0  0  0  0  0  0  0  0  0
   66.5494   84.5701   87.9204 H   0  0  0  0  0  0  0  0  0  0  0  0
   67.2268   77.7193   90.3433 C   0  0  0  0  0  0  0  0  0  0  0  0
   66.2328   78.3080   92.5609 C   0  0  0  0  0  0  0  0  0  0  0  0
   65.9691   77.8050   93.7919 N   0  0  0  0  0  0  0  0  0  0  0  0
   66.5113   76.5763   93.7332 C   0  0  0  0  0  0  0  0  0  0  0  0
   66.4732   75.6096   94.7326 C   0  0  0  0  0  0  0  0  0  0  0  0
   67.0572   74.3641   94.4646 C   0  0  0  0  0  0  0  0  0  0  0  0
   67.6822   74.1203   93.2255 C   0  0  0  0  0  0  0  0  0  0  0  0
   67.7377   75.1202   92.2282 C   0  0  0  0  0  0  0  0  0  0  0  0
   67.1005   76.3515   92.5123 C   0  0  0  0  0  0  0  0  0  0  0  0
   66.8999   77.4515   91.7479 N   0  0  0  0  0  0  0  0  0  0  0  0
   68.5143   74.8486   91.0082 C   0  0  0  0  0  0  0  0  0  0  0  0
   69.7262   75.1886   90.9464 O   0  0  0  0  0  0  0  0  0  0  0  0
   67.8978   74.2892   89.8939 O   0  0  0  0  0  0  0  0  0  0  0  0
   66.9969   74.0349   89.9352 H   0  0  0  0  0  0  0  0  0  0  0  0
   65.8461   79.5896   92.1531 O   0  0  0  0  0  0  0  0  0  0  0  0
   64.3627   80.9663   90.8205 C   0  0  0  0  0  0  0  0  0  0  0  0
   64.4861   79.9721   91.9688 C   0  0  0  0  0  0  0  0  0  0  0  0
 34 35  1  0  0  0
 35 33  1  0  0  0
 33 20  1  0  0  0
 20 21  2  0  0  0
 21 22  2  0  0  0
 22 23  2  0  0  0
 23 24  1  0  0  0
 24 25  2  0  0  0
 25 26  1  0  0  0
 26 29  1  0  0  0
 29 30  2  0  0  0
 29 31  1  0  0  0
 26 27  2  0  0  0
 27 28  1  0  0  0
 28 19  1  0  0  0
 19  1  1  0  0  0
  1  2  2  0  0  0
  2  3  1  0  0  0
  3  4  2  0  0  0
  4  7  1  0  0  0
  7  8  2  0  0  0
  8  9  1  0  0  0
  9 10  2  0  0  0
 10 11  1  0  0  0
 11 12  2  0  0  0
 12 13  1  0  0  0
 13 14  2  0  0  0
 14 15  2  0  0  0
 15 16  1  0  0  0
 16 17  1  0  0  0
  4  5  1  0  0  0
  5  6  2  0  0  0
 28 20  1  0  0  0
  6  1  1  0  0  0
 27 22  1  0  0  0
 12  7  1  0  0  0
 17 13  2  0  0  0
 31 32  1  0  0  0
 16 18  1  0  0  0
M  END
> <score>
0.59379

> <minimizedAffinity>
-7.92395

> <CNNscore>
0.4761717618

> <CNNaffinity>
6.7785654068

> <CNN_VS>
3.2277615070

$$$$
HIPS7240


 34 36  0  0  0  0  0  0  0  0999 V2000
   67.6606   76.1299   91.2223 C   0  0  0  0  0  0  0  0  0  0  0  0
   66.9907   77.2905   91.6422 C   0  0  0  0  0  0  0  0  0  0  0  0
   66.9942   78.4387   90.8454 C   0  0  0  0  0  0  0  0  0  0  0  0
   67.6404   78.4367   89.6000 C   0  0  0  0  0  0  0  0  0  0  0  0
   68.2946   77.2729   89.1701 C   0  0  0  0  0  0  0  0  0  0  0  0
   68.2922   76.1252   89.9679 C   0  0  0  0  0  0  0  0  0  0  0  0
   67.6507   79.6553   88.7569 C   0  0  0  0  0  0  0  0  0  0  0  0
   67.8479   80.8994   89.3835 C   0  0  0  0  0  0  0  0  0  0  0  0
   67.7682   82.0846   88.6505 C   0  0  0  0  0  0  0  0  0  0  0  0
   67.4870   82.0448   87.2849 C   0  0  0  0  0  0  0  0  0  0  0  0
   67.3011   80.8193   86.6428 C   0  0  0  0  0  0  0  0  0  0  0  0
   67.4012   79.6139   87.3585 C   0  0  0  0  0  0  0  0  0  0  0  0
   67.2831   78.3425   86.6103 C   0  0  0  0  0  0  0  0  0  0  0  0
   68.2383   77.8457   85.8017 N   0  0  0  0  0  0  0  0  0  0  0  0
   67.7628   76.6795   85.3870 N   0  0  0  0  0  0  0  0  0  0  0  0
   66.5735   76.4575   85.9243 N   0  0  0  0  0  0  0  0  0  0  0  0
   66.2546   77.4816   86.6940 N   0  0  0  0  0  0  0  0  0  0  0  0
   65.4310   77.5921   87.2219 H   0  0  0  0  0  0  0  0  0  0  0  0
   67.6552   74.8931   92.0885 C   0  0  0  0  0  0  0  0  0  0  0  0
   69.5600   76.0620   93.2304 C   0  0  0  0  0  0  0  0  0  0  0  0
   69.5226   76.9907   94.0813 O   0  0  0  0  0  0  0  0  0  0  0  0
   68.5482   75.0394   93.2541 N   0  0  0  0  0  0  0  0  0  0  0  0
   70.7059   75.9930   92.2595 C   0  0  0  0  0  0  0  0  0  0  0  0
   71.3791   77.3576   92.0710 C   0  0  0  0  0  0  0  0  0  0  0  0
   71.2382   79.1393   90.2819 C   0  0  0  0  0  0  0  0  0  0  0  0
   71.6249   77.6927   90.5930 C   0  0  0  0  0  0  0  0  0  0  0  0
   68.5329   74.1084   94.4066 C   0  0  0  0  0  0  0  0  0  0  0  0
   69.3132   72.8500   94.1040 C   0  0  0  0  0  0  0  0  0  0  0  0
   70.4782   72.7125   94.5654 O   0  0  0  0  0  0  0  0  0  0  0  0
   68.7718   71.8492   93.3023 O   0  0  0  0  0  0  0  0  0  0  0  0
   67.9066   71.9435   92.9553 H   0  0  0  0  0  0  0  0  0  0  0  0
   67.0857   73.8472   94.9482 C   0  0  0  0  0  0  0  0  0  0  0  0
   67.0316   73.4095   96.4262 C   0  0  0  0  0  0  0  0  0  0  0  0
   66.1882   75.0801   94.7555 C   0  0  0  0  0  0  0  0  0  0  0  0
 25 26  1  0  0  0
 26 24  1  0  0  0
 24 23  1  0  0  0
 23 20  1  0  0  0
 20 21  2  0  0  0
 20 22  1  0  0  0
 22 19  1  0  0  0
 19  1  1  0  0  0
  1  2  2  0  0  0
  2  3  1  0  0  0
  3  4  2  0  0  0
  4  7  1  0  0  0
  7  8  2  0  0  0
  8  9  1  0  0  0
  9 10  2  0  0  0
 10 11  1  0  0  0
 11 12  2  0  0  0
 12 13  1  0  0  0
 13 14  2  0  0  0
 14 15  1  0  0  0
 15 16  2  0  0  0
 16 17  1  0  0  0
  4  5  1  0  0  0
  5  6  2  0  0  0
 22 27  1  0  0  0
 27 28  1  0  0  0
 28 29  2  0  0  0
 28 30  1  0  0  0
 27 32  1  0  0  0
 32 33  1  0  0  0
 32 34  1  0  0  0
  6  1  1  0  0  0
 12  7  1  0  0  0
 17 13  1  0  0  0
 17 18  1  0  0  0
 30 31  1  0  0  0
M  END
> <score>
0.442679

> <minimizedAffinity>
-6.98589

> <CNNscore>
0.7246431112

> <CNNaffinity>
7.1370916367

> <CNN_VS>
5.1718444824

$$$$
HIPS7240


 34 36  0  0  0  0  0  0  0  0999 V2000
   67.1263   77.3109   92.0691 C   0  0  0  0  0  0  0  0  0  0  0  0
   68.0364   77.9379   91.2026 C   0  0  0  0  0  0  0  0  0  0  0  0
   68.1041   79.3321   91.1334 C   0  0  0  0  0  0  0  0  0  0  0  0
   67.2856   80.1242   91.9527 C   0  0  0  0  0  0  0  0  0  0  0  0
   66.3888   79.5004   92.8322 C   0  0  0  0  0  0  0  0  0  0  0  0
   66.3202   78.1060   92.9001 C   0  0  0  0  0  0  0  0  0  0  0  0
   67.3515   81.6026   91.8758 C   0  0  0  0  0  0  0  0  0  0  0  0
   67.6011   82.3226   93.0585 C   0  0  0  0  0  0  0  0  0  0  0  0
   67.5752   83.7181   93.0595 C   0  0  0  0  0  0  0  0  0  0  0  0
   67.2963   84.4134   91.8830 C   0  0  0  0  0  0  0  0  0  0  0  0
   67.0588   83.7169   90.6966 C   0  0  0  0  0  0  0  0  0  0  0  0
   67.1042   82.3125   90.6698 C   0  0  0  0  0  0  0  0  0  0  0  0
   66.9328   81.6302   89.3677 C   0  0  0  0  0  0  0  0  0  0  0  0
   67.8511   81.6319   88.3829 N   0  0  0  0  0  0  0  0  0  0  0  0
   67.3350   80.8642   87.4329 N   0  0  0  0  0  0  0  0  0  0  0  0
   66.1572   80.3975   87.8167 N   0  0  0  0  0  0  0  0  0  0  0  0
   65.8866   80.8607   89.0229 N   0  0  0  0  0  0  0  0  0  0  0  0
   65.0819   80.6793   89.5604 H   0  0  0  0  0  0  0  0  0  0  0  0
   67.0562   75.8041   92.1378 C   0  0  0  0  0  0  0  0  0  0  0  0
   69.3077   74.7076   92.3021 C   0  0  0  0  0  0  0  0  0  0  0  0
   70.4333   75.2376   92.5017 O   0  0  0  0  0  0  0  0  0  0  0  0
   68.1462   75.2442   92.9599 N   0  0  0  0  0  0  0  0  0  0  0  0
   69.2109   73.4748   91.4468 C   0  0  0  0  0  0  0  0  0  0  0  0
   68.8956   72.2253   92.2776 C   0  0  0  0  0  0  0  0  0  0  0  0
   71.1490   71.3662   93.0388 C   0  0  0  0  0  0  0  0  0  0  0  0
   69.9556   71.1269   92.1129 C   0  0  0  0  0  0  0  0  0  0  0  0
   68.0568   75.0999   94.4319 C   0  0  0  0  0  0  0  0  0  0  0  0
   69.4299   75.0406   95.0604 C   0  0  0  0  0  0  0  0  0  0  0  0
   69.9415   73.9221   95.3367 O   0  0  0  0  0  0  0  0  0  0  0  0
   70.1292   76.2062   95.3604 O   0  0  0  0  0  0  0  0  0  0  0  0
   69.7561   77.0416   95.1583 H   0  0  0  0  0  0  0  0  0  0  0  0
   67.1063   73.9311   94.8639 C   0  0  0  0  0  0  0  0  0  0  0  0
   66.9323   73.7868   96.3896 C   0  0  0  0  0  0  0  0  0  0  0  0
   65.7219   74.0690   94.2104 C   0  0  0  0  0  0  0  0  0  0  0  0
 25 26  1  0  0  0
 26 24  1  0  0  0
 24 23  1  0  0  0
 23 20  1  0  0  0
 20 21  2  0  0  0
 20 22  1  0  0  0
 22 19  1  0  0  0
 19  1  1  0  0  0
  1  2  2  0  0  0
  2  3  1  0  0  0
  3  4  2  0  0  0
  4  7  1  0  0  0
  7  8  2  0  0  0
  8  9  1  0  0  0
  9 10  2  0  0  0
 10 11  1  0  0  0
 11 12  2  0  0  0
 12 13  1  0  0  0
 13 14  2  0  0  0
 14 15  1  0  0  0
 15 16  2  0  0  0
 16 17  1  0  0  0
  4  5  1  0  0  0
  5  6  2  0  0  0
 22 27  1  0  0  0
 27 28  1  0  0  0
 28 29  2  0  0  0
 28 30  1  0  0  0
 27 32  1  0  0  0
 32 33  1  0  0  0
 32 34  1  0  0  0
  6  1  1  0  0  0
 12  7  1  0  0  0
 17 13  1  0  0  0
 17 18  1  0  0  0
 30 31  1  0  0  0
M  END
> <score>
0.442679

> <minimizedAffinity>
-7.44461

> <CNNscore>
0.7001895905

> <CNNaffinity>
6.8630504608

> <CNN_VS>
4.8054366112

$$$$
HIPS7240


 34 36  0  0  0  0  0  0  0  0999 V2000
   69.7386   77.0161   91.6768 C   0  0  0  0  0  0  0  0  0  0  0  0
   70.5405   77.5304   90.6450 C   0  0  0  0  0  0  0  0  0  0  0  0
   70.0707   78.5640   89.8300 C   0  0  0  0  0  0  0  0  0  0  0  0
   68.8035   79.1236   90.0526 C   0  0  0  0  0  0  0  0  0  0  0  0
   68.0079   78.6241   91.0941 C   0  0  0  0  0  0  0  0  0  0  0  0
   68.4774   77.5894   91.9081 C   0  0  0  0  0  0  0  0  0  0  0  0
   68.3011   80.2151   89.1852 C   0  0  0  0  0  0  0  0  0  0  0  0
   68.5659   81.5441   89.5631 C   0  0  0  0  0  0  0  0  0  0  0  0
   68.0321   82.6092   88.8359 C   0  0  0  0  0  0  0  0  0  0  0  0
   67.2245   82.3631   87.7257 C   0  0  0  0  0  0  0  0  0  0  0  0
   66.9611   81.0512   87.3275 C   0  0  0  0  0  0  0  0  0  0  0  0
   67.5089   79.9657   88.0321 C   0  0  0  0  0  0  0  0  0  0  0  0
   67.2695   78.6005   87.5133 C   0  0  0  0  0  0  0  0  0  0  0  0
   66.3343   77.7589   87.9932 N   0  0  0  0  0  0  0  0  0  0  0  0
   66.4108   76.6852   87.2190 N   0  0  0  0  0  0  0  0  0  0  0  0
   67.3414   76.8586   86.2937 N   0  0  0  0  0  0  0  0  0  0  0  0
   67.8893   78.0486   86.4564 N   0  0  0  0  0  0  0  0  0  0  0  0
   68.6060   78.4500   85.9139 H   0  0  0  0  0  0  0  0  0  0  0  0
   70.2507   75.8978   92.5526 C   0  0  0  0  0  0  0  0  0  0  0  0
   69.0435   73.8522   91.7422 C   0  0  0  0  0  0  0  0  0  0  0  0
   69.2637   72.6424   92.0173 O   0  0  0  0  0  0  0  0  0  0  0  0
   69.2282   74.8540   92.7582 N   0  0  0  0  0  0  0  0  0  0  0  0
   68.5129   74.2179   90.3838 C   0  0  0  0  0  0  0  0  0  0  0  0
   67.6343   73.1079   89.7948 C   0  0  0  0  0  0  0  0  0  0  0  0
   66.6099   72.4428   87.5804 C   0  0  0  0  0  0  0  0  0  0  0  0
   66.8255   73.5812   88.5787 C   0  0  0  0  0  0  0  0  0  0  0  0
   68.2966   74.8501   93.9104 C   0  0  0  0  0  0  0  0  0  0  0  0
   68.7279   73.8513   94.9594 C   0  0  0  0  0  0  0  0  0  0  0  0
   67.9400   73.5520   95.8968 O   0  0  0  0  0  0  0  0  0  0  0  0
   69.9937   73.2737   94.9184 O   0  0  0  0  0  0  0  0  0  0  0  0
   70.5854   73.4907   94.2250 H   0  0  0  0  0  0  0  0  0  0  0  0
   66.7990   74.7077   93.4712 C   0  0  0  0  0  0  0  0  0  0  0  0
   66.1607   73.3494   93.8269 C   0  0  0  0  0  0  0  0  0  0  0  0
   65.9372   75.8374   94.0572 C   0  0  0  0  0  0  0  0  0  0  0  0
 25 26  1  0  0  0
 26 24  1  0  0  0
 24 23  1  0  0  0
 23 20  1  0  0  0
 20 21  2  0  0  0
 20 22  1  0  0  0
 22 19  1  0  0  0
 19  1  1  0  0  0
  1  2  2  0  0  0
  2  3  1  0  0  0
  3  4  2  0  0  0
  4  7  1  0  0  0
  7  8  2  0  0  0
  8  9  1  0  0  0
  9 10  2  0  0  0
 10 11  1  0  0  0
 11 12  2  0  0  0
 12 13  1  0  0  0
 13 14  2  0  0  0
 14 15  1  0  0  0
 15 16  2  0  0  0
 16 17  1  0  0  0
  4  5  1  0  0  0
  5  6  2  0  0  0
 22 27  1  0  0  0
 27 28  1  0  0  0
 28 29  2  0  0  0
 28 30  1  0  0  0
 27 32  1  0  0  0
 32 33  1  0  0  0
 32 34  1  0  0  0
  6  1  1  0  0  0
 12  7  1  0  0  0
 17 13  1  0  0  0
 17 18  1  0  0  0
 30 31  1  0  0  0
M  END
> <score>
0.442679

> <minimizedAffinity>
-7.68873

> <CNNscore>
0.6779392362

> <CNNaffinity>
7.0288352966

> <CNN_VS>
4.7651233673

$$$$
HIPS7241


 29 33  0  0  0  0  0  0  0  0999 V2000
   67.1039   79.1728   88.5102 N   0  0  0  0  0  0  0  0  0  0  0  0
   66.5907   78.3216   87.5040 C   0  0  0  0  0  0  0  0  0  0  0  0
   66.7282   76.8984   87.8954 C   0  0  0  0  0  0  0  0  0  0  0  0
   67.5361   76.5210   88.8827 C   0  0  0  0  0  0  0  0  0  0  0  0
   68.3916   77.4395   89.6550 C   0  0  0  0  0  0  0  0  0  0  0  0
   68.3864   78.8174   88.9931 C   0  0  0  0  0  0  0  0  0  0  0  0
   67.5796   75.0653   89.1727 C   0  0  0  0  0  0  0  0  0  0  0  0
   66.8300   74.1018   88.4812 C   0  0  0  0  0  0  0  0  0  0  0  0
   67.0943   72.9084   89.0112 N   0  0  0  0  0  0  0  0  0  0  0  0
   67.9640   73.0005   90.0051 C   0  0  0  0  0  0  0  0  0  0  0  0
   68.5300   72.0635   90.8461 C   0  0  0  0  0  0  0  0  0  0  0  0
   69.4229   72.4979   91.8141 C   0  0  0  0  0  0  0  0  0  0  0  0
   69.7465   73.8204   91.9466 C   0  0  0  0  0  0  0  0  0  0  0  0
   69.1612   74.7561   91.0830 C   0  0  0  0  0  0  0  0  0  0  0  0
   68.2699   74.3621   90.1074 C   0  0  0  0  0  0  0  0  0  0  0  0
   66.6932   72.0640   88.7024 H   0  0  0  0  0  0  0  0  0  0  0  0
   66.1799   79.7179   89.4442 C   0  0  0  0  0  0  0  0  0  0  0  0
   66.8986   78.0228   92.6324 C   0  0  0  0  0  0  0  0  0  0  0  0
   67.4491   79.2523   92.8025 N   0  0  0  0  0  0  0  0  0  0  0  0
   67.2581   79.9721   91.7136 O   0  0  0  0  0  0  0  0  0  0  0  0
   66.6022   79.2728   90.8220 C   0  0  0  0  0  0  0  0  0  0  0  0
   66.3844   78.0781   91.3908 N   0  0  0  0  0  0  0  0  0  0  0  0
   67.0097   73.6906   96.3611 C   0  0  0  0  0  0  0  0  0  0  0  0
   66.9682   74.8237   95.3867 C   0  0  0  0  0  0  0  0  0  0  0  0
   65.7273   75.2976   94.9663 C   0  0  0  0  0  0  0  0  0  0  0  0
   65.7306   76.3391   94.0694 C   0  0  0  0  0  0  0  0  0  0  0  0
   66.8816   76.9173   93.5834 C   0  0  0  0  0  0  0  0  0  0  0  0
   68.0873   76.4081   94.0339 C   0  0  0  0  0  0  0  0  0  0  0  0
   68.1501   75.3638   94.9337 C   0  0  0  0  0  0  0  0  0  0  0  0
 23 24  1  0  0  0
 24 25  2  0  0  0
 25 26  1  0  0  0
 26 27  2  0  0  0
 27 18  1  0  0  0
 18 19  2  0  0  0
 19 20  1  0  0  0
 20 21  1  0  0  0
 21 17  1  0  0  0
 17  1  1  0  0  0
  1  2  1  0  0  0
  2  3  1  0  0  0
  3  4  2  0  0  0
  4  7  1  0  0  0
  7  8  2  0  0  0
  8  9  1  0  0  0
  9 10  1  0  0  0
 10 11  2  0  0  0
 11 12  1  0  0  0
 12 13  2  0  0  0
 13 14  1  0  0  0
 14 15  2  0  0  0
  4  5  1  0  0  0
  5  6  1  0  0  0
 21 22  2  0  0  0
 27 28  1  0  0  0
 28 29  2  0  0  0
 29 24  1  0  0  0
 22 18  2  0  0  0
  6  1  1  0  0  0
 15  7  1  0  0  0
 15 10  1  0  0  0
  9 16  1  0  0  0
M  END
> <score>
0.696012

> <minimizedAffinity>
-8.56093

> <CNNscore>
0.6195048094

> <CNNaffinity>
6.7948646545

> <CNN_VS>
4.2094511986

$$$$
HIPS7241


 29 33  0  0  0  0  0  0  0  0999 V2000
   67.2424   79.6024   88.8634 N   0  0  0  0  0  0  0  0  0  0  0  0
   66.5841   80.2417   87.7872 C   0  0  0  0  0  0  0  0  0  0  0  0
   67.3055   81.4719   87.3825 C   0  0  0  0  0  0  0  0  0  0  0  0
   68.2194   82.0355   88.1680 C   0  0  0  0  0  0  0  0  0  0  0  0
   68.5842   81.5409   89.5076 C   0  0  0  0  0  0  0  0  0  0  0  0
   67.5961   80.4560   89.9360 C   0  0  0  0  0  0  0  0  0  0  0  0
   68.8672   83.2636   87.6419 C   0  0  0  0  0  0  0  0  0  0  0  0
   68.2701   84.1353   86.7187 C   0  0  0  0  0  0  0  0  0  0  0  0
   69.1331   85.1143   86.4509 N   0  0  0  0  0  0  0  0  0  0  0  0
   70.2626   84.9637   87.1249 C   0  0  0  0  0  0  0  0  0  0  0  0
   71.4294   85.6995   87.1765 C   0  0  0  0  0  0  0  0  0  0  0  0
   72.4547   85.2561   87.9982 C   0  0  0  0  0  0  0  0  0  0  0  0
   72.3296   84.1181   88.7471 C   0  0  0  0  0  0  0  0  0  0  0  0
   71.1370   83.3851   88.6809 C   0  0  0  0  0  0  0  0  0  0  0  0
   70.0949   83.7951   87.8763 C   0  0  0  0  0  0  0  0  0  0  0  0
   68.9534   85.8567   85.8298 H   0  0  0  0  0  0  0  0  0  0  0  0
   68.1342   78.5395   88.5502 C   0  0  0  0  0  0  0  0  0  0  0  0
   68.4662   76.7991   91.7775 C   0  0  0  0  0  0  0  0  0  0  0  0
   69.7379   77.1855   91.4999 N   0  0  0  0  0  0  0  0  0  0  0  0
   69.7583   77.8312   90.3497 O   0  0  0  0  0  0  0  0  0  0  0  0
   68.5509   77.8917   89.8469 C   0  0  0  0  0  0  0  0  0  0  0  0
   67.7625   77.2571   90.7267 N   0  0  0  0  0  0  0  0  0  0  0  0
   66.7916   73.8918   96.4064 C   0  0  0  0  0  0  0  0  0  0  0  0
   67.2176   74.6536   95.1926 C   0  0  0  0  0  0  0  0  0  0  0  0
   66.2410   75.0789   94.2945 C   0  0  0  0  0  0  0  0  0  0  0  0
   66.6721   75.7749   93.1905 C   0  0  0  0  0  0  0  0  0  0  0  0
   67.9961   76.0611   92.9442 C   0  0  0  0  0  0  0  0  0  0  0  0
   68.9249   75.6153   93.8686 C   0  0  0  0  0  0  0  0  0  0  0  0
   68.5551   74.9116   94.9965 C   0  0  0  0  0  0  0  0  0  0  0  0
 23 24  1  0  0  0
 24 25  2  0  0  0
 25 26  1  0  0  0
 26 27  2  0  0  0
 27 18  1  0  0  0
 18 19  2  0  0  0
 19 20  1  0  0  0
 20 21  1  0  0  0
 21 17  1  0  0  0
 17  1  1  0  0  0
  1  2  1  0  0  0
  2  3  1  0  0  0
  3  4  2  0  0  0
  4  7  1  0  0  0
  7  8  2  0  0  0
  8  9  1  0  0  0
  9 10  1  0  0  0
 10 11  2  0  0  0
 11 12  1  0  0  0
 12 13  2  0  0  0
 13 14  1  0  0  0
 14 15  2  0  0  0
  4  5  1  0  0  0
  5  6  1  0  0  0
 21 22  2  0  0  0
 27 28  1  0  0  0
 28 29  2  0  0  0
 29 24  1  0  0  0
 22 18  2  0  0  0
  6  1  1  0  0  0
 15  7  1  0  0  0
 15 10  1  0  0  0
  9 16  1  0  0  0
M  END
> <score>
0.696012

> <minimizedAffinity>
-8.72465

> <CNNscore>
0.6194390655

> <CNNaffinity>
6.3766641617

> <CNN_VS>
3.9499549866

$$$$
HIPS7241


 29 33  0  0  0  0  0  0  0  0999 V2000
   69.2610   72.6627   93.5537 N   0  0  0  0  0  0  0  0  0  0  0  0
   70.0822   73.4461   92.7098 C   0  0  0  0  0  0  0  0  0  0  0  0
   69.3686   73.8014   91.4600 C   0  0  0  0  0  0  0  0  0  0  0  0
   68.2647   73.1629   91.0809 C   0  0  0  0  0  0  0  0  0  0  0  0
   67.6608   72.0370   91.8156 C   0  0  0  0  0  0  0  0  0  0  0  0
   68.6172   71.5754   92.9152 C   0  0  0  0  0  0  0  0  0  0  0  0
   67.6491   73.6186   89.8088 C   0  0  0  0  0  0  0  0  0  0  0  0
   67.0003   72.7698   88.8993 C   0  0  0  0  0  0  0  0  0  0  0  0
   66.5891   73.5024   87.8654 N   0  0  0  0  0  0  0  0  0  0  0  0
   66.9138   74.7773   88.0140 C   0  0  0  0  0  0  0  0  0  0  0  0
   66.7144   75.8939   87.2272 C   0  0  0  0  0  0  0  0  0  0  0  0
   67.1972   77.1137   87.6765 C   0  0  0  0  0  0  0  0  0  0  0  0
   67.8579   77.2260   88.8691 C   0  0  0  0  0  0  0  0  0  0  0  0
   68.0501   76.0806   89.6534 C   0  0  0  0  0  0  0  0  0  0  0  0
   67.5834   74.8505   89.2406 C   0  0  0  0  0  0  0  0  0  0  0  0
   66.1046   73.1411   87.0883 H   0  0  0  0  0  0  0  0  0  0  0  0
   68.5458   73.3348   94.5832 C   0  0  0  0  0  0  0  0  0  0  0  0
   68.0300   76.8473   93.6078 C   0  0  0  0  0  0  0  0  0  0  0  0
   69.2755   76.8540   94.1482 N   0  0  0  0  0  0  0  0  0  0  0  0
   69.5876   75.6350   94.5444 O   0  0  0  0  0  0  0  0  0  0  0  0
   68.6002   74.8135   94.2908 C   0  0  0  0  0  0  0  0  0  0  0  0
   67.6475   75.5624   93.7165 N   0  0  0  0  0  0  0  0  0  0  0  0
   65.2930   81.3062   91.3033 C   0  0  0  0  0  0  0  0  0  0  0  0
   65.9989   80.1380   91.9133 C   0  0  0  0  0  0  0  0  0  0  0  0
   65.3759   79.4496   92.9521 C   0  0  0  0  0  0  0  0  0  0  0  0
   66.0570   78.3825   93.4876 C   0  0  0  0  0  0  0  0  0  0  0  0
   67.2976   77.9777   93.0489 C   0  0  0  0  0  0  0  0  0  0  0  0
   67.8711   78.6966   92.0143 C   0  0  0  0  0  0  0  0  0  0  0  0
   67.2379   79.7773   91.4351 C   0  0  0  0  0  0  0  0  0  0  0  0
 23 24  1  0  0  0
 24 25  2  0  0  0
 25 26  1  0  0  0
 26 27  2  0  0  0
 27 18  1  0  0  0
 18 19  2  0  0  0
 19 20  1  0  0  0
 20 21  1  0  0  0
 21 17  1  0  0  0
 17  1  1  0  0  0
  1  2  1  0  0  0
  2  3  1  0  0  0
  3  4  2  0  0  0
  4  7  1  0  0  0
  7  8  2  0  0  0
  8  9  1  0  0  0
  9 10  1  0  0  0
 10 11  2  0  0  0
 11 12  1  0  0  0
 12 13  2  0  0  0
 13 14  1  0  0  0
 14 15  2  0  0  0
  4  5  1  0  0  0
  5  6  1  0  0  0
 21 22  2  0  0  0
 27 28  1  0  0  0
 28 29  2  0  0  0
 29 24  1  0  0  0
 22 18  2  0  0  0
  6  1  1  0  0  0
 15  7  1  0  0  0
 15 10  1  0  0  0
  9 16  1  0  0  0
M  END
> <score>
0.696012

> <minimizedAffinity>
-7.93380

> <CNNscore>
0.5911182761

> <CNNaffinity>
6.6657905579

> <CNN_VS>
3.9402706623

$$$$
HIPS7242


 27 30  0  0  0  0  0  0  0  0999 V2000
   70.7936   81.7548   90.6288 N   0  0  0  0  0  0  0  0  0  0  0  0
   70.9471   82.0235   91.5634 H   0  0  0  0  0  0  0  0  0  0  0  0
   67.4009   83.6568   86.9234 C   0  0  0  0  0  0  0  0  0  0  0  0
   68.7357   84.2343   87.0060 N   0  0  0  0  0  0  0  0  0  0  0  0
   69.1632   85.2552   86.2686 N   0  0  0  0  0  0  0  0  0  0  0  0
   70.4254   85.5653   86.6642 C   0  0  0  0  0  0  0  0  0  0  0  0
   70.7764   84.7112   87.6904 C   0  0  0  0  0  0  0  0  0  0  0  0
   71.9013   84.5585   88.4855 C   0  0  0  0  0  0  0  0  0  0  0  0
   72.9134   85.2934   88.3333 O   0  0  0  0  0  0  0  0  0  0  0  0
   71.8791   83.5828   89.4448 N   0  0  0  0  0  0  0  0  0  0  0  0
   70.7718   82.7839   89.6265 C   0  0  0  0  0  0  0  0  0  0  0  0
   69.6727   82.9432   88.8233 N   0  0  0  0  0  0  0  0  0  0  0  0
   69.7039   83.9078   87.8745 C   0  0  0  0  0  0  0  0  0  0  0  0
   72.6697   83.4494   90.0162 H   0  0  0  0  0  0  0  0  0  0  0  0
   70.6052   80.3569   90.3509 C   0  0  0  0  0  0  0  0  0  0  0  0
   71.6753   79.4691   90.5332 C   0  0  0  0  0  0  0  0  0  0  0  0
   71.5138   78.1057   90.2758 C   0  0  0  0  0  0  0  0  0  0  0  0
   70.2761   77.6127   89.8568 C   0  0  0  0  0  0  0  0  0  0  0  0
   69.1805   78.4821   89.7146 C   0  0  0  0  0  0  0  0  0  0  0  0
   69.3538   79.8506   89.9542 C   0  0  0  0  0  0  0  0  0  0  0  0
   67.9216   78.0271   89.2949 O   0  0  0  0  0  0  0  0  0  0  0  0
   67.6710   77.2824   88.1329 C   0  0  0  0  0  0  0  0  0  0  0  0
   67.9407   77.8663   86.8887 C   0  0  0  0  0  0  0  0  0  0  0  0
   67.6887   77.1618   85.7072 C   0  0  0  0  0  0  0  0  0  0  0  0
   67.1529   75.8723   85.7619 C   0  0  0  0  0  0  0  0  0  0  0  0
   66.8623   75.2885   86.9981 C   0  0  0  0  0  0  0  0  0  0  0  0
   67.1136   75.9907   88.1812 C   0  0  0  0  0  0  0  0  0  0  0  0
  3  4  1  0  0  0
  4  5  1  0  0  0
  5  6  2  0  0  0
  6  7  1  0  0  0
  7  8  1  0  0  0
  8  9  2  0  0  0
  8 10  1  0  0  0
 10 11  1  0  0  0
 11  1  1  0  0  0
  1 15  1  0  0  0
 15 16  2  0  0  0
 16 17  1  0  0  0
 17 18  2  0  0  0
 18 19  1  0  0  0
 19 21  1  0  0  0
 21 22  1  0  0  0
 22 23  2  0  0  0
 23 24  1  0  0  0
 24 25  2  0  0  0
 25 26  1  0  0  0
 26 27  2  0  0  0
 19 20  2  0  0  0
 11 12  2  0  0  0
 12 13  2  0  0  0
 13  4  1  0  0  0
 13  7  2  0  0  0
 20 15  1  0  0  0
 27 22  1  0  0  0
 10 14  1  0  0  0
  1  2  1  0  0  0
M  END
> <score>
-0.84621

> <minimizedAffinity>
-6.69961

> <CNNscore>
0.3631231487

> <CNNaffinity>
6.2293233871

> <CNN_VS>
2.2620115280

$$$$
HIPS7242


 27 30  0  0  0  0  0  0  0  0999 V2000
   66.7636   78.6745   93.0801 N   0  0  0  0  0  0  0  0  0  0  0  0
   66.8838   79.2990   93.8316 H   0  0  0  0  0  0  0  0  0  0  0  0
   70.0110   74.6186   91.7157 C   0  0  0  0  0  0  0  0  0  0  0  0
   68.8560   74.3323   92.5560 N   0  0  0  0  0  0  0  0  0  0  0  0
   68.5761   73.1395   93.0731 N   0  0  0  0  0  0  0  0  0  0  0  0
   67.4711   73.2639   93.8536 C   0  0  0  0  0  0  0  0  0  0  0  0
   67.0694   74.5844   93.8229 C   0  0  0  0  0  0  0  0  0  0  0  0
   66.0446   75.3022   94.4188 C   0  0  0  0  0  0  0  0  0  0  0  0
   65.2078   74.7407   95.1751 O   0  0  0  0  0  0  0  0  0  0  0  0
   65.9694   76.6441   94.1610 N   0  0  0  0  0  0  0  0  0  0  0  0
   66.8879   77.2681   93.3459 C   0  0  0  0  0  0  0  0  0  0  0  0
   67.8883   76.5392   92.7573 N   0  0  0  0  0  0  0  0  0  0  0  0
   67.9537   75.2121   93.0143 C   0  0  0  0  0  0  0  0  0  0  0  0
   65.2449   77.1737   94.5659 H   0  0  0  0  0  0  0  0  0  0  0  0
   66.4744   79.2258   91.7842 C   0  0  0  0  0  0  0  0  0  0  0  0
   65.3977   80.1125   91.6387 C   0  0  0  0  0  0  0  0  0  0  0  0
   65.1018   80.6657   90.3906 C   0  0  0  0  0  0  0  0  0  0  0  0
   65.8924   80.3574   89.2814 C   0  0  0  0  0  0  0  0  0  0  0  0
   67.0038   79.5076   89.4199 C   0  0  0  0  0  0  0  0  0  0  0  0
   67.2832   78.9399   90.6689 C   0  0  0  0  0  0  0  0  0  0  0  0
   67.8219   79.1722   88.3307 O   0  0  0  0  0  0  0  0  0  0  0  0
   67.6177   78.0900   87.4621 C   0  0  0  0  0  0  0  0  0  0  0  0
   67.0535   76.9144   87.9734 C   0  0  0  0  0  0  0  0  0  0  0  0
   66.8494   75.8082   87.1424 C   0  0  0  0  0  0  0  0  0  0  0  0
   67.2204   75.8661   85.7963 C   0  0  0  0  0  0  0  0  0  0  0  0
   67.8020   77.0280   85.2814 C   0  0  0  0  0  0  0  0  0  0  0  0
   68.0069   78.1357   86.1100 C   0  0  0  0  0  0  0  0  0  0  0  0
  3  4  1  0  0  0
  4  5  1  0  0  0
  5  6  2  0  0  0
  6  7  1  0  0  0
  7  8  1  0  0  0
  8  9  2  0  0  0
  8 10  1  0  0  0
 10 11  1  0  0  0
 11  1  1  0  0  0
  1 15  1  0  0  0
 15 16  2  0  0  0
 16 17  1  0  0  0
 17 18  2  0  0  0
 18 19  1  0  0  0
 19 21  1  0  0  0
 21 22  1  0  0  0
 22 23  2  0  0  0
 23 24  1  0  0  0
 24 25  2  0  0  0
 25 26  1  0  0  0
 26 27  2  0  0  0
 19 20  2  0  0  0
 11 12  2  0  0  0
 12 13  2  0  0  0
 13  4  1  0  0  0
 13  7  2  0  0  0
 20 15  1  0  0  0
 27 22  1  0  0  0
 10 14  1  0  0  0
  1  2  1  0  0  0
M  END
> <score>
-0.84621

> <minimizedAffinity>
-6.66323

> <CNNscore>
0.3406102061

> <CNNaffinity>
6.1029872894

> <CNN_VS>
2.0787396431

$$$$
HIPS7242


 27 30  0  0  0  0  0  0  0  0999 V2000
   67.7296   77.6497   90.4266 N   0  0  0  0  0  0  0  0  0  0  0  0
   67.2361   77.4926   89.5893 H   0  0  0  0  0  0  0  0  0  0  0  0
   67.5297   72.9058   92.9391 C   0  0  0  0  0  0  0  0  0  0  0  0
   66.8308   74.0374   93.5331 N   0  0  0  0  0  0  0  0  0  0  0  0
   66.1932   74.0026   94.6997 N   0  0  0  0  0  0  0  0  0  0  0  0
   65.7245   75.2500   94.9646 C   0  0  0  0  0  0  0  0  0  0  0  0
   66.1018   76.0802   93.9282 C   0  0  0  0  0  0  0  0  0  0  0  0
   65.9338   77.4280   93.6526 C   0  0  0  0  0  0  0  0  0  0  0  0
   65.2987   78.1811   94.4381 O   0  0  0  0  0  0  0  0  0  0  0  0
   66.4815   77.9181   92.4982 N   0  0  0  0  0  0  0  0  0  0  0  0
   67.1885   77.1044   91.6406 C   0  0  0  0  0  0  0  0  0  0  0  0
   67.3349   75.7718   91.9252 N   0  0  0  0  0  0  0  0  0  0  0  0
   66.7873   75.2940   93.0669 C   0  0  0  0  0  0  0  0  0  0  0  0
   66.3680   78.8706   92.2764 H   0  0  0  0  0  0  0  0  0  0  0  0
   68.9475   78.4106   90.3592 C   0  0  0  0  0  0  0  0  0  0  0  0
   70.1779   77.7384   90.3315 C   0  0  0  0  0  0  0  0  0  0  0  0
   71.3739   78.4566   90.2596 C   0  0  0  0  0  0  0  0  0  0  0  0
   71.3516   79.8512   90.1907 C   0  0  0  0  0  0  0  0  0  0  0  0
   70.1252   80.5383   90.1697 C   0  0  0  0  0  0  0  0  0  0  0  0
   68.9304   79.8143   90.2627 C   0  0  0  0  0  0  0  0  0  0  0  0
   70.0598   81.9380   90.1026 O   0  0  0  0  0  0  0  0  0  0  0  0
   70.8423   82.7505   89.2690 C   0  0  0  0  0  0  0  0  0  0  0  0
   72.0831   83.1989   89.7393 C   0  0  0  0  0  0  0  0  0  0  0  0
   72.8848   84.0240   88.9440 C   0  0  0  0  0  0  0  0  0  0  0  0
   72.4447   84.4169   87.6771 C   0  0  0  0  0  0  0  0  0  0  0  0
   71.1996   83.9904   87.2069 C   0  0  0  0  0  0  0  0  0  0  0  0
   70.3960   83.1651   87.9999 C   0  0  0  0  0  0  0  0  0  0  0  0
  3  4  1  0  0  0
  4  5  1  0  0  0
  5  6  2  0  0  0
  6  7  1  0  0  0
  7  8  1  0  0  0
  8  9  2  0  0  0
  8 10  1  0  0  0
 10 11  1  0  0  0
 11  1  1  0  0  0
  1 15  1  0  0  0
 15 16  2  0  0  0
 16 17  1  0  0  0
 17 18  2  0  0  0
 18 19  1  0  0  0
 19 21  1  0  0  0
 21 22  1  0  0  0
 22 23  2  0  0  0
 23 24  1  0  0  0
 24 25  2  0  0  0
 25 26  1  0  0  0
 26 27  2  0  0  0
 19 20  2  0  0  0
 11 12  2  0  0  0
 12 13  2  0  0  0
 13  4  1  0  0  0
 13  7  2  0  0  0
 20 15  1  0  0  0
 27 22  1  0  0  0
 10 14  1  0  0  0
  1  2  1  0  0  0
M  END
> <score>
-0.84621

> <minimizedAffinity>
-8.11412

> <CNNscore>
0.2542583942

> <CNNaffinity>
5.5960502625

> <CNN_VS>
1.4228427410

$$$$
