HIPS6989


 37 40  0  0  0  0  0  0  0  0999 V2000
   68.1419   76.6809   93.9568 C   0  0  0  0  0  0  0  0  0  0  0  0
   68.8437   76.0836   95.0202 C   0  0  0  0  0  0  0  0  0  0  0  0
   70.2332   76.2012   95.1113 C   0  0  0  0  0  0  0  0  0  0  0  0
   70.9430   76.8988   94.1327 C   0  0  0  0  0  0  0  0  0  0  0  0
   70.2605   77.4913   93.0516 C   0  0  0  0  0  0  0  0  0  0  0  0
   68.8580   77.4142   92.9907 C   0  0  0  0  0  0  0  0  0  0  0  0
   71.0142   78.1483   91.9652 C   0  0  0  0  0  0  0  0  0  0  0  0
   71.3127   77.4622   90.7781 C   0  0  0  0  0  0  0  0  0  0  0  0
   72.0360   78.0935   89.7638 C   0  0  0  0  0  0  0  0  0  0  0  0
   72.4613   79.4163   89.9234 C   0  0  0  0  0  0  0  0  0  0  0  0
   72.1453   80.1212   91.0872 C   0  0  0  0  0  0  0  0  0  0  0  0
   71.4393   79.4791   92.1162 C   0  0  0  0  0  0  0  0  0  0  0  0
   72.5922   81.4428   91.2240 O   0  0  0  0  0  0  0  0  0  0  0  0
   72.3259   82.4848   90.3216 C   0  0  0  0  0  0  0  0  0  0  0  0
   71.1015   83.1545   90.4061 C   0  0  0  0  0  0  0  0  0  0  0  0
   70.8173   84.2299   89.5615 C   0  0  0  0  0  0  0  0  0  0  0  0
   71.7505   84.6423   88.5964 C   0  0  0  0  0  0  0  0  0  0  0  0
   72.9919   83.9894   88.5234 C   0  0  0  0  0  0  0  0  0  0  0  0
   73.2763   82.9171   89.3781 C   0  0  0  0  0  0  0  0  0  0  0  0
   71.4806   85.8324   87.7077 C   0  0  0  0  0  0  0  0  0  0  0  0
   70.9454   85.4352   86.4961 F   0  0  0  0  0  0  0  0  0  0  0  0
   70.5833   86.6817   88.3367 F   0  0  0  0  0  0  0  0  0  0  0  0
   72.6578   86.5209   87.4612 F   0  0  0  0  0  0  0  0  0  0  0  0
   66.6333   76.5550   93.9261 C   0  0  0  0  0  0  0  0  0  0  0  0
   66.1670   75.2141   94.0503 O   0  0  0  0  0  0  0  0  0  0  0  0
   68.8123   72.5679   93.8624 C   0  0  0  0  0  0  0  0  0  0  0  0
   68.1275   73.7356   94.2528 C   0  0  0  0  0  0  0  0  0  0  0  0
   66.8783   74.0569   93.6928 C   0  0  0  0  0  0  0  0  0  0  0  0
   66.3188   73.2079   92.7357 C   0  0  0  0  0  0  0  0  0  0  0  0
   66.9986   72.0640   92.3263 C   0  0  0  0  0  0  0  0  0  0  0  0
   68.2436   71.7365   92.8653 C   0  0  0  0  0  0  0  0  0  0  0  0
   68.8859   70.6003   92.3700 O   0  0  0  0  0  0  0  0  0  0  0  0
   68.4729   70.0788   91.7102 H   0  0  0  0  0  0  0  0  0  0  0  0
   70.0599   71.8492   95.7512 O   0  0  0  0  0  0  0  0  0  0  0  0
   70.0780   72.2341   94.5523 C   0  0  0  0  0  0  0  0  0  0  0  0
   71.2877   72.2596   93.8728 O   0  0  0  0  0  0  0  0  0  0  0  0
   71.3178   72.5434   92.9803 H   0  0  0  0  0  0  0  0  0  0  0  0
 34 35  2  0  0  0
 35 36  1  0  0  0
 35 26  1  0  0  0
 26 27  2  0  0  0
 27 28  1  0  0  0
 28 25  1  0  0  0
 25 24  1  0  0  0
 24  1  1  0  0  0
  1  2  2  0  0  0
  2  3  1  0  0  0
  3  4  2  0  0  0
  4  5  1  0  0  0
  5  7  1  0  0  0
  7  8  2  0  0  0
  8  9  1  0  0  0
  9 10  2  0  0  0
 10 11  1  0  0  0
 11 13  1  0  0  0
 13 14  1  0  0  0
 14 15  2  0  0  0
 15 16  1  0  0  0
 16 17  2  0  0  0
 17 20  1  0  0  0
 20 21  1  0  0  0
 20 22  1  0  0  0
 20 23  1  0  0  0
 17 18  1  0  0  0
 18 19  2  0  0  0
 11 12  2  0  0  0
  5  6  2  0  0  0
 28 29  2  0  0  0
 29 30  1  0  0  0
 30 31  2  0  0  0
 31 32  1  0  0  0
 31 26  1  0  0  0
  6  1  1  0  0  0
 12  7  1  0  0  0
 19 14  1  0  0  0
 36 37  1  0  0  0
 32 33  1  0  0  0
M  END
> <Activity>
3.1

> <minimizedAffinity>
0.54192

> <CNNscore>
0.9251298904

> <CNNaffinity>
6.4407072067

> <CNN_VS>
5.9584908485

$$$$
HIPS6989


 37 40  0  0  0  0  0  0  0  0999 V2000
   65.7579   78.1547   94.8924 C   0  0  0  0  0  0  0  0  0  0  0  0
   66.3532   77.6955   93.7030 C   0  0  0  0  0  0  0  0  0  0  0  0
   67.3222   78.4619   93.0497 C   0  0  0  0  0  0  0  0  0  0  0  0
   67.6957   79.7048   93.5631 C   0  0  0  0  0  0  0  0  0  0  0  0
   67.1003   80.1896   94.7448 C   0  0  0  0  0  0  0  0  0  0  0  0
   66.1633   79.3934   95.4264 C   0  0  0  0  0  0  0  0  0  0  0  0
   67.4219   81.5431   95.2396 C   0  0  0  0  0  0  0  0  0  0  0  0
   67.1371   81.9130   96.5629 C   0  0  0  0  0  0  0  0  0  0  0  0
   67.4371   83.2004   97.0133 C   0  0  0  0  0  0  0  0  0  0  0  0
   68.0295   84.1266   96.1488 C   0  0  0  0  0  0  0  0  0  0  0  0
   68.3461   83.7627   94.8379 C   0  0  0  0  0  0  0  0  0  0  0  0
   68.0227   82.4767   94.3783 C   0  0  0  0  0  0  0  0  0  0  0  0
   68.9312   84.7140   93.9908 O   0  0  0  0  0  0  0  0  0  0  0  0
   69.6603   84.4220   92.8270 C   0  0  0  0  0  0  0  0  0  0  0  0
   70.3379   83.2020   92.7433 C   0  0  0  0  0  0  0  0  0  0  0  0
   71.0324   82.8502   91.5838 C   0  0  0  0  0  0  0  0  0  0  0  0
   71.0798   83.7285   90.4891 C   0  0  0  0  0  0  0  0  0  0  0  0
   70.3805   84.9447   90.5579 C   0  0  0  0  0  0  0  0  0  0  0  0
   69.6780   85.2897   91.7193 C   0  0  0  0  0  0  0  0  0  0  0  0
   71.7848   83.3453   89.2104 C   0  0  0  0  0  0  0  0  0  0  0  0
   71.8324   84.4117   88.3315 F   0  0  0  0  0  0  0  0  0  0  0  0
   73.0805   82.9469   89.5016 F   0  0  0  0  0  0  0  0  0  0  0  0
   71.1182   82.2989   88.5928 F   0  0  0  0  0  0  0  0  0  0  0  0
   64.7410   77.2683   95.5801 C   0  0  0  0  0  0  0  0  0  0  0  0
   65.2959   76.0734   96.1232 O   0  0  0  0  0  0  0  0  0  0  0  0
   68.0458   73.8379   94.9079 C   0  0  0  0  0  0  0  0  0  0  0  0
   67.3658   74.8230   95.6510 C   0  0  0  0  0  0  0  0  0  0  0  0
   66.0077   75.0955   95.4090 C   0  0  0  0  0  0  0  0  0  0  0  0
   65.3331   74.3821   94.4160 C   0  0  0  0  0  0  0  0  0  0  0  0
   66.0025   73.4233   93.6606 C   0  0  0  0  0  0  0  0  0  0  0  0
   67.3527   73.1482   93.8818 C   0  0  0  0  0  0  0  0  0  0  0  0
   67.9674   72.2086   93.0524 O   0  0  0  0  0  0  0  0  0  0  0  0
   67.4707   71.7759   92.3860 H   0  0  0  0  0  0  0  0  0  0  0  0
   70.3223   74.4354   95.2258 O   0  0  0  0  0  0  0  0  0  0  0  0
   69.4473   73.5307   95.2692 C   0  0  0  0  0  0  0  0  0  0  0  0
   69.8031   72.2735   95.7366 O   0  0  0  0  0  0  0  0  0  0  0  0
   69.1637   71.5897   95.7750 H   0  0  0  0  0  0  0  0  0  0  0  0
 34 35  2  0  0  0
 35 36  1  0  0  0
 35 26  1  0  0  0
 26 27  2  0  0  0
 27 28  1  0  0  0
 28 25  1  0  0  0
 25 24  1  0  0  0
 24  1  1  0  0  0
  1  2  2  0  0  0
  2  3  1  0  0  0
  3  4  2  0  0  0
  4  5  1  0  0  0
  5  7  1  0  0  0
  7  8  2  0  0  0
  8  9  1  0  0  0
  9 10  2  0  0  0
 10 11  1  0  0  0
 11 13  1  0  0  0
 13 14  1  0  0  0
 14 15  2  0  0  0
 15 16  1  0  0  0
 16 17  2  0  0  0
 17 20  1  0  0  0
 20 21  1  0  0  0
 20 22  1  0  0  0
 20 23  1  0  0  0
 17 18  1  0  0  0
 18 19  2  0  0  0
 11 12  2  0  0  0
  5  6  2  0  0  0
 28 29  2  0  0  0
 29 30  1  0  0  0
 30 31  2  0  0  0
 31 32  1  0  0  0
 31 26  1  0  0  0
  6  1  1  0  0  0
 12  7  1  0  0  0
 19 14  1  0  0  0
 36 37  1  0  0  0
 32 33  1  0  0  0
M  END
> <Activity>
3.1

> <minimizedAffinity>
-0.94826

> <CNNscore>
0.8925936818

> <CNNaffinity>
6.6049165726

> <CNN_VS>
5.8955068588

$$$$
HIPS6989


 37 40  0  0  0  0  0  0  0  0999 V2000
   67.8570   77.8705   93.4410 C   0  0  0  0  0  0  0  0  0  0  0  0
   68.3026   76.9615   94.4183 C   0  0  0  0  0  0  0  0  0  0  0  0
   69.6433   76.5701   94.4681 C   0  0  0  0  0  0  0  0  0  0  0  0
   70.5527   77.0647   93.5320 C   0  0  0  0  0  0  0  0  0  0  0  0
   70.1234   77.9641   92.5358 C   0  0  0  0  0  0  0  0  0  0  0  0
   68.7852   78.3946   92.5202 C   0  0  0  0  0  0  0  0  0  0  0  0
   71.0593   78.4159   91.4870 C   0  0  0  0  0  0  0  0  0  0  0  0
   71.8854   77.5015   90.8158 C   0  0  0  0  0  0  0  0  0  0  0  0
   72.7735   77.9455   89.8337 C   0  0  0  0  0  0  0  0  0  0  0  0
   72.8394   79.3043   89.5090 C   0  0  0  0  0  0  0  0  0  0  0  0
   72.0017   80.2216   90.1476 C   0  0  0  0  0  0  0  0  0  0  0  0
   71.1265   79.7788   91.1514 C   0  0  0  0  0  0  0  0  0  0  0  0
   72.0955   81.5785   89.8086 O   0  0  0  0  0  0  0  0  0  0  0  0
   71.4293   82.6250   90.4659 C   0  0  0  0  0  0  0  0  0  0  0  0
   71.1952   83.8166   89.7731 C   0  0  0  0  0  0  0  0  0  0  0  0
   70.4911   84.8633   90.3724 C   0  0  0  0  0  0  0  0  0  0  0  0
   70.0253   84.7435   91.6918 C   0  0  0  0  0  0  0  0  0  0  0  0
   70.2357   83.5396   92.3841 C   0  0  0  0  0  0  0  0  0  0  0  0
   70.9346   82.4893   91.7763 C   0  0  0  0  0  0  0  0  0  0  0  0
   69.2213   85.8450   92.3391 C   0  0  0  0  0  0  0  0  0  0  0  0
   69.9372   87.0276   92.3725 F   0  0  0  0  0  0  0  0  0  0  0  0
   68.0550   86.0478   91.6174 F   0  0  0  0  0  0  0  0  0  0  0  0
   68.8931   85.4956   93.6395 F   0  0  0  0  0  0  0  0  0  0  0  0
   66.4022   78.2902   93.4548 C   0  0  0  0  0  0  0  0  0  0  0  0
   65.5178   77.2780   93.9284 O   0  0  0  0  0  0  0  0  0  0  0  0
   66.8885   73.8321   94.4599 C   0  0  0  0  0  0  0  0  0  0  0  0
   66.5299   75.0343   93.8187 C   0  0  0  0  0  0  0  0  0  0  0  0
   65.8969   76.0677   94.5319 C   0  0  0  0  0  0  0  0  0  0  0  0
   65.6187   75.8917   95.8890 C   0  0  0  0  0  0  0  0  0  0  0  0
   65.9481   74.6983   96.5258 C   0  0  0  0  0  0  0  0  0  0  0  0
   66.5676   73.6595   95.8296 C   0  0  0  0  0  0  0  0  0  0  0  0
   66.8231   72.4756   96.5237 O   0  0  0  0  0  0  0  0  0  0  0  0
   66.5943   72.4049   97.4296 H   0  0  0  0  0  0  0  0  0  0  0  0
   68.7448   72.3954   94.0983 O   0  0  0  0  0  0  0  0  0  0  0  0
   67.6342   72.8184   93.6817 C   0  0  0  0  0  0  0  0  0  0  0  0
   67.0906   72.2607   92.5332 O   0  0  0  0  0  0  0  0  0  0  0  0
   66.2651   72.5645   92.2104 H   0  0  0  0  0  0  0  0  0  0  0  0
 34 35  2  0  0  0
 35 36  1  0  0  0
 35 26  1  0  0  0
 26 27  2  0  0  0
 27 28  1  0  0  0
 28 25  1  0  0  0
 25 24  1  0  0  0
 24  1  1  0  0  0
  1  2  2  0  0  0
  2  3  1  0  0  0
  3  4  2  0  0  0
  4  5  1  0  0  0
  5  7  1  0  0  0
  7  8  2  0  0  0
  8  9  1  0  0  0
  9 10  2  0  0  0
 10 11  1  0  0  0
 11 13  1  0  0  0
 13 14  1  0  0  0
 14 15  2  0  0  0
 15 16  1  0  0  0
 16 17  2  0  0  0
 17 20  1  0  0  0
 20 21  1  0  0  0
 20 22  1  0  0  0
 20 23  1  0  0  0
 17 18  1  0  0  0
 18 19  2  0  0  0
 11 12  2  0  0  0
  5  6  2  0  0  0
 28 29  2  0  0  0
 29 30  1  0  0  0
 30 31  2  0  0  0
 31 32  1  0  0  0
 31 26  1  0  0  0
  6  1  1  0  0  0
 12  7  1  0  0  0
 19 14  1  0  0  0
 36 37  1  0  0  0
 32 33  1  0  0  0
M  END
> <Activity>
3.1

> <minimizedAffinity>
0.01197

> <CNNscore>
0.8843532801

> <CNNaffinity>
6.4984226227

> <CNN_VS>
5.7469015121

$$$$
HIPS7002


 39 42  0  0  0  0  0  0  0  0999 V2000
   64.2547   80.2465   89.4618 C   0  0  0  0  0  0  0  0  0  0  0  0
   63.3864   81.3100   89.7503 C   0  0  0  0  0  0  0  0  0  0  0  0
   62.9594   81.5324   91.0608 C   0  0  0  0  0  0  0  0  0  0  0  0
   63.4005   80.7032   92.0948 C   0  0  0  0  0  0  0  0  0  0  0  0
   64.2833   79.6420   91.8284 C   0  0  0  0  0  0  0  0  0  0  0  0
   64.7084   79.4239   90.5052 C   0  0  0  0  0  0  0  0  0  0  0  0
   64.7581   78.7631   92.9261 C   0  0  0  0  0  0  0  0  0  0  0  0
   64.5556   79.1255   94.2688 C   0  0  0  0  0  0  0  0  0  0  0  0
   64.9974   78.2930   95.2990 C   0  0  0  0  0  0  0  0  0  0  0  0
   65.6507   77.0949   95.0043 C   0  0  0  0  0  0  0  0  0  0  0  0
   65.8735   76.7205   93.6661 C   0  0  0  0  0  0  0  0  0  0  0  0
   65.4176   77.5545   92.6379 C   0  0  0  0  0  0  0  0  0  0  0  0
   66.5429   75.5377   93.3118 O   0  0  0  0  0  0  0  0  0  0  0  0
   66.3447   74.2622   93.9236 C   0  0  0  0  0  0  0  0  0  0  0  0
   67.6528   73.5339   94.0917 C   0  0  0  0  0  0  0  0  0  0  0  0
   68.6023   73.9886   95.0190 C   0  0  0  0  0  0  0  0  0  0  0  0
   69.8169   73.3143   95.1768 C   0  0  0  0  0  0  0  0  0  0  0  0
   70.1058   72.1789   94.3956 C   0  0  0  0  0  0  0  0  0  0  0  0
   69.1654   71.7434   93.4549 C   0  0  0  0  0  0  0  0  0  0  0  0
   67.9504   72.4159   93.2985 C   0  0  0  0  0  0  0  0  0  0  0  0
   71.3041   71.4573   94.5177 O   0  0  0  0  0  0  0  0  0  0  0  0
   71.4098   70.1032   94.9530 C   0  0  0  0  0  0  0  0  0  0  0  0
   72.7277   69.6852   94.8979 F   0  0  0  0  0  0  0  0  0  0  0  0
   70.6217   69.2860   94.1623 F   0  0  0  0  0  0  0  0  0  0  0  0
   70.9699   70.0166   96.2594 F   0  0  0  0  0  0  0  0  0  0  0  0
   64.7073   79.9868   88.0491 C   0  0  0  0  0  0  0  0  0  0  0  0
   65.4669   78.7793   87.9774 O   0  0  0  0  0  0  0  0  0  0  0  0
   67.6858   77.6309   85.2362 C   0  0  0  0  0  0  0  0  0  0  0  0
   67.2122   78.2465   86.4101 C   0  0  0  0  0  0  0  0  0  0  0  0
   65.8704   78.1439   86.7914 C   0  0  0  0  0  0  0  0  0  0  0  0
   64.9807   77.4221   85.9779 C   0  0  0  0  0  0  0  0  0  0  0  0
   65.4401   76.7913   84.8214 C   0  0  0  0  0  0  0  0  0  0  0  0
   66.7875   76.8650   84.4535 C   0  0  0  0  0  0  0  0  0  0  0  0
   67.1960   76.1388   83.3329 O   0  0  0  0  0  0  0  0  0  0  0  0
   66.5700   75.6443   82.8414 H   0  0  0  0  0  0  0  0  0  0  0  0
   69.9348   76.9055   84.9888 O   0  0  0  0  0  0  0  0  0  0  0  0
   69.0985   77.8381   84.8473 C   0  0  0  0  0  0  0  0  0  0  0  0
   69.5320   79.0751   84.3815 O   0  0  0  0  0  0  0  0  0  0  0  0
   68.9192   79.7756   84.2725 H   0  0  0  0  0  0  0  0  0  0  0  0
 36 37  2  0  0  0
 37 38  1  0  0  0
 37 28  1  0  0  0
 28 29  2  0  0  0
 29 30  1  0  0  0
 30 27  1  0  0  0
 27 26  1  0  0  0
 26  1  1  0  0  0
  1  2  2  0  0  0
  2  3  1  0  0  0
  3  4  2  0  0  0
  4  5  1  0  0  0
  5  7  1  0  0  0
  7  8  2  0  0  0
  8  9  1  0  0  0
  9 10  2  0  0  0
 10 11  1  0  0  0
 11 13  1  0  0  0
 13 14  1  0  0  0
 14 15  1  0  0  0
 15 16  2  0  0  0
 16 17  1  0  0  0
 17 18  2  0  0  0
 18 21  1  0  0  0
 21 22  1  0  0  0
 22 23  1  0  0  0
 22 24  1  0  0  0
 22 25  1  0  0  0
 18 19  1  0  0  0
 19 20  2  0  0  0
 11 12  2  0  0  0
  5  6  2  0  0  0
 30 31  2  0  0  0
 31 32  1  0  0  0
 32 33  2  0  0  0
 33 34  1  0  0  0
 33 28  1  0  0  0
  6  1  1  0  0  0
 12  7  1  0  0  0
 20 15  1  0  0  0
 38 39  1  0  0  0
 34 35  1  0  0  0
M  END
> <Activity>
3.2

> <minimizedAffinity>
11.15117

> <CNNscore>
0.9231397510

> <CNNaffinity>
6.4825057983

> <CNN_VS>
5.9842586517

$$$$
HIPS7002


 39 42  0  0  0  0  0  0  0  0999 V2000
   71.1366   79.8128   90.4012 C   0  0  0  0  0  0  0  0  0  0  0  0
   72.1980   79.1185   89.8016 C   0  0  0  0  0  0  0  0  0  0  0  0
   72.5764   77.8633   90.2815 C   0  0  0  0  0  0  0  0  0  0  0  0
   71.8954   77.2863   91.3561 C   0  0  0  0  0  0  0  0  0  0  0  0
   70.8190   77.9592   91.9602 C   0  0  0  0  0  0  0  0  0  0  0  0
   70.4442   79.2239   91.4713 C   0  0  0  0  0  0  0  0  0  0  0  0
   70.0900   77.3457   93.0981 C   0  0  0  0  0  0  0  0  0  0  0  0
   70.7830   76.9261   94.2466 C   0  0  0  0  0  0  0  0  0  0  0  0
   70.0932   76.3557   95.3183 C   0  0  0  0  0  0  0  0  0  0  0  0
   68.7082   76.1910   95.2559 C   0  0  0  0  0  0  0  0  0  0  0  0
   67.9982   76.5940   94.1095 C   0  0  0  0  0  0  0  0  0  0  0  0
   68.6947   77.1757   93.0433 C   0  0  0  0  0  0  0  0  0  0  0  0
   66.6085   76.4335   93.9839 O   0  0  0  0  0  0  0  0  0  0  0  0
   65.9050   75.1976   94.1172 C   0  0  0  0  0  0  0  0  0  0  0  0
   66.8241   74.0251   93.8924 C   0  0  0  0  0  0  0  0  0  0  0  0
   67.8795   73.7720   94.7814 C   0  0  0  0  0  0  0  0  0  0  0  0
   68.7337   72.6847   94.5748 C   0  0  0  0  0  0  0  0  0  0  0  0
   68.5519   71.8397   93.4632 C   0  0  0  0  0  0  0  0  0  0  0  0
   67.5124   72.1103   92.5659 C   0  0  0  0  0  0  0  0  0  0  0  0
   66.6571   73.1959   92.7734 C   0  0  0  0  0  0  0  0  0  0  0  0
   69.3724   70.7285   93.2110 O   0  0  0  0  0  0  0  0  0  0  0  0
   70.7854   70.6876   93.4009 C   0  0  0  0  0  0  0  0  0  0  0  0
   71.4149   70.3173   92.2256 F   0  0  0  0  0  0  0  0  0  0  0  0
   71.1046   69.7953   94.4090 F   0  0  0  0  0  0  0  0  0  0  0  0
   71.2256   71.9453   93.7641 F   0  0  0  0  0  0  0  0  0  0  0  0
   70.7317   81.1751   89.9031 C   0  0  0  0  0  0  0  0  0  0  0  0
   71.6998   82.1565   90.2768 O   0  0  0  0  0  0  0  0  0  0  0  0
   71.1901   85.5753   88.9319 C   0  0  0  0  0  0  0  0  0  0  0  0
   70.9925   84.3559   89.6066 C   0  0  0  0  0  0  0  0  0  0  0  0
   71.9604   83.3466   89.5774 C   0  0  0  0  0  0  0  0  0  0  0  0
   73.1444   83.5541   88.8499 C   0  0  0  0  0  0  0  0  0  0  0  0
   73.3616   84.7649   88.1917 C   0  0  0  0  0  0  0  0  0  0  0  0
   72.4101   85.7887   88.2448 C   0  0  0  0  0  0  0  0  0  0  0  0
   72.7293   87.0048   87.6372 O   0  0  0  0  0  0  0  0  0  0  0  0
   73.5476   87.1056   87.1920 H   0  0  0  0  0  0  0  0  0  0  0  0
   69.7003   87.0803   87.8544 O   0  0  0  0  0  0  0  0  0  0  0  0
   70.0982   86.5741   88.9382 C   0  0  0  0  0  0  0  0  0  0  0  0
   69.5425   87.0101   90.1366 O   0  0  0  0  0  0  0  0  0  0  0  0
   69.8306   86.6410   90.9482 H   0  0  0  0  0  0  0  0  0  0  0  0
 36 37  2  0  0  0
 37 38  1  0  0  0
 37 28  1  0  0  0
 28 29  2  0  0  0
 29 30  1  0  0  0
 30 27  1  0  0  0
 27 26  1  0  0  0
 26  1  1  0  0  0
  1  2  2  0  0  0
  2  3  1  0  0  0
  3  4  2  0  0  0
  4  5  1  0  0  0
  5  7  1  0  0  0
  7  8  2  0  0  0
  8  9  1  0  0  0
  9 10  2  0  0  0
 10 11  1  0  0  0
 11 13  1  0  0  0
 13 14  1  0  0  0
 14 15  1  0  0  0
 15 16  2  0  0  0
 16 17  1  0  0  0
 17 18  2  0  0  0
 18 21  1  0  0  0
 21 22  1  0  0  0
 22 23  1  0  0  0
 22 24  1  0  0  0
 22 25  1  0  0  0
 18 19  1  0  0  0
 19 20  2  0  0  0
 11 12  2  0  0  0
  5  6  2  0  0  0
 30 31  2  0  0  0
 31 32  1  0  0  0
 32 33  2  0  0  0
 33 34  1  0  0  0
 33 28  1  0  0  0
  6  1  1  0  0  0
 12  7  1  0  0  0
 20 15  1  0  0  0
 38 39  1  0  0  0
 34 35  1  0  0  0
M  END
> <Activity>
3.2

> <minimizedAffinity>
-1.02447

> <CNNscore>
0.8900456429

> <CNNaffinity>
6.2576742172

> <CNN_VS>
5.5696158409

$$$$
HIPS7002


 39 42  0  0  0  0  0  0  0  0999 V2000
   64.3939   79.3691   90.3572 C   0  0  0  0  0  0  0  0  0  0  0  0
   63.4611   80.0718   91.1347 C   0  0  0  0  0  0  0  0  0  0  0  0
   63.4638   79.9400   92.5245 C   0  0  0  0  0  0  0  0  0  0  0  0
   64.4006   79.1146   93.1512 C   0  0  0  0  0  0  0  0  0  0  0  0
   65.3536   78.4146   92.3907 C   0  0  0  0  0  0  0  0  0  0  0  0
   65.3439   78.5521   90.9907 C   0  0  0  0  0  0  0  0  0  0  0  0
   66.3537   77.5418   93.0545 C   0  0  0  0  0  0  0  0  0  0  0  0
   67.6003   78.0569   93.4493 C   0  0  0  0  0  0  0  0  0  0  0  0
   68.5362   77.2346   94.0798 C   0  0  0  0  0  0  0  0  0  0  0  0
   68.2443   75.8903   94.3183 C   0  0  0  0  0  0  0  0  0  0  0  0
   67.0061   75.3532   93.9195 C   0  0  0  0  0  0  0  0  0  0  0  0
   66.0678   76.1862   93.2981 C   0  0  0  0  0  0  0  0  0  0  0  0
   66.6673   74.0043   94.1153 O   0  0  0  0  0  0  0  0  0  0  0  0
   66.9448   72.9425   93.2010 C   0  0  0  0  0  0  0  0  0  0  0  0
   68.2875   72.3209   93.4854 C   0  0  0  0  0  0  0  0  0  0  0  0
   68.7149   71.1971   92.7625 C   0  0  0  0  0  0  0  0  0  0  0  0
   69.9604   70.6185   93.0247 C   0  0  0  0  0  0  0  0  0  0  0  0
   70.7935   71.1499   94.0278 C   0  0  0  0  0  0  0  0  0  0  0  0
   70.3524   72.2564   94.7627 C   0  0  0  0  0  0  0  0  0  0  0  0
   69.1083   72.8362   94.4993 C   0  0  0  0  0  0  0  0  0  0  0  0
   72.0572   70.6164   94.3277 O   0  0  0  0  0  0  0  0  0  0  0  0
   72.2935   69.4473   95.1098 C   0  0  0  0  0  0  0  0  0  0  0  0
   73.5433   69.5122   95.7003 F   0  0  0  0  0  0  0  0  0  0  0  0
   72.2041   68.3175   94.3163 F   0  0  0  0  0  0  0  0  0  0  0  0
   71.3361   69.3708   96.1023 F   0  0  0  0  0  0  0  0  0  0  0  0
   64.3884   79.4901   88.8562 C   0  0  0  0  0  0  0  0  0  0  0  0
   64.8626   78.2859   88.2519 O   0  0  0  0  0  0  0  0  0  0  0  0
   66.7921   76.9429   85.3831 C   0  0  0  0  0  0  0  0  0  0  0  0
   65.8514   77.0785   86.4213 C   0  0  0  0  0  0  0  0  0  0  0  0
   65.8317   78.2142   87.2374 C   0  0  0  0  0  0  0  0  0  0  0  0
   66.7780   79.2298   87.0204 C   0  0  0  0  0  0  0  0  0  0  0  0
   67.7044   79.1172   85.9833 C   0  0  0  0  0  0  0  0  0  0  0  0
   67.7070   77.9976   85.1450 C   0  0  0  0  0  0  0  0  0  0  0  0
   68.6031   77.9896   84.0741 O   0  0  0  0  0  0  0  0  0  0  0  0
   69.1928   78.7073   83.9513 H   0  0  0  0  0  0  0  0  0  0  0  0
   67.3580   74.6553   85.0794 O   0  0  0  0  0  0  0  0  0  0  0  0
   66.8104   75.6857   84.6025 C   0  0  0  0  0  0  0  0  0  0  0  0
   66.2818   75.6415   83.3166 O   0  0  0  0  0  0  0  0  0  0  0  0
   65.8725   76.4014   82.9519 H   0  0  0  0  0  0  0  0  0  0  0  0
 36 37  2  0  0  0
 37 38  1  0  0  0
 37 28  1  0  0  0
 28 29  2  0  0  0
 29 30  1  0  0  0
 30 27  1  0  0  0
 27 26  1  0  0  0
 26  1  1  0  0  0
  1  2  2  0  0  0
  2  3  1  0  0  0
  3  4  2  0  0  0
  4  5  1  0  0  0
  5  7  1  0  0  0
  7  8  2  0  0  0
  8  9  1  0  0  0
  9 10  2  0  0  0
 10 11  1  0  0  0
 11 13  1  0  0  0
 13 14  1  0  0  0
 14 15  1  0  0  0
 15 16  2  0  0  0
 16 17  1  0  0  0
 17 18  2  0  0  0
 18 21  1  0  0  0
 21 22  1  0  0  0
 22 23  1  0  0  0
 22 24  1  0  0  0
 22 25  1  0  0  0
 18 19  1  0  0  0
 19 20  2  0  0  0
 11 12  2  0  0  0
  5  6  2  0  0  0
 30 31  2  0  0  0
 31 32  1  0  0  0
 32 33  2  0  0  0
 33 34  1  0  0  0
 33 28  1  0  0  0
  6  1  1  0  0  0
 12  7  1  0  0  0
 20 15  1  0  0  0
 38 39  1  0  0  0
 34 35  1  0  0  0
M  END
> <Activity>
3.2

> <minimizedAffinity>
9.51528

> <CNNscore>
0.8718991280

> <CNNaffinity>
6.4085416794

> <CNN_VS>
5.5876021385

$$$$
HIPS7000


 38 41  0  0  0  0  0  0  0  0999 V2000
   71.2374   79.8193   90.5867 C   0  0  0  0  0  0  0  0  0  0  0  0
   72.2021   79.0813   89.8852 C   0  0  0  0  0  0  0  0  0  0  0  0
   72.4672   77.7567   90.2367 C   0  0  0  0  0  0  0  0  0  0  0  0
   71.7715   77.1562   91.2882 C   0  0  0  0  0  0  0  0  0  0  0  0
   70.7925   77.8756   91.9973 C   0  0  0  0  0  0  0  0  0  0  0  0
   70.5257   79.2075   91.6318 C   0  0  0  0  0  0  0  0  0  0  0  0
   70.0582   77.2402   93.1203 C   0  0  0  0  0  0  0  0  0  0  0  0
   70.7068   76.9682   94.3373 C   0  0  0  0  0  0  0  0  0  0  0  0
   70.0083   76.3789   95.3932 C   0  0  0  0  0  0  0  0  0  0  0  0
   68.6562   76.0612   95.2499 C   0  0  0  0  0  0  0  0  0  0  0  0
   67.9880   76.3261   94.0500 C   0  0  0  0  0  0  0  0  0  0  0  0
   68.6994   76.9043   92.9809 C   0  0  0  0  0  0  0  0  0  0  0  0
   66.6235   76.0038   93.9638 O   0  0  0  0  0  0  0  0  0  0  0  0
   66.0668   74.7066   94.1847 C   0  0  0  0  0  0  0  0  0  0  0  0
   67.0771   73.6308   93.8822 C   0  0  0  0  0  0  0  0  0  0  0  0
   66.8777   72.7634   92.7982 C   0  0  0  0  0  0  0  0  0  0  0  0
   67.8161   71.7692   92.5067 C   0  0  0  0  0  0  0  0  0  0  0  0
   68.9767   71.6338   93.2880 C   0  0  0  0  0  0  0  0  0  0  0  0
   69.1534   72.4782   94.3975 C   0  0  0  0  0  0  0  0  0  0  0  0
   68.2133   73.4702   94.6899 C   0  0  0  0  0  0  0  0  0  0  0  0
   69.9677   70.5339   93.0017 C   0  0  0  0  0  0  0  0  0  0  0  0
   69.7023   69.9411   91.7796 F   0  0  0  0  0  0  0  0  0  0  0  0
   71.2572   71.0362   92.9675 F   0  0  0  0  0  0  0  0  0  0  0  0
   69.8835   69.5760   93.9948 F   0  0  0  0  0  0  0  0  0  0  0  0
   70.9697   81.2535   90.2129 C   0  0  0  0  0  0  0  0  0  0  0  0
   72.0251   81.7701   89.4007 O   0  0  0  0  0  0  0  0  0  0  0  0
   71.5304   85.1285   87.8086 C   0  0  0  0  0  0  0  0  0  0  0  0
   71.3471   83.7686   88.1206 C   0  0  0  0  0  0  0  0  0  0  0  0
   72.1898   83.1183   89.0414 C   0  0  0  0  0  0  0  0  0  0  0  0
   73.2325   83.8345   89.6328 C   0  0  0  0  0  0  0  0  0  0  0  0
   73.4413   85.1764   89.3137 C   0  0  0  0  0  0  0  0  0  0  0  0
   72.6136   85.8283   88.3938 C   0  0  0  0  0  0  0  0  0  0  0  0
   72.9216   87.1497   88.0633 O   0  0  0  0  0  0  0  0  0  0  0  0
   73.6472   87.5781   88.4732 H   0  0  0  0  0  0  0  0  0  0  0  0
   69.8794   86.7658   87.3208 O   0  0  0  0  0  0  0  0  0  0  0  0
   70.5577   85.7862   86.9084 C   0  0  0  0  0  0  0  0  0  0  0  0
   70.4265   85.3747   85.5853 O   0  0  0  0  0  0  0  0  0  0  0  0
   70.9261   84.6478   85.2690 H   0  0  0  0  0  0  0  0  0  0  0  0
 35 36  2  0  0  0
 36 37  1  0  0  0
 36 27  1  0  0  0
 27 28  2  0  0  0
 28 29  1  0  0  0
 29 26  1  0  0  0
 26 25  1  0  0  0
 25  1  1  0  0  0
  1  2  2  0  0  0
  2  3  1  0  0  0
  3  4  2  0  0  0
  4  5  1  0  0  0
  5  7  1  0  0  0
  7  8  2  0  0  0
  8  9  1  0  0  0
  9 10  2  0  0  0
 10 11  1  0  0  0
 11 13  1  0  0  0
 13 14  1  0  0  0
 14 15  1  0  0  0
 15 16  2  0  0  0
 16 17  1  0  0  0
 17 18  2  0  0  0
 18 21  1  0  0  0
 21 22  1  0  0  0
 21 23  1  0  0  0
 21 24  1  0  0  0
 18 19  1  0  0  0
 19 20  2  0  0  0
 11 12  2  0  0  0
  5  6  2  0  0  0
 29 30  2  0  0  0
 30 31  1  0  0  0
 31 32  2  0  0  0
 32 33  1  0  0  0
 32 27  1  0  0  0
  6  1  1  0  0  0
 12  7  1  0  0  0
 20 15  1  0  0  0
 37 38  1  0  0  0
 33 34  1  0  0  0
M  END
> <Activity>
3.5

> <minimizedAffinity>
-0.40541

> <CNNscore>
0.8636327982

> <CNNaffinity>
6.0239048004

> <CNN_VS>
5.2024416924

$$$$
HIPS7000


 38 41  0  0  0  0  0  0  0  0999 V2000
   68.7923   77.2919   93.4274 C   0  0  0  0  0  0  0  0  0  0  0  0
   69.7990   76.5755   94.0910 C   0  0  0  0  0  0  0  0  0  0  0  0
   71.1427   76.8180   93.8013 C   0  0  0  0  0  0  0  0  0  0  0  0
   71.4940   77.7780   92.8498 C   0  0  0  0  0  0  0  0  0  0  0  0
   70.4999   78.5149   92.1809 C   0  0  0  0  0  0  0  0  0  0  0  0
   69.1484   78.2701   92.4843 C   0  0  0  0  0  0  0  0  0  0  0  0
   70.8727   79.5300   91.1637 C   0  0  0  0  0  0  0  0  0  0  0  0
   70.2771   79.5203   89.8905 C   0  0  0  0  0  0  0  0  0  0  0  0
   70.6250   80.4835   88.9411 C   0  0  0  0  0  0  0  0  0  0  0  0
   71.5635   81.4694   89.2525 C   0  0  0  0  0  0  0  0  0  0  0  0
   72.1665   81.5023   90.5141 C   0  0  0  0  0  0  0  0  0  0  0  0
   71.8268   80.5191   91.4635 C   0  0  0  0  0  0  0  0  0  0  0  0
   73.0907   82.5255   90.7826 O   0  0  0  0  0  0  0  0  0  0  0  0
   73.6708   83.3906   89.8046 C   0  0  0  0  0  0  0  0  0  0  0  0
   72.7109   84.4865   89.4211 C   0  0  0  0  0  0  0  0  0  0  0  0
   71.4054   84.4896   89.9341 C   0  0  0  0  0  0  0  0  0  0  0  0
   70.5131   85.5088   89.5895 C   0  0  0  0  0  0  0  0  0  0  0  0
   70.9157   86.5496   88.7349 C   0  0  0  0  0  0  0  0  0  0  0  0
   72.2113   86.5216   88.1907 C   0  0  0  0  0  0  0  0  0  0  0  0
   73.1021   85.5007   88.5336 C   0  0  0  0  0  0  0  0  0  0  0  0
   69.9409   87.6254   88.3273 C   0  0  0  0  0  0  0  0  0  0  0  0
   69.3068   87.2892   87.1439 F   0  0  0  0  0  0  0  0  0  0  0  0
   68.9732   87.8011   89.3014 F   0  0  0  0  0  0  0  0  0  0  0  0
   70.6234   88.8144   88.1506 F   0  0  0  0  0  0  0  0  0  0  0  0
   67.3442   77.0120   93.7328 C   0  0  0  0  0  0  0  0  0  0  0  0
   67.0747   75.6109   93.6652 O   0  0  0  0  0  0  0  0  0  0  0  0
   69.2066   72.7306   94.7690 C   0  0  0  0  0  0  0  0  0  0  0  0
   68.5944   73.6847   93.9351 C   0  0  0  0  0  0  0  0  0  0  0  0
   67.6872   74.6254   94.4574 C   0  0  0  0  0  0  0  0  0  0  0  0
   67.3802   74.5908   95.8193 C   0  0  0  0  0  0  0  0  0  0  0  0
   67.9604   73.6345   96.6529 C   0  0  0  0  0  0  0  0  0  0  0  0
   68.8568   72.6910   96.1406 C   0  0  0  0  0  0  0  0  0  0  0  0
   69.3447   71.7159   97.0132 O   0  0  0  0  0  0  0  0  0  0  0  0
   69.0893   71.7239   97.9147 H   0  0  0  0  0  0  0  0  0  0  0  0
   69.8701   70.7518   93.6339 O   0  0  0  0  0  0  0  0  0  0  0  0
   70.2242   71.8288   94.1857 C   0  0  0  0  0  0  0  0  0  0  0  0
   71.5693   72.1864   94.1827 O   0  0  0  0  0  0  0  0  0  0  0  0
   71.8427   72.9847   94.5901 H   0  0  0  0  0  0  0  0  0  0  0  0
 35 36  2  0  0  0
 36 37  1  0  0  0
 36 27  1  0  0  0
 27 28  2  0  0  0
 28 29  1  0  0  0
 29 26  1  0  0  0
 26 25  1  0  0  0
 25  1  1  0  0  0
  1  2  2  0  0  0
  2  3  1  0  0  0
  3  4  2  0  0  0
  4  5  1  0  0  0
  5  7  1  0  0  0
  7  8  2  0  0  0
  8  9  1  0  0  0
  9 10  2  0  0  0
 10 11  1  0  0  0
 11 13  1  0  0  0
 13 14  1  0  0  0
 14 15  1  0  0  0
 15 16  2  0  0  0
 16 17  1  0  0  0
 17 18  2  0  0  0
 18 21  1  0  0  0
 21 22  1  0  0  0
 21 23  1  0  0  0
 21 24  1  0  0  0
 18 19  1  0  0  0
 19 20  2  0  0  0
 11 12  2  0  0  0
  5  6  2  0  0  0
 29 30  2  0  0  0
 30 31  1  0  0  0
 31 32  2  0  0  0
 32 33  1  0  0  0
 32 27  1  0  0  0
  6  1  1  0  0  0
 12  7  1  0  0  0
 20 15  1  0  0  0
 37 38  1  0  0  0
 33 34  1  0  0  0
M  END
> <Activity>
3.5

> <minimizedAffinity>
4.68620

> <CNNscore>
0.8483632207

> <CNNaffinity>
6.0280218124

> <CNN_VS>
5.1139521599

$$$$
HIPS7000


 38 41  0  0  0  0  0  0  0  0999 V2000
   69.0725   77.9714   92.9335 C   0  0  0  0  0  0  0  0  0  0  0  0
   70.1298   77.0543   93.0254 C   0  0  0  0  0  0  0  0  0  0  0  0
   71.3835   77.3712   92.5000 C   0  0  0  0  0  0  0  0  0  0  0  0
   71.5944   78.6052   91.8811 C   0  0  0  0  0  0  0  0  0  0  0  0
   70.5501   79.5431   91.7882 C   0  0  0  0  0  0  0  0  0  0  0  0
   69.2918   79.2193   92.3271 C   0  0  0  0  0  0  0  0  0  0  0  0
   70.7716   80.8519   91.1234 C   0  0  0  0  0  0  0  0  0  0  0  0
   71.1246   80.9142   89.7642 C   0  0  0  0  0  0  0  0  0  0  0  0
   71.3225   82.1487   89.1421 C   0  0  0  0  0  0  0  0  0  0  0  0
   71.1640   83.3326   89.8651 C   0  0  0  0  0  0  0  0  0  0  0  0
   70.8090   83.2964   91.2175 C   0  0  0  0  0  0  0  0  0  0  0  0
   70.6273   82.0496   91.8468 C   0  0  0  0  0  0  0  0  0  0  0  0
   70.6446   84.5162   91.8945 O   0  0  0  0  0  0  0  0  0  0  0  0
   69.6051   85.4642   91.6454 C   0  0  0  0  0  0  0  0  0  0  0  0
   68.6481   85.5285   92.8071 C   0  0  0  0  0  0  0  0  0  0  0  0
   68.9128   84.8022   93.9775 C   0  0  0  0  0  0  0  0  0  0  0  0
   68.0336   84.8652   95.0624 C   0  0  0  0  0  0  0  0  0  0  0  0
   66.8801   85.6660   94.9991 C   0  0  0  0  0  0  0  0  0  0  0  0
   66.5971   86.3603   93.8104 C   0  0  0  0  0  0  0  0  0  0  0  0
   67.4753   86.2947   92.7251 C   0  0  0  0  0  0  0  0  0  0  0  0
   65.9082   85.7002   96.1516 C   0  0  0  0  0  0  0  0  0  0  0  0
   66.0231   86.8871   96.8543 F   0  0  0  0  0  0  0  0  0  0  0  0
   64.6060   85.5927   95.6947 F   0  0  0  0  0  0  0  0  0  0  0  0
   66.1754   84.6448   97.0033 F   0  0  0  0  0  0  0  0  0  0  0  0
   67.7179   77.6149   93.4871 C   0  0  0  0  0  0  0  0  0  0  0  0
   67.8455   76.7689   94.6309 O   0  0  0  0  0  0  0  0  0  0  0  0
   68.2650   73.1348   93.8085 C   0  0  0  0  0  0  0  0  0  0  0  0
   67.7434   74.4418   93.8144 C   0  0  0  0  0  0  0  0  0  0  0  0
   68.3183   75.4460   94.6156 C   0  0  0  0  0  0  0  0  0  0  0  0
   69.4078   75.1268   95.4286 C   0  0  0  0  0  0  0  0  0  0  0  0
   69.9193   73.8292   95.4517 C   0  0  0  0  0  0  0  0  0  0  0  0
   69.3491   72.8233   94.6647 C   0  0  0  0  0  0  0  0  0  0  0  0
   69.8611   71.5301   94.7897 O   0  0  0  0  0  0  0  0  0  0  0  0
   70.5800   71.3647   95.3675 H   0  0  0  0  0  0  0  0  0  0  0  0
   66.6301   72.4195   92.2401 O   0  0  0  0  0  0  0  0  0  0  0  0
   67.6833   72.1441   92.8762 C   0  0  0  0  0  0  0  0  0  0  0  0
   68.3223   70.9296   92.6441 O   0  0  0  0  0  0  0  0  0  0  0  0
   69.1055   70.7154   93.1116 H   0  0  0  0  0  0  0  0  0  0  0  0
 35 36  2  0  0  0
 36 37  1  0  0  0
 36 27  1  0  0  0
 27 28  2  0  0  0
 28 29  1  0  0  0
 29 26  1  0  0  0
 26 25  1  0  0  0
 25  1  1  0  0  0
  1  2  2  0  0  0
  2  3  1  0  0  0
  3  4  2  0  0  0
  4  5  1  0  0  0
  5  7  1  0  0  0
  7  8  2  0  0  0
  8  9  1  0  0  0
  9 10  2  0  0  0
 10 11  1  0  0  0
 11 13  1  0  0  0
 13 14  1  0  0  0
 14 15  1  0  0  0
 15 16  2  0  0  0
 16 17  1  0  0  0
 17 18  2  0  0  0
 18 21  1  0  0  0
 21 22  1  0  0  0
 21 23  1  0  0  0
 21 24  1  0  0  0
 18 19  1  0  0  0
 19 20  2  0  0  0
 11 12  2  0  0  0
  5  6  2  0  0  0
 29 30  2  0  0  0
 30 31  1  0  0  0
 31 32  2  0  0  0
 32 33  1  0  0  0
 32 27  1  0  0  0
  6  1  1  0  0  0
 12  7  1  0  0  0
 20 15  1  0  0  0
 37 38  1  0  0  0
 33 34  1  0  0  0
M  END
> <Activity>
3.5

> <minimizedAffinity>
2.65591

> <CNNscore>
0.8453134894

> <CNNaffinity>
6.0838127136

> <CNN_VS>
5.1427288055

$$$$
HIPS6994


 34 37  0  0  0  0  0  0  0  0999 V2000
   68.5317   77.6994   93.2252 C   0  0  0  0  0  0  0  0  0  0  0  0
   67.6220   78.7705   93.2091 C   0  0  0  0  0  0  0  0  0  0  0  0
   66.3486   78.6254   93.7648 C   0  0  0  0  0  0  0  0  0  0  0  0
   65.9699   77.4137   94.3466 C   0  0  0  0  0  0  0  0  0  0  0  0
   66.8593   76.3293   94.3602 C   0  0  0  0  0  0  0  0  0  0  0  0
   68.1388   76.4783   93.8018 C   0  0  0  0  0  0  0  0  0  0  0  0
   71.4194   78.8953   91.0706 C   0  0  0  0  0  0  0  0  0  0  0  0
   72.4704   78.1199   91.5687 C   0  0  0  0  0  0  0  0  0  0  0  0
   72.2446   77.2286   92.6193 C   0  0  0  0  0  0  0  0  0  0  0  0
   70.9662   77.1002   93.1693 C   0  0  0  0  0  0  0  0  0  0  0  0
   69.8954   77.8605   92.6654 C   0  0  0  0  0  0  0  0  0  0  0  0
   70.1345   78.7625   91.6121 C   0  0  0  0  0  0  0  0  0  0  0  0
   71.6549   79.7979   90.0313 O   0  0  0  0  0  0  0  0  0  0  0  0
   70.5677   85.3864   90.5534 C   0  0  0  0  0  0  0  0  0  0  0  0
   70.8633   83.9251   90.3974 C   0  0  0  0  0  0  0  0  0  0  0  0
   70.6229   83.0458   91.4611 C   0  0  0  0  0  0  0  0  0  0  0  0
   70.9016   81.6830   91.3287 C   0  0  0  0  0  0  0  0  0  0  0  0
   71.4237   81.1780   90.1322 C   0  0  0  0  0  0  0  0  0  0  0  0
   71.6774   82.0626   89.0676 C   0  0  0  0  0  0  0  0  0  0  0  0
   71.4005   83.4263   89.2002 C   0  0  0  0  0  0  0  0  0  0  0  0
   66.4789   75.0377   95.0240 C   0  0  0  0  0  0  0  0  0  0  0  0
   66.1941   74.0642   94.0228 O   0  0  0  0  0  0  0  0  0  0  0  0
   67.0991   73.0901   93.5762 C   0  0  0  0  0  0  0  0  0  0  0  0
   66.7526   72.3308   92.4566 C   0  0  0  0  0  0  0  0  0  0  0  0
   67.6138   71.3473   91.9735 C   0  0  0  0  0  0  0  0  0  0  0  0
   68.8432   71.1086   92.6006 C   0  0  0  0  0  0  0  0  0  0  0  0
   69.6853   70.1188   92.0951 O   0  0  0  0  0  0  0  0  0  0  0  0
   69.2162   71.8692   93.7330 C   0  0  0  0  0  0  0  0  0  0  0  0
   68.3326   72.8561   94.2118 C   0  0  0  0  0  0  0  0  0  0  0  0
   69.4263   69.6220   91.3441 H   0  0  0  0  0  0  0  0  0  0  0  0
   70.5127   71.6582   94.4272 C   0  0  0  0  0  0  0  0  0  0  0  0
   70.6632   70.7109   95.2444 O   0  0  0  0  0  0  0  0  0  0  0  0
   71.5855   72.5112   94.1811 O   0  0  0  0  0  0  0  0  0  0  0  0
   71.4908   73.2206   93.5764 H   0  0  0  0  0  0  0  0  0  0  0  0
 14 15  1  0  0  0
 15 16  2  0  0  0
 16 17  1  0  0  0
 17 18  2  0  0  0
 18 13  1  0  0  0
 13  7  1  0  0  0
  7  8  2  0  0  0
  8  9  1  0  0  0
  9 10  2  0  0  0
 10 11  1  0  0  0
 11  1  1  0  0  0
  1  2  2  0  0  0
  2  3  1  0  0  0
  3  4  2  0  0  0
  4  5  1  0  0  0
  5 21  1  0  0  0
 21 22  1  0  0  0
 22 23  1  0  0  0
 23 24  2  0  0  0
 24 25  1  0  0  0
 25 26  2  0  0  0
 26 27  1  0  0  0
 26 28  1  0  0  0
 28 31  1  0  0  0
 31 32  2  0  0  0
 31 33  1  0  0  0
 28 29  2  0  0  0
  5  6  2  0  0  0
 11 12  2  0  0  0
 18 19  1  0  0  0
 19 20  2  0  0  0
 20 15  1  0  0  0
 12  7  1  0  0  0
  6  1  1  0  0  0
 29 23  1  0  0  0
 27 30  1  0  0  0
 33 34  1  0  0  0
M  END
> <Activity>
4.7

> <minimizedAffinity>
1.74254

> <CNNscore>
0.9042785764

> <CNNaffinity>
6.2189092636

> <CNN_VS>
5.6236262321

$$$$
HIPS6994


 34 37  0  0  0  0  0  0  0  0999 V2000
   67.7924   77.8837   93.3966 C   0  0  0  0  0  0  0  0  0  0  0  0
   67.1571   79.1152   93.6308 C   0  0  0  0  0  0  0  0  0  0  0  0
   65.8217   79.1560   94.0385 C   0  0  0  0  0  0  0  0  0  0  0  0
   65.1066   77.9706   94.2216 C   0  0  0  0  0  0  0  0  0  0  0  0
   65.7196   76.7325   93.9797 C   0  0  0  0  0  0  0  0  0  0  0  0
   67.0622   76.6945   93.5711 C   0  0  0  0  0  0  0  0  0  0  0  0
   71.0309   78.5525   91.5321 C   0  0  0  0  0  0  0  0  0  0  0  0
   71.9122   77.6987   92.2017 C   0  0  0  0  0  0  0  0  0  0  0  0
   71.4588   76.9264   93.2727 C   0  0  0  0  0  0  0  0  0  0  0  0
   70.1214   76.9954   93.6723 C   0  0  0  0  0  0  0  0  0  0  0  0
   69.2193   77.8361   92.9954 C   0  0  0  0  0  0  0  0  0  0  0  0
   69.6873   78.6173   91.9227 C   0  0  0  0  0  0  0  0  0  0  0  0
   71.4940   79.3358   90.4727 O   0  0  0  0  0  0  0  0  0  0  0  0
   70.9668   85.0140   90.0640 C   0  0  0  0  0  0  0  0  0  0  0  0
   71.0989   83.5263   90.1924 C   0  0  0  0  0  0  0  0  0  0  0  0
   71.2872   82.7398   89.0486 C   0  0  0  0  0  0  0  0  0  0  0  0
   71.4043   81.3516   89.1563 C   0  0  0  0  0  0  0  0  0  0  0  0
   71.3358   80.7283   90.4077 C   0  0  0  0  0  0  0  0  0  0  0  0
   71.1338   81.5164   91.5560 C   0  0  0  0  0  0  0  0  0  0  0  0
   71.0148   82.9050   91.4484 C   0  0  0  0  0  0  0  0  0  0  0  0
   64.9739   75.4515   94.2182 C   0  0  0  0  0  0  0  0  0  0  0  0
   65.7762   74.3564   93.7841 O   0  0  0  0  0  0  0  0  0  0  0  0
   66.8128   73.7802   94.5330 C   0  0  0  0  0  0  0  0  0  0  0  0
   66.7297   73.8339   95.9259 C   0  0  0  0  0  0  0  0  0  0  0  0
   67.7343   73.2801   96.7174 C   0  0  0  0  0  0  0  0  0  0  0  0
   68.8409   72.6561   96.1278 C   0  0  0  0  0  0  0  0  0  0  0  0
   69.8305   72.1100   96.9443 O   0  0  0  0  0  0  0  0  0  0  0  0
   68.9429   72.5863   94.7190 C   0  0  0  0  0  0  0  0  0  0  0  0
   67.9217   73.1550   93.9331 C   0  0  0  0  0  0  0  0  0  0  0  0
   69.7509   72.1630   97.8764 H   0  0  0  0  0  0  0  0  0  0  0  0
   70.0932   71.9281   94.0476 C   0  0  0  0  0  0  0  0  0  0  0  0
   69.9692   70.7927   93.5151 O   0  0  0  0  0  0  0  0  0  0  0  0
   71.3316   72.5627   93.9979 O   0  0  0  0  0  0  0  0  0  0  0  0
   71.4413   73.4072   94.3888 H   0  0  0  0  0  0  0  0  0  0  0  0
 14 15  1  0  0  0
 15 16  2  0  0  0
 16 17  1  0  0  0
 17 18  2  0  0  0
 18 13  1  0  0  0
 13  7  1  0  0  0
  7  8  2  0  0  0
  8  9  1  0  0  0
  9 10  2  0  0  0
 10 11  1  0  0  0
 11  1  1  0  0  0
  1  2  2  0  0  0
  2  3  1  0  0  0
  3  4  2  0  0  0
  4  5  1  0  0  0
  5 21  1  0  0  0
 21 22  1  0  0  0
 22 23  1  0  0  0
 23 24  2  0  0  0
 24 25  1  0  0  0
 25 26  2  0  0  0
 26 27  1  0  0  0
 26 28  1  0  0  0
 28 31  1  0  0  0
 31 32  2  0  0  0
 31 33  1  0  0  0
 28 29  2  0  0  0
  5  6  2  0  0  0
 11 12  2  0  0  0
 18 19  1  0  0  0
 19 20  2  0  0  0
 20 15  1  0  0  0
 12  7  1  0  0  0
  6  1  1  0  0  0
 29 23  1  0  0  0
 27 30  1  0  0  0
 33 34  1  0  0  0
M  END
> <Activity>
4.7

> <minimizedAffinity>
0.37814

> <CNNscore>
0.8878428340

> <CNNaffinity>
6.3656339645

> <CNN_VS>
5.6516823769

$$$$
HIPS6994


 34 37  0  0  0  0  0  0  0  0999 V2000
   70.0570   77.3538   93.1742 C   0  0  0  0  0  0  0  0  0  0  0  0
   68.7360   77.7997   93.3504 C   0  0  0  0  0  0  0  0  0  0  0  0
   67.9781   77.3544   94.4360 C   0  0  0  0  0  0  0  0  0  0  0  0
   68.5296   76.4642   95.3598 C   0  0  0  0  0  0  0  0  0  0  0  0
   69.8417   75.9977   95.1932 C   0  0  0  0  0  0  0  0  0  0  0  0
   70.6015   76.4478   94.1018 C   0  0  0  0  0  0  0  0  0  0  0  0
   71.2440   79.4450   90.2366 C   0  0  0  0  0  0  0  0  0  0  0  0
   72.3977   78.7526   89.8577 C   0  0  0  0  0  0  0  0  0  0  0  0
   72.8012   77.6229   90.5719 C   0  0  0  0  0  0  0  0  0  0  0  0
   72.0484   77.1739   91.6604 C   0  0  0  0  0  0  0  0  0  0  0  0
   70.8751   77.8499   92.0411 C   0  0  0  0  0  0  0  0  0  0  0  0
   70.4810   78.9926   91.3206 C   0  0  0  0  0  0  0  0  0  0  0  0
   70.8549   80.5846   89.5292 O   0  0  0  0  0  0  0  0  0  0  0  0
   73.5989   85.6002   89.5411 C   0  0  0  0  0  0  0  0  0  0  0  0
   72.8986   84.2748   89.5416 C   0  0  0  0  0  0  0  0  0  0  0  0
   71.4988   84.2236   89.5600 C   0  0  0  0  0  0  0  0  0  0  0  0
   70.8362   82.9935   89.5678 C   0  0  0  0  0  0  0  0  0  0  0  0
   71.5615   81.7963   89.5568 C   0  0  0  0  0  0  0  0  0  0  0  0
   72.9678   81.8468   89.5513 C   0  0  0  0  0  0  0  0  0  0  0  0
   73.6311   83.0772   89.5452 C   0  0  0  0  0  0  0  0  0  0  0  0
   70.4594   75.0771   96.2055 C   0  0  0  0  0  0  0  0  0  0  0  0
   70.1564   73.7289   95.8568 O   0  0  0  0  0  0  0  0  0  0  0  0
   69.1944   73.3460   94.9106 C   0  0  0  0  0  0  0  0  0  0  0  0
   69.5087   72.3060   94.0333 C   0  0  0  0  0  0  0  0  0  0  0  0
   68.5905   71.8886   93.0714 C   0  0  0  0  0  0  0  0  0  0  0  0
   67.3356   72.5027   92.9732 C   0  0  0  0  0  0  0  0  0  0  0  0
   66.4365   72.0641   92.0018 O   0  0  0  0  0  0  0  0  0  0  0  0
   66.9948   73.5547   93.8547 C   0  0  0  0  0  0  0  0  0  0  0  0
   67.9356   73.9680   94.8180 C   0  0  0  0  0  0  0  0  0  0  0  0
   66.6747   71.3661   91.4239 H   0  0  0  0  0  0  0  0  0  0  0  0
   65.6735   74.2315   93.7944 C   0  0  0  0  0  0  0  0  0  0  0  0
   64.6375   73.6706   94.2418 O   0  0  0  0  0  0  0  0  0  0  0  0
   65.5632   75.5035   93.2389 O   0  0  0  0  0  0  0  0  0  0  0  0
   66.3234   75.9350   92.9017 H   0  0  0  0  0  0  0  0  0  0  0  0
 14 15  1  0  0  0
 15 16  2  0  0  0
 16 17  1  0  0  0
 17 18  2  0  0  0
 18 13  1  0  0  0
 13  7  1  0  0  0
  7  8  2  0  0  0
  8  9  1  0  0  0
  9 10  2  0  0  0
 10 11  1  0  0  0
 11  1  1  0  0  0
  1  2  2  0  0  0
  2  3  1  0  0  0
  3  4  2  0  0  0
  4  5  1  0  0  0
  5 21  1  0  0  0
 21 22  1  0  0  0
 22 23  1  0  0  0
 23 24  2  0  0  0
 24 25  1  0  0  0
 25 26  2  0  0  0
 26 27  1  0  0  0
 26 28  1  0  0  0
 28 31  1  0  0  0
 31 32  2  0  0  0
 31 33  1  0  0  0
 28 29  2  0  0  0
  5  6  2  0  0  0
 11 12  2  0  0  0
 18 19  1  0  0  0
 19 20  2  0  0  0
 20 15  1  0  0  0
 12  7  1  0  0  0
  6  1  1  0  0  0
 29 23  1  0  0  0
 27 30  1  0  0  0
 33 34  1  0  0  0
M  END
> <Activity>
4.7

> <minimizedAffinity>
3.18388

> <CNNscore>
0.8842096329

> <CNNaffinity>
5.9456300735

> <CNN_VS>
5.2571835518

$$$$
HIPS6991


 34 37  0  0  0  0  0  0  0  0999 V2000
   69.5843   77.6801   92.9013 C   0  0  0  0  0  0  0  0  0  0  0  0
   68.5072   78.5729   92.7896 C   0  0  0  0  0  0  0  0  0  0  0  0
   67.2712   78.2615   93.3695 C   0  0  0  0  0  0  0  0  0  0  0  0
   67.1015   77.0570   94.0566 C   0  0  0  0  0  0  0  0  0  0  0  0
   68.1647   76.1437   94.1599 C   0  0  0  0  0  0  0  0  0  0  0  0
   69.3975   76.4548   93.5570 C   0  0  0  0  0  0  0  0  0  0  0  0
   68.0339   74.9134   94.9733 C   0  0  0  0  0  0  0  0  0  0  0  0
   66.8312   74.6441   95.6472 C   0  0  0  0  0  0  0  0  0  0  0  0
   66.7518   73.5856   96.5559 C   0  0  0  0  0  0  0  0  0  0  0  0
   67.8720   72.7875   96.7981 C   0  0  0  0  0  0  0  0  0  0  0  0
   69.0671   73.0204   96.1026 C   0  0  0  0  0  0  0  0  0  0  0  0
   69.1377   74.0648   95.1733 C   0  0  0  0  0  0  0  0  0  0  0  0
   70.1866   72.2161   96.3227 O   0  0  0  0  0  0  0  0  0  0  0  0
   70.6242   71.2928   95.3695 C   0  0  0  0  0  0  0  0  0  0  0  0
   70.8241   69.9483   95.7180 C   0  0  0  0  0  0  0  0  0  0  0  0
   71.2686   69.0353   94.7559 C   0  0  0  0  0  0  0  0  0  0  0  0
   71.5084   69.4601   93.4423 C   0  0  0  0  0  0  0  0  0  0  0  0
   72.0665   68.3175   92.2376 Cl  0  0  0  0  0  0  0  0  0  0  0  0
   71.2996   70.8010   93.0901 C   0  0  0  0  0  0  0  0  0  0  0  0
   70.8620   71.7154   94.0519 C   0  0  0  0  0  0  0  0  0  0  0  0
   70.9340   78.0213   92.3365 C   0  0  0  0  0  0  0  0  0  0  0  0
   70.8710   79.2785   91.6849 O   0  0  0  0  0  0  0  0  0  0  0  0
   70.6698   82.9579   91.4087 C   0  0  0  0  0  0  0  0  0  0  0  0
   70.6055   81.6604   91.9369 C   0  0  0  0  0  0  0  0  0  0  0  0
   70.9899   80.5579   91.1656 C   0  0  0  0  0  0  0  0  0  0  0  0
   71.4682   80.7483   89.8650 C   0  0  0  0  0  0  0  0  0  0  0  0
   71.5555   82.0325   89.3328 C   0  0  0  0  0  0  0  0  0  0  0  0
   71.1754   83.1444   90.1001 C   0  0  0  0  0  0  0  0  0  0  0  0
   71.3616   84.4162   89.5497 O   0  0  0  0  0  0  0  0  0  0  0  0
   71.6984   84.5056   88.6799 H   0  0  0  0  0  0  0  0  0  0  0  0
   69.7915   85.1479   91.6653 O   0  0  0  0  0  0  0  0  0  0  0  0
   70.1719   84.0834   92.2247 C   0  0  0  0  0  0  0  0  0  0  0  0
   70.1246   83.9761   93.6129 O   0  0  0  0  0  0  0  0  0  0  0  0
   70.4064   83.1866   94.0317 H   0  0  0  0  0  0  0  0  0  0  0  0
 31 32  2  0  0  0
 32 33  1  0  0  0
 32 23  1  0  0  0
 23 24  2  0  0  0
 24 25  1  0  0  0
 25 22  1  0  0  0
 22 21  1  0  0  0
 21  1  1  0  0  0
  1  2  2  0  0  0
  2  3  1  0  0  0
  3  4  2  0  0  0
  4  5  1  0  0  0
  5  7  1  0  0  0
  7  8  2  0  0  0
  8  9  1  0  0  0
  9 10  2  0  0  0
 10 11  1  0  0  0
 11 13  1  0  0  0
 13 14  1  0  0  0
 14 15  2  0  0  0
 15 16  1  0  0  0
 16 17  2  0  0  0
 17 18  1  0  0  0
 17 19  1  0  0  0
 19 20  2  0  0  0
 11 12  2  0  0  0
  5  6  2  0  0  0
 25 26  2  0  0  0
 26 27  1  0  0  0
 27 28  2  0  0  0
 28 29  1  0  0  0
 28 23  1  0  0  0
  6  1  1  0  0  0
 12  7  1  0  0  0
 20 14  1  0  0  0
 33 34  1  0  0  0
 29 30  1  0  0  0
M  END
> <Activity>
5.0

> <minimizedAffinity>
0.80251

> <CNNscore>
0.8652670383

> <CNNaffinity>
5.8820486069

> <CNN_VS>
5.0895428658

$$$$
HIPS6991


 34 37  0  0  0  0  0  0  0  0999 V2000
   71.7739   77.8689   91.8914 C   0  0  0  0  0  0  0  0  0  0  0  0
   72.1649   77.2189   90.7105 C   0  0  0  0  0  0  0  0  0  0  0  0
   72.1912   77.9180   89.4975 C   0  0  0  0  0  0  0  0  0  0  0  0
   71.8218   79.2647   89.4548 C   0  0  0  0  0  0  0  0  0  0  0  0
   71.4088   79.9240   90.6253 C   0  0  0  0  0  0  0  0  0  0  0  0
   71.3655   79.2092   91.8366 C   0  0  0  0  0  0  0  0  0  0  0  0
   71.1165   81.3755   90.6174 C   0  0  0  0  0  0  0  0  0  0  0  0
   71.3482   82.1301   89.4556 C   0  0  0  0  0  0  0  0  0  0  0  0
   71.2466   83.5234   89.4858 C   0  0  0  0  0  0  0  0  0  0  0  0
   70.9120   84.1737   90.6756 C   0  0  0  0  0  0  0  0  0  0  0  0
   70.6390   83.4301   91.8326 C   0  0  0  0  0  0  0  0  0  0  0  0
   70.7157   82.0330   91.7945 C   0  0  0  0  0  0  0  0  0  0  0  0
   70.2843   84.0693   93.0219 O   0  0  0  0  0  0  0  0  0  0  0  0
   69.1710   84.9104   93.0977 C   0  0  0  0  0  0  0  0  0  0  0  0
   68.9548   85.8969   92.1234 C   0  0  0  0  0  0  0  0  0  0  0  0
   67.8398   86.7367   92.2144 C   0  0  0  0  0  0  0  0  0  0  0  0
   66.9345   86.5902   93.2738 C   0  0  0  0  0  0  0  0  0  0  0  0
   65.5390   87.6427   93.3888 Cl  0  0  0  0  0  0  0  0  0  0  0  0
   67.1438   85.5984   94.2425 C   0  0  0  0  0  0  0  0  0  0  0  0
   68.2608   84.7632   94.1565 C   0  0  0  0  0  0  0  0  0  0  0  0
   71.7944   77.1528   93.2119 C   0  0  0  0  0  0  0  0  0  0  0  0
   70.4651   76.9244   93.6479 O   0  0  0  0  0  0  0  0  0  0  0  0
   67.7929   74.8708   95.1632 C   0  0  0  0  0  0  0  0  0  0  0  0
   69.0645   75.3546   94.8231 C   0  0  0  0  0  0  0  0  0  0  0  0
   69.2019   76.4903   94.0172 C   0  0  0  0  0  0  0  0  0  0  0  0
   68.0645   77.1682   93.5661 C   0  0  0  0  0  0  0  0  0  0  0  0
   66.7949   76.7108   93.9109 C   0  0  0  0  0  0  0  0  0  0  0  0
   66.6474   75.5746   94.7214 C   0  0  0  0  0  0  0  0  0  0  0  0
   65.3547   75.2069   95.1071 O   0  0  0  0  0  0  0  0  0  0  0  0
   64.6168   75.6940   94.7968 H   0  0  0  0  0  0  0  0  0  0  0  0
   66.5689   73.2214   96.3526 O   0  0  0  0  0  0  0  0  0  0  0  0
   67.6927   73.6199   95.9415 C   0  0  0  0  0  0  0  0  0  0  0  0
   68.8371   72.8788   96.2283 O   0  0  0  0  0  0  0  0  0  0  0  0
   69.6735   73.1721   95.9245 H   0  0  0  0  0  0  0  0  0  0  0  0
 31 32  2  0  0  0
 32 33  1  0  0  0
 32 23  1  0  0  0
 23 24  2  0  0  0
 24 25  1  0  0  0
 25 22  1  0  0  0
 22 21  1  0  0  0
 21  1  1  0  0  0
  1  2  2  0  0  0
  2  3  1  0  0  0
  3  4  2  0  0  0
  4  5  1  0  0  0
  5  7  1  0  0  0
  7  8  2  0  0  0
  8  9  1  0  0  0
  9 10  2  0  0  0
 10 11  1  0  0  0
 11 13  1  0  0  0
 13 14  1  0  0  0
 14 15  2  0  0  0
 15 16  1  0  0  0
 16 17  2  0  0  0
 17 18  1  0  0  0
 17 19  1  0  0  0
 19 20  2  0  0  0
 11 12  2  0  0  0
  5  6  2  0  0  0
 25 26  2  0  0  0
 26 27  1  0  0  0
 27 28  2  0  0  0
 28 29  1  0  0  0
 28 23  1  0  0  0
  6  1  1  0  0  0
 12  7  1  0  0  0
 20 14  1  0  0  0
 33 34  1  0  0  0
 29 30  1  0  0  0
M  END
> <Activity>
5.0

> <minimizedAffinity>
-5.31385

> <CNNscore>
0.8470255136

> <CNNaffinity>
6.2378816605

> <CNN_VS>
5.2836451530

$$$$
HIPS6991


 34 37  0  0  0  0  0  0  0  0999 V2000
   68.9965   74.8641   95.1363 C   0  0  0  0  0  0  0  0  0  0  0  0
   67.6658   75.3068   95.1910 C   0  0  0  0  0  0  0  0  0  0  0  0
   67.2705   76.4401   94.4696 C   0  0  0  0  0  0  0  0  0  0  0  0
   68.2002   77.1403   93.6969 C   0  0  0  0  0  0  0  0  0  0  0  0
   69.5407   76.7210   93.6480 C   0  0  0  0  0  0  0  0  0  0  0  0
   69.9345   75.5934   94.3918 C   0  0  0  0  0  0  0  0  0  0  0  0
   70.5135   77.3872   92.7522 C   0  0  0  0  0  0  0  0  0  0  0  0
   71.8885   77.1465   92.9089 C   0  0  0  0  0  0  0  0  0  0  0  0
   72.8237   77.8985   92.1932 C   0  0  0  0  0  0  0  0  0  0  0  0
   72.3935   78.8959   91.3153 C   0  0  0  0  0  0  0  0  0  0  0  0
   71.0231   79.1194   91.1195 C   0  0  0  0  0  0  0  0  0  0  0  0
   70.0869   78.3478   91.8175 C   0  0  0  0  0  0  0  0  0  0  0  0
   70.5825   80.1004   90.2294 O   0  0  0  0  0  0  0  0  0  0  0  0
   71.2887   81.2918   90.0439 C   0  0  0  0  0  0  0  0  0  0  0  0
   71.0366   82.1039   88.9276 C   0  0  0  0  0  0  0  0  0  0  0  0
   71.7552   83.2909   88.7501 C   0  0  0  0  0  0  0  0  0  0  0  0
   72.7221   83.6739   89.6892 C   0  0  0  0  0  0  0  0  0  0  0  0
   73.6231   85.1594   89.4664 Cl  0  0  0  0  0  0  0  0  0  0  0  0
   72.9680   82.8685   90.8102 C   0  0  0  0  0  0  0  0  0  0  0  0
   72.2557   81.6792   90.9852 C   0  0  0  0  0  0  0  0  0  0  0  0
   69.4274   73.6178   95.8562 C   0  0  0  0  0  0  0  0  0  0  0  0
   69.9400   72.6838   94.9213 O   0  0  0  0  0  0  0  0  0  0  0  0
   72.5726   70.5042   93.5167 C   0  0  0  0  0  0  0  0  0  0  0  0
   71.9292   71.4748   94.2981 C   0  0  0  0  0  0  0  0  0  0  0  0
   70.5510   71.6852   94.1794 C   0  0  0  0  0  0  0  0  0  0  0  0
   69.7991   70.9055   93.2944 C   0  0  0  0  0  0  0  0  0  0  0  0
   70.4206   69.9248   92.5250 C   0  0  0  0  0  0  0  0  0  0  0  0
   71.8019   69.7043   92.6397 C   0  0  0  0  0  0  0  0  0  0  0  0
   72.3616   68.6526   91.9078 O   0  0  0  0  0  0  0  0  0  0  0  0
   71.8237   68.1418   91.3355 H   0  0  0  0  0  0  0  0  0  0  0  0
   74.7758   71.3803   93.4082 O   0  0  0  0  0  0  0  0  0  0  0  0
   74.0407   70.3753   93.6092 C   0  0  0  0  0  0  0  0  0  0  0  0
   74.6189   69.1449   93.9137 O   0  0  0  0  0  0  0  0  0  0  0  0
   74.0757   68.3962   94.0636 H   0  0  0  0  0  0  0  0  0  0  0  0
 31 32  2  0  0  0
 32 33  1  0  0  0
 32 23  1  0  0  0
 23 24  2  0  0  0
 24 25  1  0  0  0
 25 22  1  0  0  0
 22 21  1  0  0  0
 21  1  1  0  0  0
  1  2  2  0  0  0
  2  3  1  0  0  0
  3  4  2  0  0  0
  4  5  1  0  0  0
  5  7  1  0  0  0
  7  8  2  0  0  0
  8  9  1  0  0  0
  9 10  2  0  0  0
 10 11  1  0  0  0
 11 13  1  0  0  0
 13 14  1  0  0  0
 14 15  2  0  0  0
 15 16  1  0  0  0
 16 17  2  0  0  0
 17 18  1  0  0  0
 17 19  1  0  0  0
 19 20  2  0  0  0
 11 12  2  0  0  0
  5  6  2  0  0  0
 25 26  2  0  0  0
 26 27  1  0  0  0
 27 28  2  0  0  0
 28 29  1  0  0  0
 28 23  1  0  0  0
  6  1  1  0  0  0
 12  7  1  0  0  0
 20 14  1  0  0  0
 33 34  1  0  0  0
 29 30  1  0  0  0
M  END
> <Activity>
5.0

> <minimizedAffinity>
-0.10031

> <CNNscore>
0.8097253442

> <CNNaffinity>
5.8544616699

> <CNN_VS>
4.7405061722

$$$$
HIPS6998


 35 38  0  0  0  0  0  0  0  0999 V2000
   71.0627   80.5510   90.8646 C   0  0  0  0  0  0  0  0  0  0  0  0
   72.0125   79.8718   90.0871 C   0  0  0  0  0  0  0  0  0  0  0  0
   72.1713   78.4912   90.2190 C   0  0  0  0  0  0  0  0  0  0  0  0
   71.3799   77.7754   91.1202 C   0  0  0  0  0  0  0  0  0  0  0  0
   70.4117   78.4350   91.8980 C   0  0  0  0  0  0  0  0  0  0  0  0
   70.2560   79.8262   91.7569 C   0  0  0  0  0  0  0  0  0  0  0  0
   69.5699   77.6758   92.8573 C   0  0  0  0  0  0  0  0  0  0  0  0
   68.2325   78.0461   93.0822 C   0  0  0  0  0  0  0  0  0  0  0  0
   67.4445   77.3320   93.9870 C   0  0  0  0  0  0  0  0  0  0  0  0
   67.9791   76.2447   94.6805 C   0  0  0  0  0  0  0  0  0  0  0  0
   69.3176   75.8622   94.4741 C   0  0  0  0  0  0  0  0  0  0  0  0
   70.1000   76.5779   93.5596 C   0  0  0  0  0  0  0  0  0  0  0  0
   69.9103   74.7842   95.1517 O   0  0  0  0  0  0  0  0  0  0  0  0
   69.2421   73.5807   95.5322 C   0  0  0  0  0  0  0  0  0  0  0  0
   70.1123   72.3798   95.2711 C   0  0  0  0  0  0  0  0  0  0  0  0
   70.2873   71.3958   96.2582 C   0  0  0  0  0  0  0  0  0  0  0  0
   71.0906   70.2794   96.0058 C   0  0  0  0  0  0  0  0  0  0  0  0
   71.7174   70.1323   94.7641 C   0  0  0  0  0  0  0  0  0  0  0  0
   72.7250   68.7315   94.4495 Cl  0  0  0  0  0  0  0  0  0  0  0  0
   71.5368   71.1019   93.7723 C   0  0  0  0  0  0  0  0  0  0  0  0
   70.7343   72.2192   94.0220 C   0  0  0  0  0  0  0  0  0  0  0  0
   70.8894   82.0413   90.7286 C   0  0  0  0  0  0  0  0  0  0  0  0
   71.0833   82.6942   91.9845 O   0  0  0  0  0  0  0  0  0  0  0  0
   69.0625   85.8425   92.2532 C   0  0  0  0  0  0  0  0  0  0  0  0
   69.8479   84.8120   91.7015 C   0  0  0  0  0  0  0  0  0  0  0  0
   70.2859   83.7331   92.4927 C   0  0  0  0  0  0  0  0  0  0  0  0
   69.9205   83.6827   93.8394 C   0  0  0  0  0  0  0  0  0  0  0  0
   69.1402   84.6930   94.4001 C   0  0  0  0  0  0  0  0  0  0  0  0
   68.7090   85.7747   93.6206 C   0  0  0  0  0  0  0  0  0  0  0  0
   67.9334   86.7742   94.2085 O   0  0  0  0  0  0  0  0  0  0  0  0
   67.7058   86.7178   95.1157 H   0  0  0  0  0  0  0  0  0  0  0  0
   69.2489   87.2409   90.3215 O   0  0  0  0  0  0  0  0  0  0  0  0
   68.6307   86.9689   91.3856 C   0  0  0  0  0  0  0  0  0  0  0  0
   67.5280   87.7423   91.7411 O   0  0  0  0  0  0  0  0  0  0  0  0
   67.0576   87.5531   92.5291 H   0  0  0  0  0  0  0  0  0  0  0  0
 32 33  2  0  0  0
 33 34  1  0  0  0
 33 24  1  0  0  0
 24 25  2  0  0  0
 25 26  1  0  0  0
 26 23  1  0  0  0
 23 22  1  0  0  0
 22  1  1  0  0  0
  1  2  2  0  0  0
  2  3  1  0  0  0
  3  4  2  0  0  0
  4  5  1  0  0  0
  5  7  1  0  0  0
  7  8  2  0  0  0
  8  9  1  0  0  0
  9 10  2  0  0  0
 10 11  1  0  0  0
 11 13  1  0  0  0
 13 14  1  0  0  0
 14 15  1  0  0  0
 15 16  2  0  0  0
 16 17  1  0  0  0
 17 18  2  0  0  0
 18 19  1  0  0  0
 18 20  1  0  0  0
 20 21  2  0  0  0
 11 12  2  0  0  0
  5  6  2  0  0  0
 26 27  2  0  0  0
 27 28  1  0  0  0
 28 29  2  0  0  0
 29 30  1  0  0  0
 29 24  1  0  0  0
  6  1  1  0  0  0
 12  7  1  0  0  0
 21 15  1  0  0  0
 34 35  1  0  0  0
 30 31  1  0  0  0
M  END
> <Activity>
5.3

> <minimizedAffinity>
0.90102

> <CNNscore>
0.8668566346

> <CNNaffinity>
5.7927484512

> <CNN_VS>
5.0214824677

$$$$
HIPS6998


 35 38  0  0  0  0  0  0  0  0999 V2000
   71.0332   80.4894   90.8406 C   0  0  0  0  0  0  0  0  0  0  0  0
   72.0111   79.8170   90.0927 C   0  0  0  0  0  0  0  0  0  0  0  0
   72.1997   78.4435   90.2558 C   0  0  0  0  0  0  0  0  0  0  0  0
   71.4104   77.7278   91.1590 C   0  0  0  0  0  0  0  0  0  0  0  0
   70.4146   78.3803   91.9074 C   0  0  0  0  0  0  0  0  0  0  0  0
   70.2290   79.7643   91.7348 C   0  0  0  0  0  0  0  0  0  0  0  0
   69.5750   77.6213   92.8688 C   0  0  0  0  0  0  0  0  0  0  0  0
   68.2293   77.9726   93.0740 C   0  0  0  0  0  0  0  0  0  0  0  0
   67.4434   77.2588   93.9808 C   0  0  0  0  0  0  0  0  0  0  0  0
   67.9883   76.1907   94.6959 C   0  0  0  0  0  0  0  0  0  0  0  0
   69.3349   75.8275   94.5094 C   0  0  0  0  0  0  0  0  0  0  0  0
   70.1154   76.5427   93.5928 C   0  0  0  0  0  0  0  0  0  0  0  0
   69.9379   74.7695   95.2091 O   0  0  0  0  0  0  0  0  0  0  0  0
   69.2791   73.5714   95.6219 C   0  0  0  0  0  0  0  0  0  0  0  0
   70.1235   72.3631   95.3146 C   0  0  0  0  0  0  0  0  0  0  0  0
   70.7641   72.2365   94.0708 C   0  0  0  0  0  0  0  0  0  0  0  0
   71.5530   71.1153   93.7954 C   0  0  0  0  0  0  0  0  0  0  0  0
   71.7156   70.1172   94.7617 C   0  0  0  0  0  0  0  0  0  0  0  0
   72.7052   68.7113   94.4141 Cl  0  0  0  0  0  0  0  0  0  0  0  0
   71.0910   70.2433   96.0067 C   0  0  0  0  0  0  0  0  0  0  0  0
   70.3016   71.3632   96.2849 C   0  0  0  0  0  0  0  0  0  0  0  0
   70.8276   81.9722   90.6708 C   0  0  0  0  0  0  0  0  0  0  0  0
   71.1052   82.6683   91.8871 O   0  0  0  0  0  0  0  0  0  0  0  0
   69.1017   84.7654   94.2653 C   0  0  0  0  0  0  0  0  0  0  0  0
   69.8952   83.7141   93.7668 C   0  0  0  0  0  0  0  0  0  0  0  0
   70.3263   83.7054   92.4267 C   0  0  0  0  0  0  0  0  0  0  0  0
   69.9708   84.7645   91.5892 C   0  0  0  0  0  0  0  0  0  0  0  0
   69.1888   85.8148   92.0682 C   0  0  0  0  0  0  0  0  0  0  0  0
   68.7482   85.8250   93.3983 C   0  0  0  0  0  0  0  0  0  0  0  0
   67.9628   86.8858   93.8497 O   0  0  0  0  0  0  0  0  0  0  0  0
   67.7353   87.5821   93.2654 H   0  0  0  0  0  0  0  0  0  0  0  0
   69.4913   84.8243   96.6246 O   0  0  0  0  0  0  0  0  0  0  0  0
   68.6587   84.7301   95.6832 C   0  0  0  0  0  0  0  0  0  0  0  0
   67.3069   84.5924   95.9900 O   0  0  0  0  0  0  0  0  0  0  0  0
   66.6752   84.5211   95.3017 H   0  0  0  0  0  0  0  0  0  0  0  0
 32 33  2  0  0  0
 33 34  1  0  0  0
 33 24  1  0  0  0
 24 25  2  0  0  0
 25 26  1  0  0  0
 26 23  1  0  0  0
 23 22  1  0  0  0
 22  1  1  0  0  0
  1  2  2  0  0  0
  2  3  1  0  0  0
  3  4  2  0  0  0
  4  5  1  0  0  0
  5  7  1  0  0  0
  7  8  2  0  0  0
  8  9  1  0  0  0
  9 10  2  0  0  0
 10 11  1  0  0  0
 11 13  1  0  0  0
 13 14  1  0  0  0
 14 15  1  0  0  0
 15 16  2  0  0  0
 16 17  1  0  0  0
 17 18  2  0  0  0
 18 19  1  0  0  0
 18 20  1  0  0  0
 20 21  2  0  0  0
 11 12  2  0  0  0
  5  6  2  0  0  0
 26 27  2  0  0  0
 27 28  1  0  0  0
 28 29  2  0  0  0
 29 30  1  0  0  0
 29 24  1  0  0  0
  6  1  1  0  0  0
 12  7  1  0  0  0
 21 15  1  0  0  0
 34 35  1  0  0  0
 30 31  1  0  0  0
M  END
> <Activity>
5.3

> <minimizedAffinity>
0.91861

> <CNNscore>
0.8589138389

> <CNNaffinity>
5.8036565781

> <CNN_VS>
4.9848408699

$$$$
HIPS6998


 35 38  0  0  0  0  0  0  0  0999 V2000
   71.0869   78.4532   91.5029 C   0  0  0  0  0  0  0  0  0  0  0  0
   71.9961   77.6703   92.2298 C   0  0  0  0  0  0  0  0  0  0  0  0
   71.5671   76.9472   93.3441 C   0  0  0  0  0  0  0  0  0  0  0  0
   70.2278   76.9917   93.7381 C   0  0  0  0  0  0  0  0  0  0  0  0
   69.2973   77.7584   93.0141 C   0  0  0  0  0  0  0  0  0  0  0  0
   69.7374   78.4819   91.8905 C   0  0  0  0  0  0  0  0  0  0  0  0
   67.8731   77.8076   93.4319 C   0  0  0  0  0  0  0  0  0  0  0  0
   67.2603   79.0356   93.7363 C   0  0  0  0  0  0  0  0  0  0  0  0
   65.9219   79.0782   94.1317 C   0  0  0  0  0  0  0  0  0  0  0  0
   65.1799   77.8999   94.2322 C   0  0  0  0  0  0  0  0  0  0  0  0
   65.7769   76.6600   93.9379 C   0  0  0  0  0  0  0  0  0  0  0  0
   67.1175   76.6252   93.5346 C   0  0  0  0  0  0  0  0  0  0  0  0
   65.0819   75.4433   94.0323 O   0  0  0  0  0  0  0  0  0  0  0  0
   65.3265   74.4263   95.0047 C   0  0  0  0  0  0  0  0  0  0  0  0
   66.6986   73.8327   94.8250 C   0  0  0  0  0  0  0  0  0  0  0  0
   67.0254   73.1299   93.6534 C   0  0  0  0  0  0  0  0  0  0  0  0
   68.3042   72.5882   93.4901 C   0  0  0  0  0  0  0  0  0  0  0  0
   69.2683   72.7514   94.4902 C   0  0  0  0  0  0  0  0  0  0  0  0
   70.8716   72.0708   94.2837 Cl  0  0  0  0  0  0  0  0  0  0  0  0
   68.9534   73.4612   95.6535 C   0  0  0  0  0  0  0  0  0  0  0  0
   67.6757   74.0038   95.8195 C   0  0  0  0  0  0  0  0  0  0  0  0
   71.5452   79.2382   90.3015 C   0  0  0  0  0  0  0  0  0  0  0  0
   70.9312   80.5277   90.2700 O   0  0  0  0  0  0  0  0  0  0  0  0
   71.8640   83.7119   88.5211 C   0  0  0  0  0  0  0  0  0  0  0  0
   71.1797   82.5225   88.8382 C   0  0  0  0  0  0  0  0  0  0  0  0
   71.5771   81.7280   89.9303 C   0  0  0  0  0  0  0  0  0  0  0  0
   72.6567   82.1385   90.7150 C   0  0  0  0  0  0  0  0  0  0  0  0
   73.3425   83.3153   90.4167 C   0  0  0  0  0  0  0  0  0  0  0  0
   72.9583   84.1057   89.3253 C   0  0  0  0  0  0  0  0  0  0  0  0
   73.6652   85.2757   89.0468 O   0  0  0  0  0  0  0  0  0  0  0  0
   74.3886   85.5259   89.5872 H   0  0  0  0  0  0  0  0  0  0  0  0
   71.2051   83.9714   86.2364 O   0  0  0  0  0  0  0  0  0  0  0  0
   71.4189   84.5152   87.3530 C   0  0  0  0  0  0  0  0  0  0  0  0
   71.2303   85.8895   87.4807 O   0  0  0  0  0  0  0  0  0  0  0  0
   71.3850   86.3091   88.3041 H   0  0  0  0  0  0  0  0  0  0  0  0
 32 33  2  0  0  0
 33 34  1  0  0  0
 33 24  1  0  0  0
 24 25  2  0  0  0
 25 26  1  0  0  0
 26 23  1  0  0  0
 23 22  1  0  0  0
 22  1  1  0  0  0
  1  2  2  0  0  0
  2  3  1  0  0  0
  3  4  2  0  0  0
  4  5  1  0  0  0
  5  7  1  0  0  0
  7  8  2  0  0  0
  8  9  1  0  0  0
  9 10  2  0  0  0
 10 11  1  0  0  0
 11 13  1  0  0  0
 13 14  1  0  0  0
 14 15  1  0  0  0
 15 16  2  0  0  0
 16 17  1  0  0  0
 17 18  2  0  0  0
 18 19  1  0  0  0
 18 20  1  0  0  0
 20 21  2  0  0  0
 11 12  2  0  0  0
  5  6  2  0  0  0
 26 27  2  0  0  0
 27 28  1  0  0  0
 28 29  2  0  0  0
 29 30  1  0  0  0
 29 24  1  0  0  0
  6  1  1  0  0  0
 12  7  1  0  0  0
 21 15  1  0  0  0
 34 35  1  0  0  0
 30 31  1  0  0  0
M  END
> <Activity>
5.3

> <minimizedAffinity>
-1.23349

> <CNNscore>
0.8423551321

> <CNNaffinity>
6.0740184784

> <CNN_VS>
5.1164808273

$$$$
HIPS7006


 36 39  0  0  0  0  0  0  0  0999 V2000
   71.0611   78.4678   91.5178 C   0  0  0  0  0  0  0  0  0  0  0  0
   71.9787   77.6596   92.2019 C   0  0  0  0  0  0  0  0  0  0  0  0
   71.5614   76.8983   93.2948 C   0  0  0  0  0  0  0  0  0  0  0  0
   70.2250   76.9256   93.7037 C   0  0  0  0  0  0  0  0  0  0  0  0
   69.2919   77.7532   93.0483 C   0  0  0  0  0  0  0  0  0  0  0  0
   69.7395   78.5572   91.9826 C   0  0  0  0  0  0  0  0  0  0  0  0
   67.8487   77.7341   93.4282 C   0  0  0  0  0  0  0  0  0  0  0  0
   67.1276   78.9330   93.5848 C   0  0  0  0  0  0  0  0  0  0  0  0
   65.7893   78.9087   93.9834 C   0  0  0  0  0  0  0  0  0  0  0  0
   65.1450   77.6917   94.2092 C   0  0  0  0  0  0  0  0  0  0  0  0
   65.8256   76.4847   94.0256 C   0  0  0  0  0  0  0  0  0  0  0  0
   67.1832   76.5109   93.6578 C   0  0  0  0  0  0  0  0  0  0  0  0
   65.1164   75.2863   94.2067 O   0  0  0  0  0  0  0  0  0  0  0  0
   65.4591   74.2648   95.1454 C   0  0  0  0  0  0  0  0  0  0  0  0
   66.8557   73.7489   94.9213 C   0  0  0  0  0  0  0  0  0  0  0  0
   67.1746   73.0572   93.7417 C   0  0  0  0  0  0  0  0  0  0  0  0
   68.4882   72.6413   93.5012 C   0  0  0  0  0  0  0  0  0  0  0  0
   69.4977   72.9224   94.4319 C   0  0  0  0  0  0  0  0  0  0  0  0
   70.8083   72.5080   94.2062 O   0  0  0  0  0  0  0  0  0  0  0  0
   69.1864   73.6205   95.6031 C   0  0  0  0  0  0  0  0  0  0  0  0
   67.8737   74.0349   95.8469 C   0  0  0  0  0  0  0  0  0  0  0  0
   71.0234   72.0399   93.4236 H   0  0  0  0  0  0  0  0  0  0  0  0
   71.4577   79.1762   90.2470 C   0  0  0  0  0  0  0  0  0  0  0  0
   70.8499   80.4678   90.1473 O   0  0  0  0  0  0  0  0  0  0  0  0
   71.8834   83.7121   88.5611 C   0  0  0  0  0  0  0  0  0  0  0  0
   71.1213   82.5686   88.8677 C   0  0  0  0  0  0  0  0  0  0  0  0
   71.5153   81.6808   89.8868 C   0  0  0  0  0  0  0  0  0  0  0  0
   72.6347   81.9934   90.6593 C   0  0  0  0  0  0  0  0  0  0  0  0
   73.3441   83.1727   90.4346 C   0  0  0  0  0  0  0  0  0  0  0  0
   72.9714   84.0484   89.4090 C   0  0  0  0  0  0  0  0  0  0  0  0
   73.6867   85.2420   89.2922 O   0  0  0  0  0  0  0  0  0  0  0  0
   74.3982   85.4208   89.8752 H   0  0  0  0  0  0  0  0  0  0  0  0
   71.2625   83.8281   86.2493 O   0  0  0  0  0  0  0  0  0  0  0  0
   71.5711   84.4439   87.3033 C   0  0  0  0  0  0  0  0  0  0  0  0
   71.5280   85.8365   87.3013 O   0  0  0  0  0  0  0  0  0  0  0  0
   71.7540   86.3134   88.0757 H   0  0  0  0  0  0  0  0  0  0  0  0
 33 34  2  0  0  0
 34 35  1  0  0  0
 34 25  1  0  0  0
 25 26  2  0  0  0
 26 27  1  0  0  0
 27 24  1  0  0  0
 24 23  1  0  0  0
 23  1  1  0  0  0
  1  2  2  0  0  0
  2  3  1  0  0  0
  3  4  2  0  0  0
  4  5  1  0  0  0
  5  7  1  0  0  0
  7  8  2  0  0  0
  8  9  1  0  0  0
  9 10  2  0  0  0
 10 11  1  0  0  0
 11 13  1  0  0  0
 13 14  1  0  0  0
 14 15  1  0  0  0
 15 16  2  0  0  0
 16 17  1  0  0  0
 17 18  2  0  0  0
 18 19  1  0  0  0
 18 20  1  0  0  0
 20 21  2  0  0  0
 11 12  2  0  0  0
  5  6  2  0  0  0
 27 28  2  0  0  0
 28 29  1  0  0  0
 29 30  2  0  0  0
 30 31  1  0  0  0
 30 25  1  0  0  0
  6  1  1  0  0  0
 12  7  1  0  0  0
 21 15  1  0  0  0
 35 36  1  0  0  0
 19 22  1  0  0  0
 31 32  1  0  0  0
M  END
> <Activity>
6.5

> <minimizedAffinity>
-1.66014

> <CNNscore>
0.8792852163

> <CNNaffinity>
6.0974140167

> <CNN_VS>
5.3613657951

$$$$
HIPS7006


 36 39  0  0  0  0  0  0  0  0999 V2000
   70.9952   78.5481   91.4704 C   0  0  0  0  0  0  0  0  0  0  0  0
   71.9361   77.7387   92.1208 C   0  0  0  0  0  0  0  0  0  0  0  0
   71.5507   76.9547   93.2094 C   0  0  0  0  0  0  0  0  0  0  0  0
   70.2232   76.9605   93.6474 C   0  0  0  0  0  0  0  0  0  0  0  0
   69.2674   77.7887   93.0263 C   0  0  0  0  0  0  0  0  0  0  0  0
   69.6832   78.6152   91.9650 C   0  0  0  0  0  0  0  0  0  0  0  0
   67.8331   77.7475   93.4368 C   0  0  0  0  0  0  0  0  0  0  0  0
   67.1037   78.9356   93.6323 C   0  0  0  0  0  0  0  0  0  0  0  0
   65.7748   78.8899   94.0591 C   0  0  0  0  0  0  0  0  0  0  0  0
   65.1475   77.6622   94.2750 C   0  0  0  0  0  0  0  0  0  0  0  0
   65.8359   76.4661   94.0533 C   0  0  0  0  0  0  0  0  0  0  0  0
   67.1848   76.5133   93.6569 C   0  0  0  0  0  0  0  0  0  0  0  0
   65.1426   75.2572   94.2262 O   0  0  0  0  0  0  0  0  0  0  0  0
   65.4960   74.2361   95.1614 C   0  0  0  0  0  0  0  0  0  0  0  0
   66.8911   73.7223   94.9235 C   0  0  0  0  0  0  0  0  0  0  0  0
   67.2004   73.0345   93.7390 C   0  0  0  0  0  0  0  0  0  0  0  0
   68.5122   72.6208   93.4857 C   0  0  0  0  0  0  0  0  0  0  0  0
   69.5296   72.8999   94.4085 C   0  0  0  0  0  0  0  0  0  0  0  0
   70.8385   72.4876   94.1701 O   0  0  0  0  0  0  0  0  0  0  0  0
   69.2279   73.5941   95.5845 C   0  0  0  0  0  0  0  0  0  0  0  0
   67.9169   74.0064   95.8410 C   0  0  0  0  0  0  0  0  0  0  0  0
   71.0473   72.0222   93.3841 H   0  0  0  0  0  0  0  0  0  0  0  0
   71.3567   79.2819   90.2035 C   0  0  0  0  0  0  0  0  0  0  0  0
   72.1770   80.4243   90.4674 O   0  0  0  0  0  0  0  0  0  0  0  0
   70.7629   83.8439   91.1124 C   0  0  0  0  0  0  0  0  0  0  0  0
   71.2355   82.5381   91.3445 C   0  0  0  0  0  0  0  0  0  0  0  0
   71.8007   81.7714   90.3079 C   0  0  0  0  0  0  0  0  0  0  0  0
   71.9708   82.3553   89.0518 C   0  0  0  0  0  0  0  0  0  0  0  0
   71.5995   83.6810   88.8302 C   0  0  0  0  0  0  0  0  0  0  0  0
   71.0167   84.4415   89.8497 C   0  0  0  0  0  0  0  0  0  0  0  0
   70.7377   85.7814   89.5719 O   0  0  0  0  0  0  0  0  0  0  0  0
   70.9226   86.1322   88.7229 H   0  0  0  0  0  0  0  0  0  0  0  0
   69.2442   85.5112   91.9228 O   0  0  0  0  0  0  0  0  0  0  0  0
   69.9301   84.4839   92.1667 C   0  0  0  0  0  0  0  0  0  0  0  0
   69.8281   83.8949   93.4253 O   0  0  0  0  0  0  0  0  0  0  0  0
   70.3302   83.1298   93.6266 H   0  0  0  0  0  0  0  0  0  0  0  0
 33 34  2  0  0  0
 34 35  1  0  0  0
 34 25  1  0  0  0
 25 26  2  0  0  0
 26 27  1  0  0  0
 27 24  1  0  0  0
 24 23  1  0  0  0
 23  1  1  0  0  0
  1  2  2  0  0  0
  2  3  1  0  0  0
  3  4  2  0  0  0
  4  5  1  0  0  0
  5  7  1  0  0  0
  7  8  2  0  0  0
  8  9  1  0  0  0
  9 10  2  0  0  0
 10 11  1  0  0  0
 11 13  1  0  0  0
 13 14  1  0  0  0
 14 15  1  0  0  0
 15 16  2  0  0  0
 16 17  1  0  0  0
 17 18  2  0  0  0
 18 19  1  0  0  0
 18 20  1  0  0  0
 20 21  2  0  0  0
 11 12  2  0  0  0
  5  6  2  0  0  0
 27 28  2  0  0  0
 28 29  1  0  0  0
 29 30  2  0  0  0
 30 31  1  0  0  0
 30 25  1  0  0  0
  6  1  1  0  0  0
 12  7  1  0  0  0
 21 15  1  0  0  0
 35 36  1  0  0  0
 19 22  1  0  0  0
 31 32  1  0  0  0
M  END
> <Activity>
6.5

> <minimizedAffinity>
0.23767

> <CNNscore>
0.8704656959

> <CNNaffinity>
6.1265592575

> <CNN_VS>
5.3329596519

$$$$
HIPS7006


 36 39  0  0  0  0  0  0  0  0999 V2000
   71.4570   77.7651   91.7763 C   0  0  0  0  0  0  0  0  0  0  0  0
   72.2593   77.0794   90.8546 C   0  0  0  0  0  0  0  0  0  0  0  0
   72.7831   77.7501   89.7483 C   0  0  0  0  0  0  0  0  0  0  0  0
   72.5236   79.1109   89.5612 C   0  0  0  0  0  0  0  0  0  0  0  0
   71.6960   79.8127   90.4599 C   0  0  0  0  0  0  0  0  0  0  0  0
   71.1300   79.1097   91.5406 C   0  0  0  0  0  0  0  0  0  0  0  0
   71.4729   81.2809   90.3117 C   0  0  0  0  0  0  0  0  0  0  0  0
   71.8394   81.9511   89.1292 C   0  0  0  0  0  0  0  0  0  0  0  0
   71.6683   83.3323   89.0146 C   0  0  0  0  0  0  0  0  0  0  0  0
   71.1098   84.0611   90.0654 C   0  0  0  0  0  0  0  0  0  0  0  0
   70.7026   83.4167   91.2369 C   0  0  0  0  0  0  0  0  0  0  0  0
   70.9072   82.0307   91.3651 C   0  0  0  0  0  0  0  0  0  0  0  0
   70.0908   84.1845   92.2409 O   0  0  0  0  0  0  0  0  0  0  0  0
   69.9310   83.7775   93.6014 C   0  0  0  0  0  0  0  0  0  0  0  0
   68.9441   84.6498   94.3309 C   0  0  0  0  0  0  0  0  0  0  0  0
   68.8006   86.0023   93.9817 C   0  0  0  0  0  0  0  0  0  0  0  0
   67.8336   86.7940   94.6097 C   0  0  0  0  0  0  0  0  0  0  0  0
   66.9935   86.2391   95.5849 C   0  0  0  0  0  0  0  0  0  0  0  0
   66.0311   87.0192   96.2215 O   0  0  0  0  0  0  0  0  0  0  0  0
   67.1260   84.8899   95.9280 C   0  0  0  0  0  0  0  0  0  0  0  0
   68.0935   84.0972   95.3035 C   0  0  0  0  0  0  0  0  0  0  0  0
   65.9372   87.9238   95.9962 H   0  0  0  0  0  0  0  0  0  0  0  0
   71.0100   77.0981   93.0529 C   0  0  0  0  0  0  0  0  0  0  0  0
   69.7214   77.5597   93.4699 O   0  0  0  0  0  0  0  0  0  0  0  0
   67.7306   74.8252   95.1036 C   0  0  0  0  0  0  0  0  0  0  0  0
   68.8053   75.6806   94.7943 C   0  0  0  0  0  0  0  0  0  0  0  0
   68.6489   76.7538   93.8968 C   0  0  0  0  0  0  0  0  0  0  0  0
   67.3816   77.0197   93.3763 C   0  0  0  0  0  0  0  0  0  0  0  0
   66.2849   76.2433   93.7494 C   0  0  0  0  0  0  0  0  0  0  0  0
   66.4375   75.1614   94.6234 C   0  0  0  0  0  0  0  0  0  0  0  0
   65.2819   74.4763   95.0049 O   0  0  0  0  0  0  0  0  0  0  0  0
   64.4493   74.7345   94.6614 H   0  0  0  0  0  0  0  0  0  0  0  0
   67.1947   73.0449   96.6157 O   0  0  0  0  0  0  0  0  0  0  0  0
   68.0301   73.5594   95.8266 C   0  0  0  0  0  0  0  0  0  0  0  0
   69.2151   72.8739   95.5671 O   0  0  0  0  0  0  0  0  0  0  0  0
   69.8497   73.2399   94.9829 H   0  0  0  0  0  0  0  0  0  0  0  0
 33 34  2  0  0  0
 34 35  1  0  0  0
 34 25  1  0  0  0
 25 26  2  0  0  0
 26 27  1  0  0  0
 27 24  1  0  0  0
 24 23  1  0  0  0
 23  1  1  0  0  0
  1  2  2  0  0  0
  2  3  1  0  0  0
  3  4  2  0  0  0
  4  5  1  0  0  0
  5  7  1  0  0  0
  7  8  2  0  0  0
  8  9  1  0  0  0
  9 10  2  0  0  0
 10 11  1  0  0  0
 11 13  1  0  0  0
 13 14  1  0  0  0
 14 15  1  0  0  0
 15 16  2  0  0  0
 16 17  1  0  0  0
 17 18  2  0  0  0
 18 19  1  0  0  0
 18 20  1  0  0  0
 20 21  2  0  0  0
 11 12  2  0  0  0
  5  6  2  0  0  0
 27 28  2  0  0  0
 28 29  1  0  0  0
 29 30  2  0  0  0
 30 31  1  0  0  0
 30 25  1  0  0  0
  6  1  1  0  0  0
 12  7  1  0  0  0
 21 15  1  0  0  0
 35 36  1  0  0  0
 19 22  1  0  0  0
 31 32  1  0  0  0
M  END
> <Activity>
6.5

> <minimizedAffinity>
-5.46098

> <CNNscore>
0.8547723889

> <CNNaffinity>
6.0928001404

> <CNN_VS>
5.2079572678

$$$$
HIPS6999


 35 38  0  0  0  0  0  0  0  0999 V2000
   71.4277   81.2483   90.4603 C   0  0  0  0  0  0  0  0  0  0  0  0
   71.7242   81.8773   89.2371 C   0  0  0  0  0  0  0  0  0  0  0  0
   71.5147   83.2490   89.0780 C   0  0  0  0  0  0  0  0  0  0  0  0
   71.0036   84.0083   90.1323 C   0  0  0  0  0  0  0  0  0  0  0  0
   70.6855   83.3967   91.3536 C   0  0  0  0  0  0  0  0  0  0  0  0
   70.9128   82.0208   91.5177 C   0  0  0  0  0  0  0  0  0  0  0  0
   71.3829   77.7416   91.9402 C   0  0  0  0  0  0  0  0  0  0  0  0
   72.1208   77.0422   90.9795 C   0  0  0  0  0  0  0  0  0  0  0  0
   72.6253   77.7002   89.8563 C   0  0  0  0  0  0  0  0  0  0  0  0
   72.3996   79.0673   89.6828 C   0  0  0  0  0  0  0  0  0  0  0  0
   71.6577   79.7914   90.6324 C   0  0  0  0  0  0  0  0  0  0  0  0
   71.1426   79.1170   91.7543 C   0  0  0  0  0  0  0  0  0  0  0  0
   70.9117   77.0357   93.0595 O   0  0  0  0  0  0  0  0  0  0  0  0
   69.9741   77.5345   94.0152 C   0  0  0  0  0  0  0  0  0  0  0  0
   65.4665   73.8962   94.5824 C   0  0  0  0  0  0  0  0  0  0  0  0
   66.6190   74.8477   94.4554 C   0  0  0  0  0  0  0  0  0  0  0  0
   67.8560   74.5400   95.0413 C   0  0  0  0  0  0  0  0  0  0  0  0
   68.9405   75.4104   94.8970 C   0  0  0  0  0  0  0  0  0  0  0  0
   68.8042   76.5965   94.1597 C   0  0  0  0  0  0  0  0  0  0  0  0
   67.5754   76.8870   93.5456 C   0  0  0  0  0  0  0  0  0  0  0  0
   66.4903   76.0180   93.6922 C   0  0  0  0  0  0  0  0  0  0  0  0
   70.1776   84.2204   92.5007 C   0  0  0  0  0  0  0  0  0  0  0  0
   69.6413   83.3543   93.4970 O   0  0  0  0  0  0  0  0  0  0  0  0
   69.0098   83.7894   94.6714 C   0  0  0  0  0  0  0  0  0  0  0  0
   67.9180   83.1096   95.2360 C   0  0  0  0  0  0  0  0  0  0  0  0
   67.3181   83.5904   96.4002 C   0  0  0  0  0  0  0  0  0  0  0  0
   67.7884   84.7530   97.0202 C   0  0  0  0  0  0  0  0  0  0  0  0
   67.0915   85.2198   98.1370 O   0  0  0  0  0  0  0  0  0  0  0  0
   68.9148   85.4261   96.4836 C   0  0  0  0  0  0  0  0  0  0  0  0
   69.4969   84.9406   95.2989 C   0  0  0  0  0  0  0  0  0  0  0  0
   66.3515   84.7443   98.4599 H   0  0  0  0  0  0  0  0  0  0  0  0
   69.5277   86.6059   97.1331 C   0  0  0  0  0  0  0  0  0  0  0  0
   70.7651   86.6433   97.3681 O   0  0  0  0  0  0  0  0  0  0  0  0
   68.7426   87.7151   97.4357 O   0  0  0  0  0  0  0  0  0  0  0  0
   67.8215   87.6978   97.2649 H   0  0  0  0  0  0  0  0  0  0  0  0
 15 16  1  0  0  0
 16 17  2  0  0  0
 17 18  1  0  0  0
 18 19  2  0  0  0
 19 14  1  0  0  0
 14 13  1  0  0  0
 13  7  1  0  0  0
  7  8  2  0  0  0
  8  9  1  0  0  0
  9 10  2  0  0  0
 10 11  1  0  0  0
 11  1  1  0  0  0
  1  2  2  0  0  0
  2  3  1  0  0  0
  3  4  2  0  0  0
  4  5  1  0  0  0
  5 22  1  0  0  0
 22 23  1  0  0  0
 23 24  1  0  0  0
 24 25  2  0  0  0
 25 26  1  0  0  0
 26 27  2  0  0  0
 27 28  1  0  0  0
 27 29  1  0  0  0
 29 32  1  0  0  0
 32 33  2  0  0  0
 32 34  1  0  0  0
 29 30  2  0  0  0
  5  6  2  0  0  0
 11 12  2  0  0  0
 19 20  1  0  0  0
 20 21  2  0  0  0
 21 16  1  0  0  0
 12  7  1  0  0  0
  6  1  1  0  0  0
 30 24  1  0  0  0
 28 31  1  0  0  0
 34 35  1  0  0  0
M  END
> <Activity>
7.6

> <minimizedAffinity>
-3.71902

> <CNNscore>
0.8647719026

> <CNNaffinity>
6.2703437805

> <CNN_VS>
5.4224171638

$$$$
HIPS6999


 35 38  0  0  0  0  0  0  0  0999 V2000
   71.6886   79.8486   90.6475 C   0  0  0  0  0  0  0  0  0  0  0  0
   72.3860   79.1220   89.6650 C   0  0  0  0  0  0  0  0  0  0  0  0
   72.5870   77.7476   89.8111 C   0  0  0  0  0  0  0  0  0  0  0  0
   72.1006   77.0826   90.9382 C   0  0  0  0  0  0  0  0  0  0  0  0
   71.4181   77.7922   91.9370 C   0  0  0  0  0  0  0  0  0  0  0  0
   71.2018   79.1708   91.7805 C   0  0  0  0  0  0  0  0  0  0  0  0
   70.6826   83.4441   91.3888 C   0  0  0  0  0  0  0  0  0  0  0  0
   71.0158   84.0640   90.1800 C   0  0  0  0  0  0  0  0  0  0  0  0
   71.5680   83.3240   89.1328 C   0  0  0  0  0  0  0  0  0  0  0  0
   71.7907   81.9536   89.2822 C   0  0  0  0  0  0  0  0  0  0  0  0
   71.4678   81.3084   90.4888 C   0  0  0  0  0  0  0  0  0  0  0  0
   70.9237   82.0649   91.5426 C   0  0  0  0  0  0  0  0  0  0  0  0
   70.1149   84.2309   92.4045 O   0  0  0  0  0  0  0  0  0  0  0  0
   69.9073   83.8117   93.7545 C   0  0  0  0  0  0  0  0  0  0  0  0
   65.1948   86.3829   96.0037 C   0  0  0  0  0  0  0  0  0  0  0  0
   66.3946   85.7012   95.4160 C   0  0  0  0  0  0  0  0  0  0  0  0
   66.8811   86.0889   94.1586 C   0  0  0  0  0  0  0  0  0  0  0  0
   68.0183   85.4768   93.6232 C   0  0  0  0  0  0  0  0  0  0  0  0
   68.6875   84.4736   94.3407 C   0  0  0  0  0  0  0  0  0  0  0  0
   68.2194   84.1099   95.6136 C   0  0  0  0  0  0  0  0  0  0  0  0
   67.0808   84.7202   96.1476 C   0  0  0  0  0  0  0  0  0  0  0  0
   70.8572   77.0699   93.1270 C   0  0  0  0  0  0  0  0  0  0  0  0
   69.5376   77.5432   93.3820 O   0  0  0  0  0  0  0  0  0  0  0  0
   68.4574   76.7263   93.7466 C   0  0  0  0  0  0  0  0  0  0  0  0
   67.1448   76.9747   93.3127 C   0  0  0  0  0  0  0  0  0  0  0  0
   66.1031   76.1375   93.7131 C   0  0  0  0  0  0  0  0  0  0  0  0
   66.3456   75.0441   94.5517 C   0  0  0  0  0  0  0  0  0  0  0  0
   65.2454   74.2955   94.9758 O   0  0  0  0  0  0  0  0  0  0  0  0
   67.6715   74.7585   94.9641 C   0  0  0  0  0  0  0  0  0  0  0  0
   68.7083   75.6225   94.5682 C   0  0  0  0  0  0  0  0  0  0  0  0
   64.3849   74.5181   94.6793 H   0  0  0  0  0  0  0  0  0  0  0  0
   68.0207   73.5694   95.7724 C   0  0  0  0  0  0  0  0  0  0  0  0
   67.2048   73.0935   96.6065 O   0  0  0  0  0  0  0  0  0  0  0  0
   69.2403   72.9290   95.5704 O   0  0  0  0  0  0  0  0  0  0  0  0
   69.8542   73.2745   94.9526 H   0  0  0  0  0  0  0  0  0  0  0  0
 15 16  1  0  0  0
 16 17  2  0  0  0
 17 18  1  0  0  0
 18 19  2  0  0  0
 19 14  1  0  0  0
 14 13  1  0  0  0
 13  7  1  0  0  0
  7  8  2  0  0  0
  8  9  1  0  0  0
  9 10  2  0  0  0
 10 11  1  0  0  0
 11  1  1  0  0  0
  1  2  2  0  0  0
  2  3  1  0  0  0
  3  4  2  0  0  0
  4  5  1  0  0  0
  5 22  1  0  0  0
 22 23  1  0  0  0
 23 24  1  0  0  0
 24 25  2  0  0  0
 25 26  1  0  0  0
 26 27  2  0  0  0
 27 28  1  0  0  0
 27 29  1  0  0  0
 29 32  1  0  0  0
 32 33  2  0  0  0
 32 34  1  0  0  0
 29 30  2  0  0  0
  5  6  2  0  0  0
 11 12  2  0  0  0
 19 20  1  0  0  0
 20 21  2  0  0  0
 21 16  1  0  0  0
 12  7  1  0  0  0
  6  1  1  0  0  0
 30 24  1  0  0  0
 28 31  1  0  0  0
 34 35  1  0  0  0
M  END
> <Activity>
7.6

> <minimizedAffinity>
-5.27059

> <CNNscore>
0.8365182281

> <CNNaffinity>
6.1787061691

> <CNN_VS>
5.1686005592

$$$$
HIPS6999


 35 38  0  0  0  0  0  0  0  0999 V2000
   71.0662   81.5396   90.2702 C   0  0  0  0  0  0  0  0  0  0  0  0
   71.3424   82.5490   89.3296 C   0  0  0  0  0  0  0  0  0  0  0  0
   71.2560   83.8954   89.6910 C   0  0  0  0  0  0  0  0  0  0  0  0
   70.8894   84.2518   90.9901 C   0  0  0  0  0  0  0  0  0  0  0  0
   70.5933   83.2607   91.9372 C   0  0  0  0  0  0  0  0  0  0  0  0
   70.6973   81.9074   91.5774 C   0  0  0  0  0  0  0  0  0  0  0  0
   70.4753   78.2398   88.4671 C   0  0  0  0  0  0  0  0  0  0  0  0
   71.3245   77.3924   89.1863 C   0  0  0  0  0  0  0  0  0  0  0  0
   72.0883   77.8869   90.2452 C   0  0  0  0  0  0  0  0  0  0  0  0
   72.0089   79.2355   90.5987 C   0  0  0  0  0  0  0  0  0  0  0  0
   71.1657   80.1080   89.8887 C   0  0  0  0  0  0  0  0  0  0  0  0
   70.4098   79.6031   88.8152 C   0  0  0  0  0  0  0  0  0  0  0  0
   69.7167   77.6885   87.4213 O   0  0  0  0  0  0  0  0  0  0  0  0
   68.9169   78.4328   86.5006 C   0  0  0  0  0  0  0  0  0  0  0  0
   66.2052   74.9011   82.7521 C   0  0  0  0  0  0  0  0  0  0  0  0
   66.9257   75.8076   83.7054 C   0  0  0  0  0  0  0  0  0  0  0  0
   66.8621   77.1992   83.5405 C   0  0  0  0  0  0  0  0  0  0  0  0
   67.5064   78.0469   84.4464 C   0  0  0  0  0  0  0  0  0  0  0  0
   68.2174   77.5145   85.5328 C   0  0  0  0  0  0  0  0  0  0  0  0
   68.2522   76.1227   85.7160 C   0  0  0  0  0  0  0  0  0  0  0  0
   67.6101   75.2752   84.8085 C   0  0  0  0  0  0  0  0  0  0  0  0
   70.2420   83.6429   93.3453 C   0  0  0  0  0  0  0  0  0  0  0  0
   69.4571   84.8320   93.3251 O   0  0  0  0  0  0  0  0  0  0  0  0
   68.3624   85.0755   94.1674 C   0  0  0  0  0  0  0  0  0  0  0  0
   68.3717   84.7398   95.5313 C   0  0  0  0  0  0  0  0  0  0  0  0
   67.2519   84.9933   96.3239 C   0  0  0  0  0  0  0  0  0  0  0  0
   66.1056   85.5798   95.7769 C   0  0  0  0  0  0  0  0  0  0  0  0
   64.9948   85.7325   96.6096 O   0  0  0  0  0  0  0  0  0  0  0  0
   66.0975   85.9605   94.4113 C   0  0  0  0  0  0  0  0  0  0  0  0
   67.2264   85.6810   93.6203 C   0  0  0  0  0  0  0  0  0  0  0  0
   65.0422   85.4677   97.5071 H   0  0  0  0  0  0  0  0  0  0  0  0
   64.9603   86.6691   93.7837 C   0  0  0  0  0  0  0  0  0  0  0  0
   64.4913   86.2857   92.6788 O   0  0  0  0  0  0  0  0  0  0  0  0
   64.3589   87.7358   94.4461 O   0  0  0  0  0  0  0  0  0  0  0  0
   64.6996   88.0288   95.2683 H   0  0  0  0  0  0  0  0  0  0  0  0
 15 16  1  0  0  0
 16 17  2  0  0  0
 17 18  1  0  0  0
 18 19  2  0  0  0
 19 14  1  0  0  0
 14 13  1  0  0  0
 13  7  1  0  0  0
  7  8  2  0  0  0
  8  9  1  0  0  0
  9 10  2  0  0  0
 10 11  1  0  0  0
 11  1  1  0  0  0
  1  2  2  0  0  0
  2  3  1  0  0  0
  3  4  2  0  0  0
  4  5  1  0  0  0
  5 22  1  0  0  0
 22 23  1  0  0  0
 23 24  1  0  0  0
 24 25  2  0  0  0
 25 26  1  0  0  0
 26 27  2  0  0  0
 27 28  1  0  0  0
 27 29  1  0  0  0
 29 32  1  0  0  0
 32 33  2  0  0  0
 32 34  1  0  0  0
 29 30  2  0  0  0
  5  6  2  0  0  0
 11 12  2  0  0  0
 19 20  1  0  0  0
 20 21  2  0  0  0
 21 16  1  0  0  0
 12  7  1  0  0  0
  6  1  1  0  0  0
 30 24  1  0  0  0
 28 31  1  0  0  0
 34 35  1  0  0  0
M  END
> <Activity>
7.6

> <minimizedAffinity>
3.17555

> <CNNscore>
0.8360768557

> <CNNaffinity>
5.8781290054

> <CNN_VS>
4.9145674706

$$$$
HIPS6981


 34 37  0  0  0  0  0  0  0  0999 V2000
   70.4502   83.6582   91.1611 C   0  0  0  0  0  0  0  0  0  0  0  0
   70.2858   84.9750   90.6992 C   0  0  0  0  0  0  0  0  0  0  0  0
   69.6429   85.9240   91.4971 C   0  0  0  0  0  0  0  0  0  0  0  0
   69.1555   85.5662   92.7572 C   0  0  0  0  0  0  0  0  0  0  0  0
   69.3367   84.2610   93.2418 C   0  0  0  0  0  0  0  0  0  0  0  0
   70.0005   83.3146   92.4473 C   0  0  0  0  0  0  0  0  0  0  0  0
   68.7716   83.8691   94.5456 C   0  0  0  0  0  0  0  0  0  0  0  0
   68.9051   84.7057   95.6646 C   0  0  0  0  0  0  0  0  0  0  0  0
   68.3428   84.3323   96.8897 C   0  0  0  0  0  0  0  0  0  0  0  0
   67.6738   83.1088   97.0132 C   0  0  0  0  0  0  0  0  0  0  0  0
   67.5830   82.2448   95.9188 C   0  0  0  0  0  0  0  0  0  0  0  0
   68.1045   82.6428   94.6767 C   0  0  0  0  0  0  0  0  0  0  0  0
   66.9587   81.0017   96.0775 O   0  0  0  0  0  0  0  0  0  0  0  0
   66.7692   80.0738   95.0413 C   0  0  0  0  0  0  0  0  0  0  0  0
   67.8537   79.4356   94.4078 C   0  0  0  0  0  0  0  0  0  0  0  0
   67.6241   78.4861   93.4073 C   0  0  0  0  0  0  0  0  0  0  0  0
   66.3166   78.1602   93.0350 C   0  0  0  0  0  0  0  0  0  0  0  0
   66.0987   77.2241   92.0772 F   0  0  0  0  0  0  0  0  0  0  0  0
   65.2357   78.7889   93.6595 C   0  0  0  0  0  0  0  0  0  0  0  0
   65.4629   79.7413   94.6590 C   0  0  0  0  0  0  0  0  0  0  0  0
   71.0069   82.5906   90.2561 C   0  0  0  0  0  0  0  0  0  0  0  0
   71.9703   81.8033   90.9606 O   0  0  0  0  0  0  0  0  0  0  0  0
   72.2476   78.2347   91.9388 C   0  0  0  0  0  0  0  0  0  0  0  0
   72.1799   79.6385   91.9981 C   0  0  0  0  0  0  0  0  0  0  0  0
   72.1104   80.4099   90.8336 C   0  0  0  0  0  0  0  0  0  0  0  0
   72.1683   79.7736   89.5842 C   0  0  0  0  0  0  0  0  0  0  0  0
   72.2323   78.3837   89.5084 C   0  0  0  0  0  0  0  0  0  0  0  0
   72.2399   77.6017   90.6695 C   0  0  0  0  0  0  0  0  0  0  0  0
   72.2066   76.2148   90.5159 O   0  0  0  0  0  0  0  0  0  0  0  0
   72.2027   75.8384   89.6578 H   0  0  0  0  0  0  0  0  0  0  0  0
   73.4056   77.4744   93.8819 O   0  0  0  0  0  0  0  0  0  0  0  0
   72.3392   77.4836   93.2116 C   0  0  0  0  0  0  0  0  0  0  0  0
   71.2186   76.8164   93.7029 O   0  0  0  0  0  0  0  0  0  0  0  0
   70.4204   76.8171   93.2121 H   0  0  0  0  0  0  0  0  0  0  0  0
 31 32  2  0  0  0
 32 33  1  0  0  0
 32 23  1  0  0  0
 23 24  2  0  0  0
 24 25  1  0  0  0
 25 22  1  0  0  0
 22 21  1  0  0  0
 21  1  1  0  0  0
  1  2  2  0  0  0
  2  3  1  0  0  0
  3  4  2  0  0  0
  4  5  1  0  0  0
  5  7  1  0  0  0
  7  8  2  0  0  0
  8  9  1  0  0  0
  9 10  2  0  0  0
 10 11  1  0  0  0
 11 13  1  0  0  0
 13 14  1  0  0  0
 14 15  2  0  0  0
 15 16  1  0  0  0
 16 17  2  0  0  0
 17 18  1  0  0  0
 17 19  1  0  0  0
 19 20  2  0  0  0
 11 12  2  0  0  0
  5  6  2  0  0  0
 25 26  2  0  0  0
 26 27  1  0  0  0
 27 28  2  0  0  0
 28 29  1  0  0  0
 28 23  1  0  0  0
  6  1  1  0  0  0
 12  7  1  0  0  0
 20 14  1  0  0  0
 33 34  1  0  0  0
 29 30  1  0  0  0
M  END
> <Activity>
8.4

> <minimizedAffinity>
4.81091

> <CNNscore>
0.8804458380

> <CNNaffinity>
6.5532026291

> <CNN_VS>
5.7697401047

$$$$
HIPS6981


 34 37  0  0  0  0  0  0  0  0999 V2000
   71.6860   77.5909   92.2210 C   0  0  0  0  0  0  0  0  0  0  0  0
   72.1421   76.9732   91.0442 C   0  0  0  0  0  0  0  0  0  0  0  0
   72.3911   77.7368   89.9015 C   0  0  0  0  0  0  0  0  0  0  0  0
   72.1826   79.1185   89.9223 C   0  0  0  0  0  0  0  0  0  0  0  0
   71.7527   79.7519   91.0993 C   0  0  0  0  0  0  0  0  0  0  0  0
   71.5225   78.9862   92.2518 C   0  0  0  0  0  0  0  0  0  0  0  0
   71.4775   81.2000   91.1040 C   0  0  0  0  0  0  0  0  0  0  0  0
   70.5961   81.7585   92.0426 C   0  0  0  0  0  0  0  0  0  0  0  0
   70.3630   83.1376   92.0509 C   0  0  0  0  0  0  0  0  0  0  0  0
   70.9816   83.9616   91.1031 C   0  0  0  0  0  0  0  0  0  0  0  0
   71.8181   83.4076   90.1307 C   0  0  0  0  0  0  0  0  0  0  0  0
   72.0904   82.0298   90.1543 C   0  0  0  0  0  0  0  0  0  0  0  0
   72.3829   84.2410   89.1577 O   0  0  0  0  0  0  0  0  0  0  0  0
   71.7609   84.5744   87.9441 C   0  0  0  0  0  0  0  0  0  0  0  0
   71.2716   85.8711   87.6916 C   0  0  0  0  0  0  0  0  0  0  0  0
   70.6948   86.1768   86.4551 C   0  0  0  0  0  0  0  0  0  0  0  0
   70.6068   85.1986   85.4601 C   0  0  0  0  0  0  0  0  0  0  0  0
   70.0638   85.5055   84.2551 F   0  0  0  0  0  0  0  0  0  0  0  0
   71.0907   83.9100   85.7033 C   0  0  0  0  0  0  0  0  0  0  0  0
   71.6657   83.6010   86.9409 C   0  0  0  0  0  0  0  0  0  0  0  0
   71.2730   76.7655   93.4113 C   0  0  0  0  0  0  0  0  0  0  0  0
   69.8659   76.8915   93.6315 O   0  0  0  0  0  0  0  0  0  0  0  0
   68.9320   73.7378   95.3490 C   0  0  0  0  0  0  0  0  0  0  0  0
   69.6593   74.7163   94.6474 C   0  0  0  0  0  0  0  0  0  0  0  0
   69.0663   75.9238   94.2652 C   0  0  0  0  0  0  0  0  0  0  0  0
   67.7059   76.1367   94.5361 C   0  0  0  0  0  0  0  0  0  0  0  0
   66.9724   75.1786   95.2330 C   0  0  0  0  0  0  0  0  0  0  0  0
   67.5750   73.9941   95.6728 C   0  0  0  0  0  0  0  0  0  0  0  0
   66.8053   73.1256   96.4483 O   0  0  0  0  0  0  0  0  0  0  0  0
   65.9118   73.3342   96.6383 H   0  0  0  0  0  0  0  0  0  0  0  0
   70.4286   71.9327   94.9057 O   0  0  0  0  0  0  0  0  0  0  0  0
   69.6189   72.4749   95.7038 C   0  0  0  0  0  0  0  0  0  0  0  0
   69.4067   71.9005   96.9558 O   0  0  0  0  0  0  0  0  0  0  0  0
   68.8065   72.2959   97.5569 H   0  0  0  0  0  0  0  0  0  0  0  0
 31 32  2  0  0  0
 32 33  1  0  0  0
 32 23  1  0  0  0
 23 24  2  0  0  0
 24 25  1  0  0  0
 25 22  1  0  0  0
 22 21  1  0  0  0
 21  1  1  0  0  0
  1  2  2  0  0  0
  2  3  1  0  0  0
  3  4  2  0  0  0
  4  5  1  0  0  0
  5  7  1  0  0  0
  7  8  2  0  0  0
  8  9  1  0  0  0
  9 10  2  0  0  0
 10 11  1  0  0  0
 11 13  1  0  0  0
 13 14  1  0  0  0
 14 15  2  0  0  0
 15 16  1  0  0  0
 16 17  2  0  0  0
 17 18  1  0  0  0
 17 19  1  0  0  0
 19 20  2  0  0  0
 11 12  2  0  0  0
  5  6  2  0  0  0
 25 26  2  0  0  0
 26 27  1  0  0  0
 27 28  2  0  0  0
 28 29  1  0  0  0
 28 23  1  0  0  0
  6  1  1  0  0  0
 12  7  1  0  0  0
 20 14  1  0  0  0
 33 34  1  0  0  0
 29 30  1  0  0  0
M  END
> <Activity>
8.4

> <minimizedAffinity>
0.85890

> <CNNscore>
0.8650467396

> <CNNaffinity>
5.9456033707

> <CNN_VS>
5.1432247162

$$$$
HIPS6981


 34 37  0  0  0  0  0  0  0  0999 V2000
   71.7919   77.5452   91.8251 C   0  0  0  0  0  0  0  0  0  0  0  0
   72.3485   76.9534   90.6786 C   0  0  0  0  0  0  0  0  0  0  0  0
   72.6237   77.7299   89.5508 C   0  0  0  0  0  0  0  0  0  0  0  0
   72.3416   79.0987   89.5561 C   0  0  0  0  0  0  0  0  0  0  0  0
   71.8103   79.7076   90.7042 C   0  0  0  0  0  0  0  0  0  0  0  0
   71.5534   78.9298   91.8430 C   0  0  0  0  0  0  0  0  0  0  0  0
   71.4592   81.1391   90.6893 C   0  0  0  0  0  0  0  0  0  0  0  0
   70.8666   81.7429   91.8091 C   0  0  0  0  0  0  0  0  0  0  0  0
   70.5610   83.1077   91.7898 C   0  0  0  0  0  0  0  0  0  0  0  0
   70.8142   83.8693   90.6428 C   0  0  0  0  0  0  0  0  0  0  0  0
   71.3536   83.2654   89.5041 C   0  0  0  0  0  0  0  0  0  0  0  0
   71.7061   81.9061   89.5418 C   0  0  0  0  0  0  0  0  0  0  0  0
   71.5474   84.0321   88.3488 O   0  0  0  0  0  0  0  0  0  0  0  0
   72.1961   85.2768   88.3252 C   0  0  0  0  0  0  0  0  0  0  0  0
   73.2285   85.5940   89.2298 C   0  0  0  0  0  0  0  0  0  0  0  0
   73.8793   86.8289   89.1493 C   0  0  0  0  0  0  0  0  0  0  0  0
   73.5134   87.7530   88.1661 C   0  0  0  0  0  0  0  0  0  0  0  0
   74.1611   88.9421   88.0798 F   0  0  0  0  0  0  0  0  0  0  0  0
   72.4904   87.4449   87.2648 C   0  0  0  0  0  0  0  0  0  0  0  0
   71.8357   86.2109   87.3451 C   0  0  0  0  0  0  0  0  0  0  0  0
   71.3538   76.6982   92.9910 C   0  0  0  0  0  0  0  0  0  0  0  0
   70.2697   77.3299   93.6766 O   0  0  0  0  0  0  0  0  0  0  0  0
   67.7525   74.9368   94.9823 C   0  0  0  0  0  0  0  0  0  0  0  0
   68.9768   75.5440   94.6489 C   0  0  0  0  0  0  0  0  0  0  0  0
   69.0187   76.7335   93.9145 C   0  0  0  0  0  0  0  0  0  0  0  0
   67.8197   77.2982   93.4533 C   0  0  0  0  0  0  0  0  0  0  0  0
   66.5985   76.7107   93.7776 C   0  0  0  0  0  0  0  0  0  0  0  0
   66.5457   75.5540   94.5644 C   0  0  0  0  0  0  0  0  0  0  0  0
   65.2859   75.0773   94.9305 O   0  0  0  0  0  0  0  0  0  0  0  0
   64.5139   75.5163   94.6317 H   0  0  0  0  0  0  0  0  0  0  0  0
   66.7242   73.1506   96.1852 O   0  0  0  0  0  0  0  0  0  0  0  0
   67.7849   73.6678   95.7446 C   0  0  0  0  0  0  0  0  0  0  0  0
   68.9972   73.0081   95.9379 O   0  0  0  0  0  0  0  0  0  0  0  0
   69.7920   73.3842   95.6141 H   0  0  0  0  0  0  0  0  0  0  0  0
 31 32  2  0  0  0
 32 33  1  0  0  0
 32 23  1  0  0  0
 23 24  2  0  0  0
 24 25  1  0  0  0
 25 22  1  0  0  0
 22 21  1  0  0  0
 21  1  1  0  0  0
  1  2  2  0  0  0
  2  3  1  0  0  0
  3  4  2  0  0  0
  4  5  1  0  0  0
  5  7  1  0  0  0
  7  8  2  0  0  0
  8  9  1  0  0  0
  9 10  2  0  0  0
 10 11  1  0  0  0
 11 13  1  0  0  0
 13 14  1  0  0  0
 14 15  2  0  0  0
 15 16  1  0  0  0
 16 17  2  0  0  0
 17 18  1  0  0  0
 17 19  1  0  0  0
 19 20  2  0  0  0
 11 12  2  0  0  0
  5  6  2  0  0  0
 25 26  2  0  0  0
 26 27  1  0  0  0
 27 28  2  0  0  0
 28 29  1  0  0  0
 28 23  1  0  0  0
  6  1  1  0  0  0
 12  7  1  0  0  0
 20 14  1  0  0  0
 33 34  1  0  0  0
 29 30  1  0  0  0
M  END
> <Activity>
8.4

> <minimizedAffinity>
-3.73832

> <CNNscore>
0.8646101952

> <CNNaffinity>
6.1769895554

> <CNN_VS>
5.3406882286

$$$$
HIPS6984


 33 36  0  0  0  0  0  0  0  0999 V2000
   70.5627   83.6130   91.4336 C   0  0  0  0  0  0  0  0  0  0  0  0
   70.4060   84.9506   91.0474 C   0  0  0  0  0  0  0  0  0  0  0  0
   69.6644   85.7784   91.8545 C   0  0  0  0  0  0  0  0  0  0  0  0
   69.0747   85.3416   93.0207 C   0  0  0  0  0  0  0  0  0  0  0  0
   69.2525   84.0155   93.3669 C   0  0  0  0  0  0  0  0  0  0  0  0
   69.9920   83.1498   92.5808 C   0  0  0  0  0  0  0  0  0  0  0  0
   68.6265   83.5545   94.6049 C   0  0  0  0  0  0  0  0  0  0  0  0
   68.6889   84.3649   95.7153 C   0  0  0  0  0  0  0  0  0  0  0  0
   68.1054   83.9720   96.9258 C   0  0  0  0  0  0  0  0  0  0  0  0
   67.4546   82.7504   97.0121 C   0  0  0  0  0  0  0  0  0  0  0  0
   67.3807   81.9261   95.9137 C   0  0  0  0  0  0  0  0  0  0  0  0
   67.9781   82.3542   94.7172 C   0  0  0  0  0  0  0  0  0  0  0  0
   66.7625   80.7124   95.9019 O   0  0  0  0  0  0  0  0  0  0  0  0
   66.4085   79.9045   94.8178 C   0  0  0  0  0  0  0  0  0  0  0  0
   65.1511   79.1598   95.1682 C   0  0  0  0  0  0  0  0  0  0  0  0
   65.1203   77.7337   94.7370 C   0  0  0  0  0  0  0  0  0  0  0  0
   65.7328   77.6736   93.3498 C   0  0  0  0  0  0  0  0  0  0  0  0
   67.2101   77.9165   93.4964 C   0  0  0  0  0  0  0  0  0  0  0  0
   67.5480   79.0992   94.3460 C   0  0  0  0  0  0  0  0  0  0  0  0
   71.3272   82.7159   90.5571 C   0  0  0  0  0  0  0  0  0  0  0  0
   70.8687   81.4735   90.3127 O   0  0  0  0  0  0  0  0  0  0  0  0
   71.9876   78.2316   91.7253 C   0  0  0  0  0  0  0  0  0  0  0  0
   71.5415   79.5407   91.6467 C   0  0  0  0  0  0  0  0  0  0  0  0
   71.3006   80.2046   90.4618 C   0  0  0  0  0  0  0  0  0  0  0  0
   71.5460   79.4377   89.2928 C   0  0  0  0  0  0  0  0  0  0  0  0
   71.9859   78.1465   89.3797 C   0  0  0  0  0  0  0  0  0  0  0  0
   72.2166   77.5142   90.5790 C   0  0  0  0  0  0  0  0  0  0  0  0
   72.6631   76.2014   90.5923 O   0  0  0  0  0  0  0  0  0  0  0  0
   72.8070   75.7473   89.7855 H   0  0  0  0  0  0  0  0  0  0  0  0
   71.3004   76.8826   93.4909 O   0  0  0  0  0  0  0  0  0  0  0  0
   72.2242   77.5856   93.0083 C   0  0  0  0  0  0  0  0  0  0  0  0
   73.3942   77.7036   93.7128 O   0  0  0  0  0  0  0  0  0  0  0  0
   74.0960   78.2226   93.3719 H   0  0  0  0  0  0  0  0  0  0  0  0
 30 31  2  0  0  0
 31 32  1  0  0  0
 31 22  1  0  0  0
 22 23  2  0  0  0
 23 24  1  0  0  0
 24 21  1  0  0  0
 21 20  1  0  0  0
 20  1  1  0  0  0
  1  2  2  0  0  0
  2  3  1  0  0  0
  3  4  2  0  0  0
  4  5  1  0  0  0
  5  7  1  0  0  0
  7  8  2  0  0  0
  8  9  1  0  0  0
  9 10  2  0  0  0
 10 11  1  0  0  0
 11 13  1  0  0  0
 13 14  1  0  0  0
 14 15  1  0  0  0
 15 16  1  0  0  0
 16 17  1  0  0  0
 17 18  1  0  0  0
 18 19  1  0  0  0
 11 12  2  0  0  0
  5  6  2  0  0  0
 24 25  2  0  0  0
 25 26  1  0  0  0
 26 27  2  0  0  0
 27 28  1  0  0  0
 27 22  1  0  0  0
  6  1  1  0  0  0
 12  7  1  0  0  0
 19 14  1  0  0  0
 32 33  1  0  0  0
 28 29  1  0  0  0
M  END
> <Activity>
10.3

> <minimizedAffinity>
1.78710

> <CNNscore>
0.9518424273

> <CNNaffinity>
6.6721773148

> <CNN_VS>
6.3508615494

$$$$
HIPS6984


 33 36  0  0  0  0  0  0  0  0999 V2000
   71.0557   80.0094   90.7528 C   0  0  0  0  0  0  0  0  0  0  0  0
   72.0600   79.3731   90.0116 C   0  0  0  0  0  0  0  0  0  0  0  0
   72.3606   78.0666   90.3103 C   0  0  0  0  0  0  0  0  0  0  0  0
   71.7133   77.3667   91.3052 C   0  0  0  0  0  0  0  0  0  0  0  0
   70.7290   78.0295   92.0136 C   0  0  0  0  0  0  0  0  0  0  0  0
   70.3971   79.3453   91.7435 C   0  0  0  0  0  0  0  0  0  0  0  0
   70.0432   77.2849   93.0682 C   0  0  0  0  0  0  0  0  0  0  0  0
   70.7712   76.8670   94.1587 C   0  0  0  0  0  0  0  0  0  0  0  0
   70.1636   76.1513   95.1973 C   0  0  0  0  0  0  0  0  0  0  0  0
   68.8100   75.8571   95.1310 C   0  0  0  0  0  0  0  0  0  0  0  0
   68.0646   76.2662   94.0501 C   0  0  0  0  0  0  0  0  0  0  0  0
   68.7090   76.9815   93.0280 C   0  0  0  0  0  0  0  0  0  0  0  0
   66.7324   76.0264   93.8982 O   0  0  0  0  0  0  0  0  0  0  0  0
   65.6579   76.9195   93.9326 C   0  0  0  0  0  0  0  0  0  0  0  0
   65.8011   77.8823   92.7876 C   0  0  0  0  0  0  0  0  0  0  0  0
   65.4720   79.2998   93.1090 C   0  0  0  0  0  0  0  0  0  0  0  0
   64.2423   79.2818   93.9983 C   0  0  0  0  0  0  0  0  0  0  0  0
   64.6636   78.7537   95.3424 C   0  0  0  0  0  0  0  0  0  0  0  0
   65.4796   77.5031   95.2731 C   0  0  0  0  0  0  0  0  0  0  0  0
   70.7536   81.4166   90.4593 C   0  0  0  0  0  0  0  0  0  0  0  0
   71.0543   82.3655   91.3662 O   0  0  0  0  0  0  0  0  0  0  0  0
   69.4356   85.6266   92.0747 C   0  0  0  0  0  0  0  0  0  0  0  0
   70.0714   84.6018   91.3932 C   0  0  0  0  0  0  0  0  0  0  0  0
   70.4344   83.4013   91.9676 C   0  0  0  0  0  0  0  0  0  0  0  0
   70.1046   83.2791   93.3428 C   0  0  0  0  0  0  0  0  0  0  0  0
   69.4770   84.2953   94.0073 C   0  0  0  0  0  0  0  0  0  0  0  0
   69.1290   85.4810   93.4035 C   0  0  0  0  0  0  0  0  0  0  0  0
   68.4936   86.4697   94.1395 O   0  0  0  0  0  0  0  0  0  0  0  0
   68.3024   86.3292   95.0460 H   0  0  0  0  0  0  0  0  0  0  0  0
   68.9341   86.8525   90.1628 O   0  0  0  0  0  0  0  0  0  0  0  0
   69.0781   86.8724   91.4116 C   0  0  0  0  0  0  0  0  0  0  0  0
   68.8920   88.0580   92.0739 O   0  0  0  0  0  0  0  0  0  0  0  0
   68.9942   88.0959   93.0045 H   0  0  0  0  0  0  0  0  0  0  0  0
 30 31  2  0  0  0
 31 32  1  0  0  0
 31 22  1  0  0  0
 22 23  2  0  0  0
 23 24  1  0  0  0
 24 21  1  0  0  0
 21 20  1  0  0  0
 20  1  1  0  0  0
  1  2  2  0  0  0
  2  3  1  0  0  0
  3  4  2  0  0  0
  4  5  1  0  0  0
  5  7  1  0  0  0
  7  8  2  0  0  0
  8  9  1  0  0  0
  9 10  2  0  0  0
 10 11  1  0  0  0
 11 13  1  0  0  0
 13 14  1  0  0  0
 14 15  1  0  0  0
 15 16  1  0  0  0
 16 17  1  0  0  0
 17 18  1  0  0  0
 18 19  1  0  0  0
 11 12  2  0  0  0
  5  6  2  0  0  0
 24 25  2  0  0  0
 25 26  1  0  0  0
 26 27  2  0  0  0
 27 28  1  0  0  0
 27 22  1  0  0  0
  6  1  1  0  0  0
 12  7  1  0  0  0
 19 14  1  0  0  0
 32 33  1  0  0  0
 28 29  1  0  0  0
M  END
> <Activity>
10.3

> <minimizedAffinity>
2.61378

> <CNNscore>
0.9106230140

> <CNNaffinity>
6.1660785675

> <CNN_VS>
5.6149730682

$$$$
HIPS6984


 33 36  0  0  0  0  0  0  0  0999 V2000
   67.6804   75.4553   94.5935 C   0  0  0  0  0  0  0  0  0  0  0  0
   66.5171   76.2327   94.5238 C   0  0  0  0  0  0  0  0  0  0  0  0
   66.5758   77.4340   93.8604 C   0  0  0  0  0  0  0  0  0  0  0  0
   67.7300   77.8959   93.2662 C   0  0  0  0  0  0  0  0  0  0  0  0
   68.8562   77.1000   93.3570 C   0  0  0  0  0  0  0  0  0  0  0  0
   68.8380   75.8839   94.0167 C   0  0  0  0  0  0  0  0  0  0  0  0
   70.0793   77.5917   92.7254 C   0  0  0  0  0  0  0  0  0  0  0  0
   71.2867   77.0787   93.1411 C   0  0  0  0  0  0  0  0  0  0  0  0
   72.4880   77.5140   92.5690 C   0  0  0  0  0  0  0  0  0  0  0  0
   72.4664   78.4753   91.5696 C   0  0  0  0  0  0  0  0  0  0  0  0
   71.2703   79.0003   91.1396 C   0  0  0  0  0  0  0  0  0  0  0  0
   70.0863   78.5390   91.7372 C   0  0  0  0  0  0  0  0  0  0  0  0
   71.1494   79.9441   90.1649 O   0  0  0  0  0  0  0  0  0  0  0  0
   70.7485   81.2792   90.2639 C   0  0  0  0  0  0  0  0  0  0  0  0
   71.4176   82.0608   89.1685 C   0  0  0  0  0  0  0  0  0  0  0  0
   71.9233   83.4042   89.5689 C   0  0  0  0  0  0  0  0  0  0  0  0
   70.8761   84.0227   90.4766 C   0  0  0  0  0  0  0  0  0  0  0  0
   70.9147   83.2798   91.7841 C   0  0  0  0  0  0  0  0  0  0  0  0
   70.9031   81.7923   91.6359 C   0  0  0  0  0  0  0  0  0  0  0  0
   67.6311   74.1854   95.3302 C   0  0  0  0  0  0  0  0  0  0  0  0
   68.7657   73.6628   95.8332 O   0  0  0  0  0  0  0  0  0  0  0  0
   71.0105   71.1877   94.2232 C   0  0  0  0  0  0  0  0  0  0  0  0
   70.1954   72.2934   94.4019 C   0  0  0  0  0  0  0  0  0  0  0  0
   69.5701   72.6078   95.5905 C   0  0  0  0  0  0  0  0  0  0  0  0
   69.8230   71.6990   96.6511 C   0  0  0  0  0  0  0  0  0  0  0  0
   70.6288   70.6106   96.4661 C   0  0  0  0  0  0  0  0  0  0  0  0
   71.2373   70.3261   95.2660 C   0  0  0  0  0  0  0  0  0  0  0  0
   72.0425   69.2032   95.1496 O   0  0  0  0  0  0  0  0  0  0  0  0
   72.1711   68.6404   95.8877 H   0  0  0  0  0  0  0  0  0  0  0  0
   72.8836   71.0873   92.8482 O   0  0  0  0  0  0  0  0  0  0  0  0
   71.6427   70.9092   92.9417 C   0  0  0  0  0  0  0  0  0  0  0  0
   70.9593   70.4661   91.8391 O   0  0  0  0  0  0  0  0  0  0  0  0
   70.0339   70.3266   91.8862 H   0  0  0  0  0  0  0  0  0  0  0  0
 30 31  2  0  0  0
 31 32  1  0  0  0
 31 22  1  0  0  0
 22 23  2  0  0  0
 23 24  1  0  0  0
 24 21  1  0  0  0
 21 20  1  0  0  0
 20  1  1  0  0  0
  1  2  2  0  0  0
  2  3  1  0  0  0
  3  4  2  0  0  0
  4  5  1  0  0  0
  5  7  1  0  0  0
  7  8  2  0  0  0
  8  9  1  0  0  0
  9 10  2  0  0  0
 10 11  1  0  0  0
 11 13  1  0  0  0
 13 14  1  0  0  0
 14 15  1  0  0  0
 15 16  1  0  0  0
 16 17  1  0  0  0
 17 18  1  0  0  0
 18 19  1  0  0  0
 11 12  2  0  0  0
  5  6  2  0  0  0
 24 25  2  0  0  0
 25 26  1  0  0  0
 26 27  2  0  0  0
 27 28  1  0  0  0
 27 22  1  0  0  0
  6  1  1  0  0  0
 12  7  1  0  0  0
 19 14  1  0  0  0
 32 33  1  0  0  0
 28 29  1  0  0  0
M  END
> <Activity>
10.3

> <minimizedAffinity>
-0.52271

> <CNNscore>
0.9026621580

> <CNNaffinity>
5.9846687317

> <CNN_VS>
5.4021339417

$$$$
HIPS7772


 44 48  0  0  0  0  0  0  0  0999 V2000
   65.0679   78.9422   88.0955 C   0  0  0  0  0  0  0  0  0  0  0  0
   65.4777   80.2530   87.8060 C   0  0  0  0  0  0  0  0  0  0  0  0
   66.1707   80.5264   86.6250 C   0  0  0  0  0  0  0  0  0  0  0  0
   66.4497   79.5007   85.7178 C   0  0  0  0  0  0  0  0  0  0  0  0
   66.0325   78.1832   85.9815 C   0  0  0  0  0  0  0  0  0  0  0  0
   65.3361   77.9187   87.1748 C   0  0  0  0  0  0  0  0  0  0  0  0
   66.3038   77.0930   85.0129 C   0  0  0  0  0  0  0  0  0  0  0  0
   65.8617   77.1900   83.7286 N   0  0  0  0  0  0  0  0  0  0  0  0
   66.1192   76.2172   82.8182 C   0  0  0  0  0  0  0  0  0  0  0  0
   66.8663   75.0940   83.1857 C   0  0  0  0  0  0  0  0  0  0  0  0
   67.2928   74.9971   84.5143 C   0  0  0  0  0  0  0  0  0  0  0  0
   67.0095   75.9926   85.3934 N   0  0  0  0  0  0  0  0  0  0  0  0
   67.2001   74.0203   82.1845 C   0  0  0  0  0  0  0  0  0  0  0  0
   66.1011   73.1233   82.0171 O   0  0  0  0  0  0  0  0  0  0  0  0
   65.9011   71.9371   82.7435 C   0  0  0  0  0  0  0  0  0  0  0  0
   64.8799   71.0782   82.3316 C   0  0  0  0  0  0  0  0  0  0  0  0
   64.6254   69.8952   83.0250 C   0  0  0  0  0  0  0  0  0  0  0  0
   65.3896   69.5456   84.1427 C   0  0  0  0  0  0  0  0  0  0  0  0
   65.1283   68.3174   84.7530 O   0  0  0  0  0  0  0  0  0  0  0  0
   66.4113   70.4160   84.5922 C   0  0  0  0  0  0  0  0  0  0  0  0
   66.6761   71.5925   83.8672 C   0  0  0  0  0  0  0  0  0  0  0  0
   64.4428   67.7684   84.4263 H   0  0  0  0  0  0  0  0  0  0  0  0
   67.1833   70.1527   85.8248 C   0  0  0  0  0  0  0  0  0  0  0  0
   67.7960   71.0926   86.3984 O   0  0  0  0  0  0  0  0  0  0  0  0
   67.1934   68.8832   86.3940 O   0  0  0  0  0  0  0  0  0  0  0  0
   66.7406   68.1781   85.9747 H   0  0  0  0  0  0  0  0  0  0  0  0
   63.9137   80.8492   89.9419 O   0  0  0  0  0  0  0  0  0  0  0  0
   63.8471   79.6202   90.2134 C   0  0  0  0  0  0  0  0  0  0  0  0
   64.3250   78.6336   89.2848 N   0  0  0  0  0  0  0  0  0  0  0  0
   64.1312   77.6874   89.4757 H   0  0  0  0  0  0  0  0  0  0  0  0
   63.3445   79.1925   91.5635 C   0  0  0  0  0  0  0  0  0  0  0  0
   64.0595   79.9392   92.6986 C   0  0  0  0  0  0  0  0  0  0  0  0
   64.6444   79.0122   93.7247 C   0  0  0  0  0  0  0  0  0  0  0  0
   64.3560   79.0918   95.0409 N   0  0  0  0  0  0  0  0  0  0  0  0
   65.0827   78.0966   95.5836 C   0  0  0  0  0  0  0  0  0  0  0  0
   65.7792   77.4508   94.5797 C   0  0  0  0  0  0  0  0  0  0  0  0
   65.4770   78.0343   93.4455 O   0  0  0  0  0  0  0  0  0  0  0  0
   66.7179   76.3137   94.7084 C   0  0  0  0  0  0  0  0  0  0  0  0
   66.2988   75.0716   95.2210 C   0  0  0  0  0  0  0  0  0  0  0  0
   67.2033   74.0116   95.3335 C   0  0  0  0  0  0  0  0  0  0  0  0
   68.5343   74.1791   94.9413 C   0  0  0  0  0  0  0  0  0  0  0  0
   69.6648   72.8467   95.0903 Cl  0  0  0  0  0  0  0  0  0  0  0  0
   68.9628   75.4107   94.4391 C   0  0  0  0  0  0  0  0  0  0  0  0
   68.0600   76.4719   94.3191 C   0  0  0  0  0  0  0  0  0  0  0  0
 27 28  2  0  0  0
 28 31  1  0  0  0
 31 32  1  0  0  0
 32 33  1  0  0  0
 33 34  2  0  0  0
 34 35  2  0  0  0
 35 36  2  0  0  0
 36 38  1  0  0  0
 38 39  2  0  0  0
 39 40  1  0  0  0
 40 41  2  0  0  0
 41 42  1  0  0  0
 41 43  1  0  0  0
 43 44  2  0  0  0
 36 37  1  0  0  0
 28 29  1  0  0  0
 29  1  1  0  0  0
  1  2  2  0  0  0
  2  3  1  0  0  0
  3  4  2  0  0  0
  4  5  1  0  0  0
  5  7  1  0  0  0
  7  8  2  0  0  0
  8  9  2  0  0  0
  9 10  2  0  0  0
 10 13  1  0  0  0
 13 14  1  0  0  0
 14 15  1  0  0  0
 15 16  2  0  0  0
 16 17  1  0  0  0
 17 18  2  0  0  0
 18 19  1  0  0  0
 18 20  1  0  0  0
 20 23  1  0  0  0
 23 24  2  0  0  0
 23 25  1  0  0  0
 20 21  2  0  0  0
 10 11  1  0  0  0
 11 12  2  0  0  0
  5  6  2  0  0  0
 37 33  1  0  0  0
  6  1  1  0  0  0
 44 38  1  0  0  0
 12  7  2  0  0  0
 21 15  1  0  0  0
 29 30  1  0  0  0
 19 22  1  0  0  0
 25 26  1  0  0  0
M  END
> <Activity>
11.5

> <minimizedAffinity>
13.19339

> <CNNscore>
0.8443701267

> <CNNaffinity>
6.9654273987

> <CNN_VS>
5.8813986778

$$$$
HIPS7772


 44 48  0  0  0  0  0  0  0  0999 V2000
   64.4318   79.7480   89.0906 C   0  0  0  0  0  0  0  0  0  0  0  0
   64.3674   81.0638   88.6064 C   0  0  0  0  0  0  0  0  0  0  0  0
   64.9663   81.3931   87.3889 C   0  0  0  0  0  0  0  0  0  0  0  0
   65.6223   80.4137   86.6383 C   0  0  0  0  0  0  0  0  0  0  0  0
   65.6832   79.0854   87.0980 C   0  0  0  0  0  0  0  0  0  0  0  0
   65.0774   78.7650   88.3266 C   0  0  0  0  0  0  0  0  0  0  0  0
   66.3570   78.0349   86.2963 C   0  0  0  0  0  0  0  0  0  0  0  0
   67.7123   78.0352   86.1649 N   0  0  0  0  0  0  0  0  0  0  0  0
   68.3531   77.0705   85.4576 C   0  0  0  0  0  0  0  0  0  0  0  0
   67.6230   76.0391   84.8594 C   0  0  0  0  0  0  0  0  0  0  0  0
   66.2299   76.0657   84.9828 C   0  0  0  0  0  0  0  0  0  0  0  0
   65.6296   77.0523   85.6970 N   0  0  0  0  0  0  0  0  0  0  0  0
   68.3129   74.9348   84.1036 C   0  0  0  0  0  0  0  0  0  0  0  0
   67.3731   74.1816   83.3356 O   0  0  0  0  0  0  0  0  0  0  0  0
   66.9876   72.8554   83.5945 C   0  0  0  0  0  0  0  0  0  0  0  0
   66.0177   72.2798   82.7710 C   0  0  0  0  0  0  0  0  0  0  0  0
   65.5849   70.9725   82.9918 C   0  0  0  0  0  0  0  0  0  0  0  0
   66.1159   70.2131   84.0390 C   0  0  0  0  0  0  0  0  0  0  0  0
   65.6893   68.8899   84.1665 O   0  0  0  0  0  0  0  0  0  0  0  0
   67.0800   70.7877   84.9015 C   0  0  0  0  0  0  0  0  0  0  0  0
   67.5285   72.0976   84.6507 C   0  0  0  0  0  0  0  0  0  0  0  0
   65.0487   68.5452   83.5758 H   0  0  0  0  0  0  0  0  0  0  0  0
   67.6021   70.0730   86.0852 C   0  0  0  0  0  0  0  0  0  0  0  0
   67.7353   70.6805   87.1811 O   0  0  0  0  0  0  0  0  0  0  0  0
   67.8951   68.7145   86.0175 O   0  0  0  0  0  0  0  0  0  0  0  0
   67.7990   68.2544   85.2069 H   0  0  0  0  0  0  0  0  0  0  0  0
   63.9626   81.4607   91.3764 O   0  0  0  0  0  0  0  0  0  0  0  0
   63.6674   80.2381   91.4595 C   0  0  0  0  0  0  0  0  0  0  0  0
   63.7982   79.3697   90.3223 N   0  0  0  0  0  0  0  0  0  0  0  0
   63.4306   78.4591   90.3920 H   0  0  0  0  0  0  0  0  0  0  0  0
   63.2612   79.6693   92.7898 C   0  0  0  0  0  0  0  0  0  0  0  0
   64.4573   79.5472   93.7446 C   0  0  0  0  0  0  0  0  0  0  0  0
   65.2669   78.3058   93.5044 C   0  0  0  0  0  0  0  0  0  0  0  0
   65.5656   77.8468   92.2706 N   0  0  0  0  0  0  0  0  0  0  0  0
   66.2866   76.7359   92.5136 C   0  0  0  0  0  0  0  0  0  0  0  0
   66.4009   76.5653   93.8803 C   0  0  0  0  0  0  0  0  0  0  0  0
   65.7699   77.5570   94.4602 O   0  0  0  0  0  0  0  0  0  0  0  0
   67.0863   75.4737   94.6078 C   0  0  0  0  0  0  0  0  0  0  0  0
   66.3654   74.5344   95.3689 C   0  0  0  0  0  0  0  0  0  0  0  0
   67.0343   73.5116   96.0477 C   0  0  0  0  0  0  0  0  0  0  0  0
   68.4270   73.4166   95.9793 C   0  0  0  0  0  0  0  0  0  0  0  0
   69.2600   72.1342   96.8378 Cl  0  0  0  0  0  0  0  0  0  0  0  0
   69.1530   74.3490   95.2335 C   0  0  0  0  0  0  0  0  0  0  0  0
   68.4875   75.3701   94.5478 C   0  0  0  0  0  0  0  0  0  0  0  0
 27 28  2  0  0  0
 28 31  1  0  0  0
 31 32  1  0  0  0
 32 33  1  0  0  0
 33 34  2  0  0  0
 34 35  2  0  0  0
 35 36  2  0  0  0
 36 38  1  0  0  0
 38 39  2  0  0  0
 39 40  1  0  0  0
 40 41  2  0  0  0
 41 42  1  0  0  0
 41 43  1  0  0  0
 43 44  2  0  0  0
 36 37  1  0  0  0
 28 29  1  0  0  0
 29  1  1  0  0  0
  1  2  2  0  0  0
  2  3  1  0  0  0
  3  4  2  0  0  0
  4  5  1  0  0  0
  5  7  1  0  0  0
  7  8  2  0  0  0
  8  9  2  0  0  0
  9 10  2  0  0  0
 10 13  1  0  0  0
 13 14  1  0  0  0
 14 15  1  0  0  0
 15 16  2  0  0  0
 16 17  1  0  0  0
 17 18  2  0  0  0
 18 19  1  0  0  0
 18 20  1  0  0  0
 20 23  1  0  0  0
 23 24  2  0  0  0
 23 25  1  0  0  0
 20 21  2  0  0  0
 10 11  1  0  0  0
 11 12  2  0  0  0
  5  6  2  0  0  0
 37 33  1  0  0  0
  6  1  1  0  0  0
 44 38  1  0  0  0
 12  7  2  0  0  0
 21 15  1  0  0  0
 29 30  1  0  0  0
 19 22  1  0  0  0
 25 26  1  0  0  0
M  END
> <Activity>
11.5

> <minimizedAffinity>
10.34137

> <CNNscore>
0.8374416828

> <CNNaffinity>
7.2485141754

> <CNN_VS>
6.0702080727

$$$$
HIPS7772


 44 48  0  0  0  0  0  0  0  0999 V2000
   64.6880   79.5006   89.3345 C   0  0  0  0  0  0  0  0  0  0  0  0
   64.4186   80.8058   88.8942 C   0  0  0  0  0  0  0  0  0  0  0  0
   64.6825   81.1683   87.5719 C   0  0  0  0  0  0  0  0  0  0  0  0
   65.2040   80.2321   86.6750 C   0  0  0  0  0  0  0  0  0  0  0  0
   65.4649   78.9141   87.0922 C   0  0  0  0  0  0  0  0  0  0  0  0
   65.1964   78.5599   88.4270 C   0  0  0  0  0  0  0  0  0  0  0  0
   65.9962   77.9078   86.1406 C   0  0  0  0  0  0  0  0  0  0  0  0
   65.2292   77.4719   85.1034 N   0  0  0  0  0  0  0  0  0  0  0  0
   65.7023   76.5708   84.2057 C   0  0  0  0  0  0  0  0  0  0  0  0
   67.0071   76.0830   84.3243 C   0  0  0  0  0  0  0  0  0  0  0  0
   67.7744   76.5217   85.4085 C   0  0  0  0  0  0  0  0  0  0  0  0
   67.2597   77.4217   86.2854 N   0  0  0  0  0  0  0  0  0  0  0  0
   67.5696   75.1139   83.3188 C   0  0  0  0  0  0  0  0  0  0  0  0
   66.6500   74.0492   83.0709 O   0  0  0  0  0  0  0  0  0  0  0  0
   66.7252   72.7623   83.6300 C   0  0  0  0  0  0  0  0  0  0  0  0
   67.6928   72.5261   84.6088 C   0  0  0  0  0  0  0  0  0  0  0  0
   67.8239   71.2634   85.1864 C   0  0  0  0  0  0  0  0  0  0  0  0
   66.9873   70.2120   84.7989 C   0  0  0  0  0  0  0  0  0  0  0  0
   67.1252   68.9910   85.4616 O   0  0  0  0  0  0  0  0  0  0  0  0
   66.0184   70.4241   83.7892 C   0  0  0  0  0  0  0  0  0  0  0  0
   65.8778   71.7097   83.2347 C   0  0  0  0  0  0  0  0  0  0  0  0
   67.7790   68.8892   86.1250 H   0  0  0  0  0  0  0  0  0  0  0  0
   65.1757   69.3288   83.2648 C   0  0  0  0  0  0  0  0  0  0  0  0
   65.0621   69.1600   82.0213 O   0  0  0  0  0  0  0  0  0  0  0  0
   64.5495   68.4414   84.1345 O   0  0  0  0  0  0  0  0  0  0  0  0
   64.6284   68.5589   85.0607 H   0  0  0  0  0  0  0  0  0  0  0  0
   63.5317   81.1380   91.4226 O   0  0  0  0  0  0  0  0  0  0  0  0
   63.9021   79.9659   91.7013 C   0  0  0  0  0  0  0  0  0  0  0  0
   64.3973   79.0869   90.6784 N   0  0  0  0  0  0  0  0  0  0  0  0
   64.5465   78.1426   90.9134 H   0  0  0  0  0  0  0  0  0  0  0  0
   63.9087   79.5193   93.1362 C   0  0  0  0  0  0  0  0  0  0  0  0
   65.3282   79.1977   93.6246 C   0  0  0  0  0  0  0  0  0  0  0  0
   65.5807   77.7224   93.7430 C   0  0  0  0  0  0  0  0  0  0  0  0
   64.6112   76.7940   93.6006 N   0  0  0  0  0  0  0  0  0  0  0  0
   65.2610   75.6291   93.7839 C   0  0  0  0  0  0  0  0  0  0  0  0
   66.5957   75.8932   94.0261 C   0  0  0  0  0  0  0  0  0  0  0  0
   66.7594   77.1929   93.9828 O   0  0  0  0  0  0  0  0  0  0  0  0
   67.6801   74.9248   94.3036 C   0  0  0  0  0  0  0  0  0  0  0  0
   68.8297   75.2983   95.0247 C   0  0  0  0  0  0  0  0  0  0  0  0
   69.8412   74.3664   95.2749 C   0  0  0  0  0  0  0  0  0  0  0  0
   69.7205   73.0553   94.8059 C   0  0  0  0  0  0  0  0  0  0  0  0
   70.9957   71.8929   95.1187 Cl  0  0  0  0  0  0  0  0  0  0  0  0
   68.5871   72.6763   94.0816 C   0  0  0  0  0  0  0  0  0  0  0  0
   67.5700   73.6036   93.8343 C   0  0  0  0  0  0  0  0  0  0  0  0
 27 28  2  0  0  0
 28 31  1  0  0  0
 31 32  1  0  0  0
 32 33  1  0  0  0
 33 34  2  0  0  0
 34 35  2  0  0  0
 35 36  2  0  0  0
 36 38  1  0  0  0
 38 39  2  0  0  0
 39 40  1  0  0  0
 40 41  2  0  0  0
 41 42  1  0  0  0
 41 43  1  0  0  0
 43 44  2  0  0  0
 36 37  1  0  0  0
 28 29  1  0  0  0
 29  1  1  0  0  0
  1  2  2  0  0  0
  2  3  1  0  0  0
  3  4  2  0  0  0
  4  5  1  0  0  0
  5  7  1  0  0  0
  7  8  2  0  0  0
  8  9  2  0  0  0
  9 10  2  0  0  0
 10 13  1  0  0  0
 13 14  1  0  0  0
 14 15  1  0  0  0
 15 16  2  0  0  0
 16 17  1  0  0  0
 17 18  2  0  0  0
 18 19  1  0  0  0
 18 20  1  0  0  0
 20 23  1  0  0  0
 23 24  2  0  0  0
 23 25  1  0  0  0
 20 21  2  0  0  0
 10 11  1  0  0  0
 11 12  2  0  0  0
  5  6  2  0  0  0
 37 33  1  0  0  0
  6  1  1  0  0  0
 44 38  1  0  0  0
 12  7  2  0  0  0
 21 15  1  0  0  0
 29 30  1  0  0  0
 19 22  1  0  0  0
 25 26  1  0  0  0
M  END
> <Activity>
11.5

> <minimizedAffinity>
11.76923

> <CNNscore>
0.8111513853

> <CNNaffinity>
7.0443248749

> <CNN_VS>
5.7140140533

$$$$
HIPS6990


 35 38  0  0  0  0  0  0  0  0999 V2000
   65.8217   79.2059   87.2299 C   0  0  0  0  0  0  0  0  0  0  0  0
   65.4929   80.4714   86.7123 C   0  0  0  0  0  0  0  0  0  0  0  0
   64.6514   81.3296   87.4243 C   0  0  0  0  0  0  0  0  0  0  0  0
   64.1334   80.9398   88.6609 C   0  0  0  0  0  0  0  0  0  0  0  0
   64.4553   79.6849   89.1976 C   0  0  0  0  0  0  0  0  0  0  0  0
   65.2867   78.8169   88.4716 C   0  0  0  0  0  0  0  0  0  0  0  0
   67.0667   76.2388   85.2010 C   0  0  0  0  0  0  0  0  0  0  0  0
   68.4157   76.5721   85.0438 C   0  0  0  0  0  0  0  0  0  0  0  0
   68.9183   77.7568   85.5853 C   0  0  0  0  0  0  0  0  0  0  0  0
   68.0774   78.6168   86.2956 C   0  0  0  0  0  0  0  0  0  0  0  0
   66.7220   78.2924   86.4823 C   0  0  0  0  0  0  0  0  0  0  0  0
   66.2283   77.0894   85.9440 C   0  0  0  0  0  0  0  0  0  0  0  0
   66.6019   75.0366   84.6469 O   0  0  0  0  0  0  0  0  0  0  0  0
   67.8263   71.1467   85.7362 C   0  0  0  0  0  0  0  0  0  0  0  0
   66.9727   71.8687   86.5779 C   0  0  0  0  0  0  0  0  0  0  0  0
   66.5542   73.1562   86.2305 C   0  0  0  0  0  0  0  0  0  0  0  0
   67.0018   73.7490   85.0363 C   0  0  0  0  0  0  0  0  0  0  0  0
   67.8354   73.0190   84.1823 C   0  0  0  0  0  0  0  0  0  0  0  0
   68.2516   71.7294   84.5271 C   0  0  0  0  0  0  0  0  0  0  0  0
   67.4860   68.6738   85.8668 C   0  0  0  0  0  0  0  0  0  0  0  0
   68.2242   69.8616   86.1335 O   0  0  0  0  0  0  0  0  0  0  0  0
   63.9023   79.2726   90.5367 C   0  0  0  0  0  0  0  0  0  0  0  0
   64.8490   79.5244   91.5762 O   0  0  0  0  0  0  0  0  0  0  0  0
   65.0799   78.6939   92.6856 C   0  0  0  0  0  0  0  0  0  0  0  0
   64.5130   79.0574   93.9086 C   0  0  0  0  0  0  0  0  0  0  0  0
   64.7110   78.2709   95.0433 C   0  0  0  0  0  0  0  0  0  0  0  0
   65.4806   77.1048   94.9785 C   0  0  0  0  0  0  0  0  0  0  0  0
   65.5773   76.3267   96.1342 O   0  0  0  0  0  0  0  0  0  0  0  0
   66.0964   76.7396   93.7550 C   0  0  0  0  0  0  0  0  0  0  0  0
   65.8605   77.5251   92.6121 C   0  0  0  0  0  0  0  0  0  0  0  0
   65.1547   76.6046   96.9229 H   0  0  0  0  0  0  0  0  0  0  0  0
   67.0163   75.5862   93.6343 C   0  0  0  0  0  0  0  0  0  0  0  0
   68.2378   75.7027   93.9204 O   0  0  0  0  0  0  0  0  0  0  0  0
   66.5471   74.3744   93.1351 O   0  0  0  0  0  0  0  0  0  0  0  0
   65.6406   74.2762   92.9190 H   0  0  0  0  0  0  0  0  0  0  0  0
 20 21  1  0  0  0
 21 14  1  0  0  0
 14 15  2  0  0  0
 15 16  1  0  0  0
 16 17  2  0  0  0
 17 13  1  0  0  0
 13  7  1  0  0  0
  7  8  2  0  0  0
  8  9  1  0  0  0
  9 10  2  0  0  0
 10 11  1  0  0  0
 11  1  1  0  0  0
  1  2  2  0  0  0
  2  3  1  0  0  0
  3  4  2  0  0  0
  4  5  1  0  0  0
  5 22  1  0  0  0
 22 23  1  0  0  0
 23 24  1  0  0  0
 24 25  2  0  0  0
 25 26  1  0  0  0
 26 27  2  0  0  0
 27 28  1  0  0  0
 27 29  1  0  0  0
 29 32  1  0  0  0
 32 33  2  0  0  0
 32 34  1  0  0  0
 29 30  2  0  0  0
  5  6  2  0  0  0
 11 12  2  0  0  0
 17 18  1  0  0  0
 18 19  2  0  0  0
 19 14  1  0  0  0
 12  7  1  0  0  0
  6  1  1  0  0  0
 30 24  1  0  0  0
 28 31  1  0  0  0
 34 35  1  0  0  0
M  END
> <Activity>
13.0

> <minimizedAffinity>
12.51286

> <CNNscore>
0.8967479467

> <CNNaffinity>
6.7311105728

> <CNN_VS>
6.0361094475

$$$$
HIPS6990


 35 38  0  0  0  0  0  0  0  0999 V2000
   70.9480   78.0101   91.8993 C   0  0  0  0  0  0  0  0  0  0  0  0
   71.8212   77.3143   91.0444 C   0  0  0  0  0  0  0  0  0  0  0  0
   72.4385   77.9713   89.9772 C   0  0  0  0  0  0  0  0  0  0  0  0
   72.1979   79.3283   89.7535 C   0  0  0  0  0  0  0  0  0  0  0  0
   71.3362   80.0416   90.5991 C   0  0  0  0  0  0  0  0  0  0  0  0
   70.7029   79.3747   91.6601 C   0  0  0  0  0  0  0  0  0  0  0  0
   68.2684   76.6704   94.2434 C   0  0  0  0  0  0  0  0  0  0  0  0
   69.0521   75.9933   95.1830 C   0  0  0  0  0  0  0  0  0  0  0  0
   70.4420   75.9636   95.0535 C   0  0  0  0  0  0  0  0  0  0  0  0
   71.0622   76.6170   93.9859 C   0  0  0  0  0  0  0  0  0  0  0  0
   70.2951   77.3200   93.0401 C   0  0  0  0  0  0  0  0  0  0  0  0
   68.8960   77.3552   93.1871 C   0  0  0  0  0  0  0  0  0  0  0  0
   66.8756   76.6818   94.4122 O   0  0  0  0  0  0  0  0  0  0  0  0
   64.1592   79.3829   92.6394 C   0  0  0  0  0  0  0  0  0  0  0  0
   64.8651   78.4790   91.8374 C   0  0  0  0  0  0  0  0  0  0  0  0
   65.7652   77.5751   92.4084 C   0  0  0  0  0  0  0  0  0  0  0  0
   65.9854   77.5757   93.7975 C   0  0  0  0  0  0  0  0  0  0  0  0
   65.2624   78.4620   94.6030 C   0  0  0  0  0  0  0  0  0  0  0  0
   64.3588   79.3642   94.0331 C   0  0  0  0  0  0  0  0  0  0  0  0
   63.5053   80.8864   90.7527 C   0  0  0  0  0  0  0  0  0  0  0  0
   63.2736   80.2754   92.0176 O   0  0  0  0  0  0  0  0  0  0  0  0
   71.0875   81.5079   90.3600 C   0  0  0  0  0  0  0  0  0  0  0  0
   71.3007   82.2605   91.5551 O   0  0  0  0  0  0  0  0  0  0  0  0
   70.5705   83.3964   91.9430 C   0  0  0  0  0  0  0  0  0  0  0  0
   70.4216   84.4305   91.0167 C   0  0  0  0  0  0  0  0  0  0  0  0
   69.7082   85.5820   91.3487 C   0  0  0  0  0  0  0  0  0  0  0  0
   69.1294   85.7237   92.6141 C   0  0  0  0  0  0  0  0  0  0  0  0
   68.3679   86.8695   92.8543 O   0  0  0  0  0  0  0  0  0  0  0  0
   69.3022   84.7017   93.5813 C   0  0  0  0  0  0  0  0  0  0  0  0
   69.9963   83.5324   93.2207 C   0  0  0  0  0  0  0  0  0  0  0  0
   68.2791   87.5214   92.1871 H   0  0  0  0  0  0  0  0  0  0  0  0
   68.8194   84.8279   94.9748 C   0  0  0  0  0  0  0  0  0  0  0  0
   69.1547   85.8117   95.6870 O   0  0  0  0  0  0  0  0  0  0  0  0
   68.0411   83.8178   95.5331 O   0  0  0  0  0  0  0  0  0  0  0  0
   67.7858   83.0814   95.0129 H   0  0  0  0  0  0  0  0  0  0  0  0
 20 21  1  0  0  0
 21 14  1  0  0  0
 14 15  2  0  0  0
 15 16  1  0  0  0
 16 17  2  0  0  0
 17 13  1  0  0  0
 13  7  1  0  0  0
  7  8  2  0  0  0
  8  9  1  0  0  0
  9 10  2  0  0  0
 10 11  1  0  0  0
 11  1  1  0  0  0
  1  2  2  0  0  0
  2  3  1  0  0  0
  3  4  2  0  0  0
  4  5  1  0  0  0
  5 22  1  0  0  0
 22 23  1  0  0  0
 23 24  1  0  0  0
 24 25  2  0  0  0
 25 26  1  0  0  0
 26 27  2  0  0  0
 27 28  1  0  0  0
 27 29  1  0  0  0
 29 32  1  0  0  0
 32 33  2  0  0  0
 32 34  1  0  0  0
 29 30  2  0  0  0
  5  6  2  0  0  0
 11 12  2  0  0  0
 17 18  1  0  0  0
 18 19  2  0  0  0
 19 14  1  0  0  0
 12  7  1  0  0  0
  6  1  1  0  0  0
 30 24  1  0  0  0
 28 31  1  0  0  0
 34 35  1  0  0  0
M  END
> <Activity>
13.0

> <minimizedAffinity>
4.09625

> <CNNscore>
0.8883269429

> <CNNaffinity>
6.3098287582

> <CNN_VS>
5.6051907539

$$$$
HIPS6990


 35 38  0  0  0  0  0  0  0  0999 V2000
   69.9493   77.3895   93.0471 C   0  0  0  0  0  0  0  0  0  0  0  0
   68.5558   77.5651   93.1153 C   0  0  0  0  0  0  0  0  0  0  0  0
   67.8222   76.9995   94.1610 C   0  0  0  0  0  0  0  0  0  0  0  0
   68.4684   76.2585   95.1523 C   0  0  0  0  0  0  0  0  0  0  0  0
   69.8583   76.0781   95.1063 C   0  0  0  0  0  0  0  0  0  0  0  0
   70.5909   76.6324   94.0443 C   0  0  0  0  0  0  0  0  0  0  0  0
   71.0417   79.7628   90.2822 C   0  0  0  0  0  0  0  0  0  0  0  0
   72.2341   79.1594   89.8703 C   0  0  0  0  0  0  0  0  0  0  0  0
   72.6869   77.9936   90.4910 C   0  0  0  0  0  0  0  0  0  0  0  0
   71.9474   77.4158   91.5257 C   0  0  0  0  0  0  0  0  0  0  0  0
   70.7359   77.9948   91.9431 C   0  0  0  0  0  0  0  0  0  0  0  0
   70.2814   79.1623   91.3021 C   0  0  0  0  0  0  0  0  0  0  0  0
   70.6179   80.9300   89.6293 O   0  0  0  0  0  0  0  0  0  0  0  0
   72.9745   84.3936   89.1115 C   0  0  0  0  0  0  0  0  0  0  0  0
   71.9862   84.0776   88.1724 C   0  0  0  0  0  0  0  0  0  0  0  0
   71.1943   82.9370   88.3307 C   0  0  0  0  0  0  0  0  0  0  0  0
   71.3942   82.0820   89.4294 C   0  0  0  0  0  0  0  0  0  0  0  0
   72.3651   82.4098   90.3818 C   0  0  0  0  0  0  0  0  0  0  0  0
   73.1554   83.5527   90.2263 C   0  0  0  0  0  0  0  0  0  0  0  0
   73.2113   86.8411   88.6622 C   0  0  0  0  0  0  0  0  0  0  0  0
   73.7484   85.5448   88.9033 O   0  0  0  0  0  0  0  0  0  0  0  0
   70.5525   75.2864   96.1834 C   0  0  0  0  0  0  0  0  0  0  0  0
   69.9890   73.9787   96.2953 O   0  0  0  0  0  0  0  0  0  0  0  0
   69.6706   73.1346   95.2182 C   0  0  0  0  0  0  0  0  0  0  0  0
   70.6192   72.1910   94.8193 C   0  0  0  0  0  0  0  0  0  0  0  0
   70.3569   71.3287   93.7550 C   0  0  0  0  0  0  0  0  0  0  0  0
   69.1408   71.3924   93.0671 C   0  0  0  0  0  0  0  0  0  0  0  0
   68.9154   70.4516   92.0599 O   0  0  0  0  0  0  0  0  0  0  0  0
   68.1804   72.3692   93.4321 C   0  0  0  0  0  0  0  0  0  0  0  0
   68.4461   73.2099   94.5284 C   0  0  0  0  0  0  0  0  0  0  0  0
   69.5773   69.8226   91.8497 H   0  0  0  0  0  0  0  0  0  0  0  0
   66.9216   72.5746   92.6811 C   0  0  0  0  0  0  0  0  0  0  0  0
   66.0331   73.3567   93.1130 O   0  0  0  0  0  0  0  0  0  0  0  0
   66.6810   71.8472   91.5189 O   0  0  0  0  0  0  0  0  0  0  0  0
   67.3345   71.2626   91.1884 H   0  0  0  0  0  0  0  0  0  0  0  0
 20 21  1  0  0  0
 21 14  1  0  0  0
 14 15  2  0  0  0
 15 16  1  0  0  0
 16 17  2  0  0  0
 17 13  1  0  0  0
 13  7  1  0  0  0
  7  8  2  0  0  0
  8  9  1  0  0  0
  9 10  2  0  0  0
 10 11  1  0  0  0
 11  1  1  0  0  0
  1  2  2  0  0  0
  2  3  1  0  0  0
  3  4  2  0  0  0
  4  5  1  0  0  0
  5 22  1  0  0  0
 22 23  1  0  0  0
 23 24  1  0  0  0
 24 25  2  0  0  0
 25 26  1  0  0  0
 26 27  2  0  0  0
 27 28  1  0  0  0
 27 29  1  0  0  0
 29 32  1  0  0  0
 32 33  2  0  0  0
 32 34  1  0  0  0
 29 30  2  0  0  0
  5  6  2  0  0  0
 11 12  2  0  0  0
 17 18  1  0  0  0
 18 19  2  0  0  0
 19 14  1  0  0  0
 12  7  1  0  0  0
  6  1  1  0  0  0
 30 24  1  0  0  0
 28 31  1  0  0  0
 34 35  1  0  0  0
M  END
> <Activity>
13.0

> <minimizedAffinity>
2.05314

> <CNNscore>
0.8859866858

> <CNNaffinity>
5.9832868576

> <CNN_VS>
5.3011126518

$$$$
HIPS6985


 32 35  0  0  0  0  0  0  0  0999 V2000
   64.2965   80.2317   89.1997 C   0  0  0  0  0  0  0  0  0  0  0  0
   63.4207   81.2917   89.4761 C   0  0  0  0  0  0  0  0  0  0  0  0
   63.0264   81.5440   90.7691 C   0  0  0  0  0  0  0  0  0  0  0  0
   63.4791   80.7670   91.8160 C   0  0  0  0  0  0  0  0  0  0  0  0
   64.3458   79.7111   91.5770 C   0  0  0  0  0  0  0  0  0  0  0  0
   64.7152   79.4922   90.2737 C   0  0  0  0  0  0  0  0  0  0  0  0
   64.8175   78.8974   92.6917 C   0  0  0  0  0  0  0  0  0  0  0  0
   64.5112   79.2049   94.0073 C   0  0  0  0  0  0  0  0  0  0  0  0
   64.9718   78.4155   95.0443 C   0  0  0  0  0  0  0  0  0  0  0  0
   65.7538   77.2893   94.8299 C   0  0  0  0  0  0  0  0  0  0  0  0
   66.0643   76.9741   93.5285 C   0  0  0  0  0  0  0  0  0  0  0  0
   65.5925   77.7809   92.4837 C   0  0  0  0  0  0  0  0  0  0  0  0
   66.8267   75.8850   93.2388 O   0  0  0  0  0  0  0  0  0  0  0  0
   66.9708   74.7433   94.0000 C   0  0  0  0  0  0  0  0  0  0  0  0
   68.3147   74.7368   94.7164 C   0  0  0  0  0  0  0  0  0  0  0  0
   68.1191   73.6776   95.7673 C   0  0  0  0  0  0  0  0  0  0  0  0
   66.6411   73.5566   96.0039 C   0  0  0  0  0  0  0  0  0  0  0  0
   66.0329   74.7106   95.2035 C   0  0  0  0  0  0  0  0  0  0  0  0
   64.6960   79.9510   87.7850 C   0  0  0  0  0  0  0  0  0  0  0  0
   65.4843   78.8754   87.6215 O   0  0  0  0  0  0  0  0  0  0  0  0
   67.1417   76.5986   85.3283 C   0  0  0  0  0  0  0  0  0  0  0  0
   66.2148   77.1716   86.1470 C   0  0  0  0  0  0  0  0  0  0  0  0
   66.4445   78.3847   86.8399 C   0  0  0  0  0  0  0  0  0  0  0  0
   67.6566   79.0027   86.6736 C   0  0  0  0  0  0  0  0  0  0  0  0
   68.5984   78.4332   85.8499 C   0  0  0  0  0  0  0  0  0  0  0  0
   68.3516   77.2407   85.1786 C   0  0  0  0  0  0  0  0  0  0  0  0
   69.3374   76.7099   84.3598 O   0  0  0  0  0  0  0  0  0  0  0  0
   70.1568   77.1542   84.2646 H   0  0  0  0  0  0  0  0  0  0  0  0
   66.4979   75.3222   83.4483 O   0  0  0  0  0  0  0  0  0  0  0  0
   66.9308   75.3568   84.6073 C   0  0  0  0  0  0  0  0  0  0  0  0
   67.2263   74.1654   85.2428 O   0  0  0  0  0  0  0  0  0  0  0  0
   67.5550   74.1715   86.1203 H   0  0  0  0  0  0  0  0  0  0  0  0
 29 30  2  0  0  0
 30 31  1  0  0  0
 30 21  1  0  0  0
 21 22  2  0  0  0
 22 23  1  0  0  0
 23 20  1  0  0  0
 20 19  1  0  0  0
 19  1  1  0  0  0
  1  2  2  0  0  0
  2  3  1  0  0  0
  3  4  2  0  0  0
  4  5  1  0  0  0
  5  7  1  0  0  0
  7  8  2  0  0  0
  8  9  1  0  0  0
  9 10  2  0  0  0
 10 11  1  0  0  0
 11 13  1  0  0  0
 13 14  1  0  0  0
 14 15  1  0  0  0
 15 16  1  0  0  0
 16 17  1  0  0  0
 17 18  1  0  0  0
 11 12  2  0  0  0
  5  6  2  0  0  0
 23 24  2  0  0  0
 24 25  1  0  0  0
 25 26  2  0  0  0
 26 27  1  0  0  0
 26 21  1  0  0  0
  6  1  1  0  0  0
 12  7  1  0  0  0
 18 14  1  0  0  0
 31 32  1  0  0  0
 27 28  1  0  0  0
M  END
> <Activity>
13.3

> <minimizedAffinity>
10.31949

> <CNNscore>
0.9029972553

> <CNNaffinity>
6.4562368393

> <CNN_VS>
5.8299641609

$$$$
HIPS6985


 32 35  0  0  0  0  0  0  0  0999 V2000
   71.3922   79.5778   90.4561 C   0  0  0  0  0  0  0  0  0  0  0  0
   72.4367   78.8196   89.9073 C   0  0  0  0  0  0  0  0  0  0  0  0
   72.7103   77.5636   90.3959 C   0  0  0  0  0  0  0  0  0  0  0  0
   71.9702   77.0244   91.4285 C   0  0  0  0  0  0  0  0  0  0  0  0
   70.9308   77.7479   91.9935 C   0  0  0  0  0  0  0  0  0  0  0  0
   70.6898   78.9967   91.4782 C   0  0  0  0  0  0  0  0  0  0  0  0
   70.1558   77.1672   93.0840 C   0  0  0  0  0  0  0  0  0  0  0  0
   70.7367   76.8109   94.2901 C   0  0  0  0  0  0  0  0  0  0  0  0
   69.9776   76.2626   95.3067 C   0  0  0  0  0  0  0  0  0  0  0  0
   68.6135   76.0417   95.1790 C   0  0  0  0  0  0  0  0  0  0  0  0
   68.0257   76.3913   93.9866 C   0  0  0  0  0  0  0  0  0  0  0  0
   68.8041   76.9467   92.9616 C   0  0  0  0  0  0  0  0  0  0  0  0
   66.6929   76.2050   93.7864 O   0  0  0  0  0  0  0  0  0  0  0  0
   65.7092   77.1724   93.7766 C   0  0  0  0  0  0  0  0  0  0  0  0
   65.3138   77.5563   95.1963 C   0  0  0  0  0  0  0  0  0  0  0  0
   64.5757   78.8514   94.9905 C   0  0  0  0  0  0  0  0  0  0  0  0
   65.0489   79.4282   93.6871 C   0  0  0  0  0  0  0  0  0  0  0  0
   66.2099   78.5223   93.2706 C   0  0  0  0  0  0  0  0  0  0  0  0
   71.1227   80.9541   89.9336 C   0  0  0  0  0  0  0  0  0  0  0  0
   71.1968   81.9331   90.8509 O   0  0  0  0  0  0  0  0  0  0  0  0
   70.3003   85.4167   90.3505 C   0  0  0  0  0  0  0  0  0  0  0  0
   70.7629   84.1516   90.1430 C   0  0  0  0  0  0  0  0  0  0  0  0
   70.7219   83.1440   91.1368 C   0  0  0  0  0  0  0  0  0  0  0  0
   70.1917   83.4653   92.3593 C   0  0  0  0  0  0  0  0  0  0  0  0
   69.7221   84.7385   92.5790 C   0  0  0  0  0  0  0  0  0  0  0  0
   69.7720   85.7129   91.5882 C   0  0  0  0  0  0  0  0  0  0  0  0
   69.2842   86.9819   91.8635 O   0  0  0  0  0  0  0  0  0  0  0  0
   68.9270   87.1734   92.7083 H   0  0  0  0  0  0  0  0  0  0  0  0
   69.3771   87.2306   89.1525 O   0  0  0  0  0  0  0  0  0  0  0  0
   70.3307   86.4666   89.3490 C   0  0  0  0  0  0  0  0  0  0  0  0
   71.4724   86.6176   88.5846 O   0  0  0  0  0  0  0  0  0  0  0  0
   72.2047   86.0487   88.7188 H   0  0  0  0  0  0  0  0  0  0  0  0
 29 30  2  0  0  0
 30 31  1  0  0  0
 30 21  1  0  0  0
 21 22  2  0  0  0
 22 23  1  0  0  0
 23 20  1  0  0  0
 20 19  1  0  0  0
 19  1  1  0  0  0
  1  2  2  0  0  0
  2  3  1  0  0  0
  3  4  2  0  0  0
  4  5  1  0  0  0
  5  7  1  0  0  0
  7  8  2  0  0  0
  8  9  1  0  0  0
  9 10  2  0  0  0
 10 11  1  0  0  0
 11 13  1  0  0  0
 13 14  1  0  0  0
 14 15  1  0  0  0
 15 16  1  0  0  0
 16 17  1  0  0  0
 17 18  1  0  0  0
 11 12  2  0  0  0
  5  6  2  0  0  0
 23 24  2  0  0  0
 24 25  1  0  0  0
 25 26  2  0  0  0
 26 27  1  0  0  0
 26 21  1  0  0  0
  6  1  1  0  0  0
 12  7  1  0  0  0
 18 14  1  0  0  0
 31 32  1  0  0  0
 27 28  1  0  0  0
M  END
> <Activity>
13.3

> <minimizedAffinity>
2.39609

> <CNNscore>
0.8807883263

> <CNNaffinity>
5.8971776962

> <CNN_VS>
5.1941652298

$$$$
HIPS6985


 32 35  0  0  0  0  0  0  0  0999 V2000
   71.1723   79.5838   90.7076 C   0  0  0  0  0  0  0  0  0  0  0  0
   72.3328   78.9328   90.2646 C   0  0  0  0  0  0  0  0  0  0  0  0
   72.6844   77.7117   90.7905 C   0  0  0  0  0  0  0  0  0  0  0  0
   71.9105   77.1036   91.7579 C   0  0  0  0  0  0  0  0  0  0  0  0
   70.7570   77.7205   92.2179 C   0  0  0  0  0  0  0  0  0  0  0  0
   70.4408   78.9376   91.6684 C   0  0  0  0  0  0  0  0  0  0  0  0
   69.9472   77.0676   93.2402 C   0  0  0  0  0  0  0  0  0  0  0  0
   70.4969   76.5888   94.4182 C   0  0  0  0  0  0  0  0  0  0  0  0
   69.7052   75.9742   95.3701 C   0  0  0  0  0  0  0  0  0  0  0  0
   68.3381   75.8051   95.2026 C   0  0  0  0  0  0  0  0  0  0  0  0
   67.7812   76.2763   94.0376 C   0  0  0  0  0  0  0  0  0  0  0  0
   68.5924   76.8980   93.0782 C   0  0  0  0  0  0  0  0  0  0  0  0
   66.4474   76.1470   93.8014 O   0  0  0  0  0  0  0  0  0  0  0  0
   65.4836   77.1281   93.9110 C   0  0  0  0  0  0  0  0  0  0  0  0
   65.4310   77.6787   95.3300 C   0  0  0  0  0  0  0  0  0  0  0  0
   64.6579   78.9579   95.1552 C   0  0  0  0  0  0  0  0  0  0  0  0
   64.8081   79.3731   93.7198 C   0  0  0  0  0  0  0  0  0  0  0  0
   65.8437   78.4009   93.1499 C   0  0  0  0  0  0  0  0  0  0  0  0
   70.8158   80.9248   90.1470 C   0  0  0  0  0  0  0  0  0  0  0  0
   71.1278   81.9688   90.9330 O   0  0  0  0  0  0  0  0  0  0  0  0
   69.6356   84.3159   93.2684 C   0  0  0  0  0  0  0  0  0  0  0  0
   70.1500   83.1798   92.7187 C   0  0  0  0  0  0  0  0  0  0  0  0
   70.6427   83.1208   91.3926 C   0  0  0  0  0  0  0  0  0  0  0  0
   70.5954   84.2626   90.6358 C   0  0  0  0  0  0  0  0  0  0  0  0
   70.0786   85.4140   91.1809 C   0  0  0  0  0  0  0  0  0  0  0  0
   69.6002   85.4496   92.4860 C   0  0  0  0  0  0  0  0  0  0  0  0
   69.0890   86.6382   92.9860 O   0  0  0  0  0  0  0  0  0  0  0  0
   69.0694   87.4037   92.4460 H   0  0  0  0  0  0  0  0  0  0  0  0
   69.4847   85.2800   95.4192 O   0  0  0  0  0  0  0  0  0  0  0  0
   69.1248   84.4024   94.6241 C   0  0  0  0  0  0  0  0  0  0  0  0
   68.1986   83.4654   95.0423 O   0  0  0  0  0  0  0  0  0  0  0  0
   67.9140   82.7933   94.4546 H   0  0  0  0  0  0  0  0  0  0  0  0
 29 30  2  0  0  0
 30 31  1  0  0  0
 30 21  1  0  0  0
 21 22  2  0  0  0
 22 23  1  0  0  0
 23 20  1  0  0  0
 20 19  1  0  0  0
 19  1  1  0  0  0
  1  2  2  0  0  0
  2  3  1  0  0  0
  3  4  2  0  0  0
  4  5  1  0  0  0
  5  7  1  0  0  0
  7  8  2  0  0  0
  8  9  1  0  0  0
  9 10  2  0  0  0
 10 11  1  0  0  0
 11 13  1  0  0  0
 13 14  1  0  0  0
 14 15  1  0  0  0
 15 16  1  0  0  0
 16 17  1  0  0  0
 17 18  1  0  0  0
 11 12  2  0  0  0
  5  6  2  0  0  0
 23 24  2  0  0  0
 24 25  1  0  0  0
 25 26  2  0  0  0
 26 27  1  0  0  0
 26 21  1  0  0  0
  6  1  1  0  0  0
 12  7  1  0  0  0
 18 14  1  0  0  0
 31 32  1  0  0  0
 27 28  1  0  0  0
M  END
> <Activity>
13.3

> <minimizedAffinity>
1.78047

> <CNNscore>
0.8800204992

> <CNNaffinity>
5.9841928482

> <CNN_VS>
5.2662124634

$$$$
HIPS7779


 38 40  0  0  0  0  0  0  0  0999 V2000
   69.9101   77.3141   92.9988 C   0  0  0  0  0  0  0  0  0  0  0  0
   68.5661   77.5174   92.9142 N   0  0  0  0  0  0  0  0  0  0  0  0
   67.7169   77.0370   93.8590 C   0  0  0  0  0  0  0  0  0  0  0  0
   68.2206   76.3208   94.9512 C   0  0  0  0  0  0  0  0  0  0  0  0
   69.6023   76.1119   95.0190 C   0  0  0  0  0  0  0  0  0  0  0  0
   70.4129   76.6094   94.0501 N   0  0  0  0  0  0  0  0  0  0  0  0
   71.4691   79.6348   90.4147 C   0  0  0  0  0  0  0  0  0  0  0  0
   72.5330   78.8462   89.9585 C   0  0  0  0  0  0  0  0  0  0  0  0
   72.7581   77.5814   90.5048 C   0  0  0  0  0  0  0  0  0  0  0  0
   71.9115   77.0844   91.4989 C   0  0  0  0  0  0  0  0  0  0  0  0
   70.8162   77.8451   91.9501 C   0  0  0  0  0  0  0  0  0  0  0  0
   70.6003   79.1201   91.3934 C   0  0  0  0  0  0  0  0  0  0  0  0
   71.5932   82.1594   90.5216 C   0  0  0  0  0  0  0  0  0  0  0  0
   72.2728   82.1401   91.5844 O   0  0  0  0  0  0  0  0  0  0  0  0
   71.2610   80.9364   89.8447 N   0  0  0  0  0  0  0  0  0  0  0  0
   70.8702   80.9937   88.9429 H   0  0  0  0  0  0  0  0  0  0  0  0
   71.1263   83.4740   89.9744 C   0  0  0  0  0  0  0  0  0  0  0  0
   71.6761   83.6863   88.5610 C   0  0  0  0  0  0  0  0  0  0  0  0
   72.8207   84.7069   88.5612 C   0  0  0  0  0  0  0  0  0  0  0  0
   72.3614   86.0818   88.0230 C   0  0  0  0  0  0  0  0  0  0  0  0
   70.9828   86.0178   87.3404 C   0  0  0  0  0  0  0  0  0  0  0  0
   69.9686   87.0143   87.9473 C   0  0  0  0  0  0  0  0  0  0  0  0
   69.5310   88.2763   90.1254 C   0  0  0  0  0  0  0  0  0  0  0  0
   70.5591   87.8913   89.0642 C   0  0  0  0  0  0  0  0  0  0  0  0
   67.3089   75.7661   96.0060 C   0  0  0  0  0  0  0  0  0  0  0  0
   66.5916   74.6545   95.4763 O   0  0  0  0  0  0  0  0  0  0  0  0
   67.1289   73.7212   94.5751 C   0  0  0  0  0  0  0  0  0  0  0  0
   66.4433   73.3138   93.4184 C   0  0  0  0  0  0  0  0  0  0  0  0
   67.0090   72.3710   92.5612 C   0  0  0  0  0  0  0  0  0  0  0  0
   68.2608   71.8126   92.8398 C   0  0  0  0  0  0  0  0  0  0  0  0
   68.7346   70.8170   91.9836 O   0  0  0  0  0  0  0  0  0  0  0  0
   68.9799   72.2430   93.9818 C   0  0  0  0  0  0  0  0  0  0  0  0
   68.3921   73.1841   94.8443 C   0  0  0  0  0  0  0  0  0  0  0  0
   68.2284   70.5604   91.2380 H   0  0  0  0  0  0  0  0  0  0  0  0
   70.3418   71.7595   94.2927 C   0  0  0  0  0  0  0  0  0  0  0  0
   70.5669   71.1097   95.3487 O   0  0  0  0  0  0  0  0  0  0  0  0
   71.3784   71.9821   93.3907 O   0  0  0  0  0  0  0  0  0  0  0  0
   71.2188   72.4642   92.6033 H   0  0  0  0  0  0  0  0  0  0  0  0
 23 24  1  0  0  0
 24 22  1  0  0  0
 22 21  1  0  0  0
 21 20  1  0  0  0
 20 19  1  0  0  0
 19 18  1  0  0  0
 18 17  1  0  0  0
 17 13  1  0  0  0
 13 14  2  0  0  0
 13 15  1  0  0  0
 15  7  1  0  0  0
  7  8  2  0  0  0
  8  9  1  0  0  0
  9 10  2  0  0  0
 10 11  1  0  0  0
 11  1  1  0  0  0
  1  2  2  0  0  0
  2  3  2  0  0  0
  3  4  2  0  0  0
  4 25  1  0  0  0
 25 26  1  0  0  0
 26 27  1  0  0  0
 27 28  2  0  0  0
 28 29  1  0  0  0
 29 30  2  0  0  0
 30 31  1  0  0  0
 30 32  1  0  0  0
 32 35  1  0  0  0
 35 36  2  0  0  0
 35 37  1  0  0  0
 32 33  2  0  0  0
  4  5  1  0  0  0
  5  6  2  0  0  0
 11 12  2  0  0  0
 12  7  1  0  0  0
  6  1  2  0  0  0
 33 27  1  0  0  0
 15 16  1  0  0  0
 31 34  1  0  0  0
 37 38  1  0  0  0
M  END
> <Activity>
14.3

> <minimizedAffinity>
-2.93965

> <CNNscore>
0.7939247489

> <CNNaffinity>
6.3547058105

> <CNN_VS>
5.0451583862

$$$$
HIPS7779


 38 40  0  0  0  0  0  0  0  0999 V2000
   67.7806   75.6994   94.4280 C   0  0  0  0  0  0  0  0  0  0  0  0
   68.9967   75.7599   95.0381 N   0  0  0  0  0  0  0  0  0  0  0  0
   69.7584   74.6487   95.2098 C   0  0  0  0  0  0  0  0  0  0  0  0
   69.2985   73.4091   94.7498 C   0  0  0  0  0  0  0  0  0  0  0  0
   68.0433   73.3614   94.1339 C   0  0  0  0  0  0  0  0  0  0  0  0
   67.3158   74.4981   93.9856 N   0  0  0  0  0  0  0  0  0  0  0  0
   66.7730   79.3670   94.2632 C   0  0  0  0  0  0  0  0  0  0  0  0
   65.4152   79.2540   93.9383 C   0  0  0  0  0  0  0  0  0  0  0  0
   64.8378   77.9973   93.7483 C   0  0  0  0  0  0  0  0  0  0  0  0
   65.6067   76.8405   93.8991 C   0  0  0  0  0  0  0  0  0  0  0  0
   66.9653   76.9277   94.2575 C   0  0  0  0  0  0  0  0  0  0  0  0
   67.5373   78.2005   94.4445 C   0  0  0  0  0  0  0  0  0  0  0  0
   67.3552   81.3630   95.7044 C   0  0  0  0  0  0  0  0  0  0  0  0
   67.0239   80.7678   96.7663 O   0  0  0  0  0  0  0  0  0  0  0  0
   67.3484   80.6700   94.4459 N   0  0  0  0  0  0  0  0  0  0  0  0
   67.7598   81.1114   93.6680 H   0  0  0  0  0  0  0  0  0  0  0  0
   67.7487   82.8076   95.7666 C   0  0  0  0  0  0  0  0  0  0  0  0
   67.8222   83.3992   94.3560 C   0  0  0  0  0  0  0  0  0  0  0  0
   68.6697   84.6771   94.3365 C   0  0  0  0  0  0  0  0  0  0  0  0
   69.6621   84.6875   93.1507 C   0  0  0  0  0  0  0  0  0  0  0  0
   70.6279   83.4888   93.1790 C   0  0  0  0  0  0  0  0  0  0  0  0
   70.4700   82.5649   91.9496 C   0  0  0  0  0  0  0  0  0  0  0  0
   71.1804   82.0544   89.5490 C   0  0  0  0  0  0  0  0  0  0  0  0
   71.2954   83.0131   90.7318 C   0  0  0  0  0  0  0  0  0  0  0  0
   70.1097   72.1603   94.9344 C   0  0  0  0  0  0  0  0  0  0  0  0
   69.9424   71.3140   93.8001 O   0  0  0  0  0  0  0  0  0  0  0  0
   70.9907   70.6421   93.1510 C   0  0  0  0  0  0  0  0  0  0  0  0
   70.7613   69.6634   92.1696 C   0  0  0  0  0  0  0  0  0  0  0  0
   71.8338   69.0099   91.5642 C   0  0  0  0  0  0  0  0  0  0  0  0
   73.1507   69.3120   91.9261 C   0  0  0  0  0  0  0  0  0  0  0  0
   74.1745   68.5662   91.3392 O   0  0  0  0  0  0  0  0  0  0  0  0
   73.3974   70.3240   92.8860 C   0  0  0  0  0  0  0  0  0  0  0  0
   72.3067   70.9654   93.4979 C   0  0  0  0  0  0  0  0  0  0  0  0
   73.9696   67.9050   90.7077 H   0  0  0  0  0  0  0  0  0  0  0  0
   74.7627   70.7541   93.2550 C   0  0  0  0  0  0  0  0  0  0  0  0
   75.0415   71.0529   94.4472 O   0  0  0  0  0  0  0  0  0  0  0  0
   75.7636   70.7863   92.2883 O   0  0  0  0  0  0  0  0  0  0  0  0
   75.5641   70.5655   91.3998 H   0  0  0  0  0  0  0  0  0  0  0  0
 23 24  1  0  0  0
 24 22  1  0  0  0
 22 21  1  0  0  0
 21 20  1  0  0  0
 20 19  1  0  0  0
 19 18  1  0  0  0
 18 17  1  0  0  0
 17 13  1  0  0  0
 13 14  2  0  0  0
 13 15  1  0  0  0
 15  7  1  0  0  0
  7  8  2  0  0  0
  8  9  1  0  0  0
  9 10  2  0  0  0
 10 11  1  0  0  0
 11  1  1  0  0  0
  1  2  2  0  0  0
  2  3  2  0  0  0
  3  4  2  0  0  0
  4 25  1  0  0  0
 25 26  1  0  0  0
 26 27  1  0  0  0
 27 28  2  0  0  0
 28 29  1  0  0  0
 29 30  2  0  0  0
 30 31  1  0  0  0
 30 32  1  0  0  0
 32 35  1  0  0  0
 35 36  2  0  0  0
 35 37  1  0  0  0
 32 33  2  0  0  0
  4  5  1  0  0  0
  5  6  2  0  0  0
 11 12  2  0  0  0
 12  7  1  0  0  0
  6  1  2  0  0  0
 33 27  1  0  0  0
 15 16  1  0  0  0
 31 34  1  0  0  0
 37 38  1  0  0  0
M  END
> <Activity>
14.3

> <minimizedAffinity>
-4.09753

> <CNNscore>
0.7919405699

> <CNNaffinity>
6.2828989029

> <CNN_VS>
4.9756827354

$$$$
HIPS7779


 38 40  0  0  0  0  0  0  0  0999 V2000
   69.0303   77.5362   93.1046 C   0  0  0  0  0  0  0  0  0  0  0  0
   67.7491   77.8176   92.7379 N   0  0  0  0  0  0  0  0  0  0  0  0
   66.6931   77.4182   93.4926 C   0  0  0  0  0  0  0  0  0  0  0  0
   66.9116   76.7062   94.6779 C   0  0  0  0  0  0  0  0  0  0  0  0
   68.2326   76.4164   95.0362 C   0  0  0  0  0  0  0  0  0  0  0  0
   69.2571   76.8345   94.2496 N   0  0  0  0  0  0  0  0  0  0  0  0
   71.1555   79.5887   90.7036 C   0  0  0  0  0  0  0  0  0  0  0  0
   72.3214   78.8140   90.6539 C   0  0  0  0  0  0  0  0  0  0  0  0
   72.4265   77.6483   91.4147 C   0  0  0  0  0  0  0  0  0  0  0  0
   71.3608   77.2351   92.2183 C   0  0  0  0  0  0  0  0  0  0  0  0
   70.1667   77.9795   92.2592 C   0  0  0  0  0  0  0  0  0  0  0  0
   70.0730   79.1545   91.4894 C   0  0  0  0  0  0  0  0  0  0  0  0
   71.5797   82.0588   90.3591 C   0  0  0  0  0  0  0  0  0  0  0  0
   72.3063   82.1380   91.3874 O   0  0  0  0  0  0  0  0  0  0  0  0
   71.0720   80.7887   89.9193 N   0  0  0  0  0  0  0  0  0  0  0  0
   70.6446   80.7385   89.0339 H   0  0  0  0  0  0  0  0  0  0  0  0
   71.2422   83.3076   89.6027 C   0  0  0  0  0  0  0  0  0  0  0  0
   72.5048   83.9067   88.9764 C   0  0  0  0  0  0  0  0  0  0  0  0
   72.2866   84.2272   87.4927 C   0  0  0  0  0  0  0  0  0  0  0  0
   71.4703   85.5265   87.3020 C   0  0  0  0  0  0  0  0  0  0  0  0
   71.6872   86.5331   88.4466 C   0  0  0  0  0  0  0  0  0  0  0  0
   73.1765   86.8938   88.6511 C   0  0  0  0  0  0  0  0  0  0  0  0
   74.3351   88.9109   87.5942 C   0  0  0  0  0  0  0  0  0  0  0  0
   73.4398   88.4073   88.7238 C   0  0  0  0  0  0  0  0  0  0  0  0
   65.7668   76.2398   95.5284 C   0  0  0  0  0  0  0  0  0  0  0  0
   66.0369   74.9253   96.0080 O   0  0  0  0  0  0  0  0  0  0  0  0
   67.0213   74.0752   95.4787 C   0  0  0  0  0  0  0  0  0  0  0  0
   68.2265   73.8121   96.1510 C   0  0  0  0  0  0  0  0  0  0  0  0
   69.1826   72.9745   95.5784 C   0  0  0  0  0  0  0  0  0  0  0  0
   68.9620   72.3889   94.3274 C   0  0  0  0  0  0  0  0  0  0  0  0
   69.9917   71.6247   93.7757 O   0  0  0  0  0  0  0  0  0  0  0  0
   67.7351   72.6146   93.6564 C   0  0  0  0  0  0  0  0  0  0  0  0
   66.7856   73.4715   94.2390 C   0  0  0  0  0  0  0  0  0  0  0  0
   70.7887   71.4989   94.2520 H   0  0  0  0  0  0  0  0  0  0  0  0
   67.3990   71.9625   92.3731 C   0  0  0  0  0  0  0  0  0  0  0  0
   66.3853   72.3219   91.7164 O   0  0  0  0  0  0  0  0  0  0  0  0
   68.2332   70.9736   91.8594 O   0  0  0  0  0  0  0  0  0  0  0  0
   68.9888   70.7010   92.3418 H   0  0  0  0  0  0  0  0  0  0  0  0
 23 24  1  0  0  0
 24 22  1  0  0  0
 22 21  1  0  0  0
 21 20  1  0  0  0
 20 19  1  0  0  0
 19 18  1  0  0  0
 18 17  1  0  0  0
 17 13  1  0  0  0
 13 14  2  0  0  0
 13 15  1  0  0  0
 15  7  1  0  0  0
  7  8  2  0  0  0
  8  9  1  0  0  0
  9 10  2  0  0  0
 10 11  1  0  0  0
 11  1  1  0  0  0
  1  2  2  0  0  0
  2  3  2  0  0  0
  3  4  2  0  0  0
  4 25  1  0  0  0
 25 26  1  0  0  0
 26 27  1  0  0  0
 27 28  2  0  0  0
 28 29  1  0  0  0
 29 30  2  0  0  0
 30 31  1  0  0  0
 30 32  1  0  0  0
 32 35  1  0  0  0
 35 36  2  0  0  0
 35 37  1  0  0  0
 32 33  2  0  0  0
  4  5  1  0  0  0
  5  6  2  0  0  0
 11 12  2  0  0  0
 12  7  1  0  0  0
  6  1  2  0  0  0
 33 27  1  0  0  0
 15 16  1  0  0  0
 31 34  1  0  0  0
 37 38  1  0  0  0
M  END
> <Activity>
14.3

> <minimizedAffinity>
-1.16214

> <CNNscore>
0.7574313283

> <CNNaffinity>
6.1261339188

> <CNN_VS>
4.6401257515

$$$$
HIPS7004


 34 37  0  0  0  0  0  0  0  0999 V2000
   66.7105   77.1013   94.7324 C   0  0  0  0  0  0  0  0  0  0  0  0
   65.7892   77.0670   93.6755 C   0  0  0  0  0  0  0  0  0  0  0  0
   65.3138   78.2552   93.1180 C   0  0  0  0  0  0  0  0  0  0  0  0
   65.7617   79.4855   93.5998 C   0  0  0  0  0  0  0  0  0  0  0  0
   66.7069   79.5420   94.6389 C   0  0  0  0  0  0  0  0  0  0  0  0
   67.1692   78.3402   95.2080 C   0  0  0  0  0  0  0  0  0  0  0  0
   67.1879   80.8562   95.1281 C   0  0  0  0  0  0  0  0  0  0  0  0
   67.0563   81.2298   96.4762 C   0  0  0  0  0  0  0  0  0  0  0  0
   67.5468   82.4652   96.8963 C   0  0  0  0  0  0  0  0  0  0  0  0
   68.1595   83.3219   95.9816 C   0  0  0  0  0  0  0  0  0  0  0  0
   68.2646   82.9330   94.6354 C   0  0  0  0  0  0  0  0  0  0  0  0
   67.7878   81.7160   94.2572 N   0  0  0  0  0  0  0  0  0  0  0  0
   68.8429   83.7555   93.6558 O   0  0  0  0  0  0  0  0  0  0  0  0
   70.2429   83.8788   93.4024 C   0  0  0  0  0  0  0  0  0  0  0  0
   70.5943   83.3515   92.0350 C   0  0  0  0  0  0  0  0  0  0  0  0
   70.7521   81.9702   91.8284 C   0  0  0  0  0  0  0  0  0  0  0  0
   71.0876   81.4812   90.5618 C   0  0  0  0  0  0  0  0  0  0  0  0
   71.2779   82.3667   89.4978 C   0  0  0  0  0  0  0  0  0  0  0  0
   71.1351   83.7425   89.6969 C   0  0  0  0  0  0  0  0  0  0  0  0
   70.7990   84.2358   90.9614 C   0  0  0  0  0  0  0  0  0  0  0  0
   67.1991   75.8295   95.3724 C   0  0  0  0  0  0  0  0  0  0  0  0
   68.3100   75.3010   94.6459 O   0  0  0  0  0  0  0  0  0  0  0  0
   69.7119   71.9190   94.0239 C   0  0  0  0  0  0  0  0  0  0  0  0
   69.5419   73.2393   94.4895 C   0  0  0  0  0  0  0  0  0  0  0  0
   68.4112   73.9905   94.1478 C   0  0  0  0  0  0  0  0  0  0  0  0
   67.4337   73.4160   93.3183 C   0  0  0  0  0  0  0  0  0  0  0  0
   67.5881   72.1124   92.8465 C   0  0  0  0  0  0  0  0  0  0  0  0
   68.7166   71.3580   93.1911 C   0  0  0  0  0  0  0  0  0  0  0  0
   68.8434   70.0570   92.7018 O   0  0  0  0  0  0  0  0  0  0  0  0
   68.1767   69.6967   92.1507 H   0  0  0  0  0  0  0  0  0  0  0  0
   70.8194   69.9929   94.8929 O   0  0  0  0  0  0  0  0  0  0  0  0
   70.9267   71.1543   94.4129 C   0  0  0  0  0  0  0  0  0  0  0  0
   72.1973   71.7011   94.2540 O   0  0  0  0  0  0  0  0  0  0  0  0
   72.2955   72.5627   93.8990 H   0  0  0  0  0  0  0  0  0  0  0  0
 31 32  2  0  0  0
 32 33  1  0  0  0
 32 23  1  0  0  0
 23 24  2  0  0  0
 24 25  1  0  0  0
 25 22  1  0  0  0
 22 21  1  0  0  0
 21  1  1  0  0  0
  1  2  2  0  0  0
  2  3  1  0  0  0
  3  4  2  0  0  0
  4  5  1  0  0  0
  5  7  1  0  0  0
  7  8  2  0  0  0
  8  9  1  0  0  0
  9 10  2  0  0  0
 10 11  1  0  0  0
 11 13  1  0  0  0
 13 14  1  0  0  0
 14 15  1  0  0  0
 15 16  2  0  0  0
 16 17  1  0  0  0
 17 18  2  0  0  0
 18 19  1  0  0  0
 19 20  2  0  0  0
 11 12  2  0  0  0
  5  6  2  0  0  0
 25 26  2  0  0  0
 26 27  1  0  0  0
 27 28  2  0  0  0
 28 29  1  0  0  0
 28 23  1  0  0  0
  6  1  1  0  0  0
 12  7  2  0  0  0
 20 15  1  0  0  0
 33 34  1  0  0  0
 29 30  1  0  0  0
M  END
> <Activity>
16.3

> <minimizedAffinity>
2.40273

> <CNNscore>
0.8615262508

> <CNNaffinity>
5.9095983505

> <CNN_VS>
5.0912742615

$$$$
HIPS7004


 34 37  0  0  0  0  0  0  0  0999 V2000
   65.7812   78.3315   94.8975 C   0  0  0  0  0  0  0  0  0  0  0  0
   66.4453   77.8194   93.7733 C   0  0  0  0  0  0  0  0  0  0  0  0
   67.4342   78.5719   93.1373 C   0  0  0  0  0  0  0  0  0  0  0  0
   67.7782   79.8336   93.6235 C   0  0  0  0  0  0  0  0  0  0  0  0
   67.1454   80.3532   94.7661 C   0  0  0  0  0  0  0  0  0  0  0  0
   66.1370   79.5964   95.3925 C   0  0  0  0  0  0  0  0  0  0  0  0
   67.5343   81.6874   95.2825 C   0  0  0  0  0  0  0  0  0  0  0  0
   67.1410   82.1228   96.5593 C   0  0  0  0  0  0  0  0  0  0  0  0
   67.5522   83.3750   97.0134 C   0  0  0  0  0  0  0  0  0  0  0  0
   68.3445   84.1874   96.2021 C   0  0  0  0  0  0  0  0  0  0  0  0
   68.7113   83.7369   94.9226 C   0  0  0  0  0  0  0  0  0  0  0  0
   68.3055   82.5049   94.5114 N   0  0  0  0  0  0  0  0  0  0  0  0
   69.4825   84.5122   94.0425 O   0  0  0  0  0  0  0  0  0  0  0  0
   69.1954   84.7232   92.6596 C   0  0  0  0  0  0  0  0  0  0  0  0
   70.2016   84.0214   91.7842 C   0  0  0  0  0  0  0  0  0  0  0  0
   70.6826   84.6443   90.6197 C   0  0  0  0  0  0  0  0  0  0  0  0
   71.6091   83.9894   89.8019 C   0  0  0  0  0  0  0  0  0  0  0  0
   72.0526   82.7069   90.1349 C   0  0  0  0  0  0  0  0  0  0  0  0
   71.5706   82.0750   91.2843 C   0  0  0  0  0  0  0  0  0  0  0  0
   70.6446   82.7264   92.1053 C   0  0  0  0  0  0  0  0  0  0  0  0
   64.6828   77.5504   95.5677 C   0  0  0  0  0  0  0  0  0  0  0  0
   65.1953   76.3289   96.1032 O   0  0  0  0  0  0  0  0  0  0  0  0
   67.9073   74.0835   94.9226 C   0  0  0  0  0  0  0  0  0  0  0  0
   67.1945   75.0768   95.6256 C   0  0  0  0  0  0  0  0  0  0  0  0
   65.8409   75.3212   95.3659 C   0  0  0  0  0  0  0  0  0  0  0  0
   65.1867   74.5650   94.3792 C   0  0  0  0  0  0  0  0  0  0  0  0
   65.8779   73.5809   93.6724 C   0  0  0  0  0  0  0  0  0  0  0  0
   67.2310   73.3321   93.9342 C   0  0  0  0  0  0  0  0  0  0  0  0
   67.8957   72.3421   93.2090 O   0  0  0  0  0  0  0  0  0  0  0  0
   67.4362   71.8511   92.5565 H   0  0  0  0  0  0  0  0  0  0  0  0
   70.1741   74.7975   95.1299 O   0  0  0  0  0  0  0  0  0  0  0  0
   69.3437   73.8537   95.2315 C   0  0  0  0  0  0  0  0  0  0  0  0
   69.7963   72.6012   95.6381 O   0  0  0  0  0  0  0  0  0  0  0  0
   69.1931   71.8887   95.7189 H   0  0  0  0  0  0  0  0  0  0  0  0
 31 32  2  0  0  0
 32 33  1  0  0  0
 32 23  1  0  0  0
 23 24  2  0  0  0
 24 25  1  0  0  0
 25 22  1  0  0  0
 22 21  1  0  0  0
 21  1  1  0  0  0
  1  2  2  0  0  0
  2  3  1  0  0  0
  3  4  2  0  0  0
  4  5  1  0  0  0
  5  7  1  0  0  0
  7  8  2  0  0  0
  8  9  1  0  0  0
  9 10  2  0  0  0
 10 11  1  0  0  0
 11 13  1  0  0  0
 13 14  1  0  0  0
 14 15  1  0  0  0
 15 16  2  0  0  0
 16 17  1  0  0  0
 17 18  2  0  0  0
 18 19  1  0  0  0
 19 20  2  0  0  0
 11 12  2  0  0  0
  5  6  2  0  0  0
 25 26  2  0  0  0
 26 27  1  0  0  0
 27 28  2  0  0  0
 28 29  1  0  0  0
 28 23  1  0  0  0
  6  1  1  0  0  0
 12  7  2  0  0  0
 20 15  1  0  0  0
 33 34  1  0  0  0
 29 30  1  0  0  0
M  END
> <Activity>
16.3

> <minimizedAffinity>
0.80482

> <CNNscore>
0.8535302281

> <CNNaffinity>
6.2212438583

> <CNN_VS>
5.3100194931

$$$$
HIPS7004


 34 37  0  0  0  0  0  0  0  0999 V2000
   71.5287   77.7073   91.8751 C   0  0  0  0  0  0  0  0  0  0  0  0
   72.2138   77.0490   90.8435 C   0  0  0  0  0  0  0  0  0  0  0  0
   72.6282   77.7544   89.7124 C   0  0  0  0  0  0  0  0  0  0  0  0
   72.3751   79.1222   89.6060 C   0  0  0  0  0  0  0  0  0  0  0  0
   71.7157   79.8070   90.6415 C   0  0  0  0  0  0  0  0  0  0  0  0
   71.2853   79.0863   91.7717 C   0  0  0  0  0  0  0  0  0  0  0  0
   71.4702   81.2643   90.5230 C   0  0  0  0  0  0  0  0  0  0  0  0
   70.8023   81.9798   91.5313 C   0  0  0  0  0  0  0  0  0  0  0  0
   70.6169   83.3540   91.3886 C   0  0  0  0  0  0  0  0  0  0  0  0
   71.0890   84.0089   90.2509 C   0  0  0  0  0  0  0  0  0  0  0  0
   71.7392   83.2690   89.2487 C   0  0  0  0  0  0  0  0  0  0  0  0
   71.9168   81.9311   89.4215 N   0  0  0  0  0  0  0  0  0  0  0  0
   72.2145   83.8567   88.0659 O   0  0  0  0  0  0  0  0  0  0  0  0
   71.4984   84.7984   87.2660 C   0  0  0  0  0  0  0  0  0  0  0  0
   71.5600   86.1785   87.8684 C   0  0  0  0  0  0  0  0  0  0  0  0
   72.8017   86.7974   88.0933 C   0  0  0  0  0  0  0  0  0  0  0  0
   72.8597   88.0742   88.6612 C   0  0  0  0  0  0  0  0  0  0  0  0
   71.6816   88.7357   89.0173 C   0  0  0  0  0  0  0  0  0  0  0  0
   70.4431   88.1229   88.8085 C   0  0  0  0  0  0  0  0  0  0  0  0
   70.3804   86.8467   88.2403 C   0  0  0  0  0  0  0  0  0  0  0  0
   71.0376   76.9517   93.0808 C   0  0  0  0  0  0  0  0  0  0  0  0
   69.7902   77.4851   93.5290 O   0  0  0  0  0  0  0  0  0  0  0  0
   67.7230   74.7813   95.0143 C   0  0  0  0  0  0  0  0  0  0  0  0
   68.8204   75.5874   94.6475 C   0  0  0  0  0  0  0  0  0  0  0  0
   68.6506   76.7310   93.8583 C   0  0  0  0  0  0  0  0  0  0  0  0
   67.3608   77.0734   93.4193 C   0  0  0  0  0  0  0  0  0  0  0  0
   66.2649   76.2850   93.7705 C   0  0  0  0  0  0  0  0  0  0  0  0
   66.4326   75.1430   94.5636 C   0  0  0  0  0  0  0  0  0  0  0  0
   65.3169   74.3735   94.8967 O   0  0  0  0  0  0  0  0  0  0  0  0
   64.4671   74.6239   94.5918 H   0  0  0  0  0  0  0  0  0  0  0  0
   67.0557   73.1897   96.6614 O   0  0  0  0  0  0  0  0  0  0  0  0
   67.9466   73.5762   95.8566 C   0  0  0  0  0  0  0  0  0  0  0  0
   69.1348   72.8551   95.7722 O   0  0  0  0  0  0  0  0  0  0  0  0
   69.8074   73.1281   95.1797 H   0  0  0  0  0  0  0  0  0  0  0  0
 31 32  2  0  0  0
 32 33  1  0  0  0
 32 23  1  0  0  0
 23 24  2  0  0  0
 24 25  1  0  0  0
 25 22  1  0  0  0
 22 21  1  0  0  0
 21  1  1  0  0  0
  1  2  2  0  0  0
  2  3  1  0  0  0
  3  4  2  0  0  0
  4  5  1  0  0  0
  5  7  1  0  0  0
  7  8  2  0  0  0
  8  9  1  0  0  0
  9 10  2  0  0  0
 10 11  1  0  0  0
 11 13  1  0  0  0
 13 14  1  0  0  0
 14 15  1  0  0  0
 15 16  2  0  0  0
 16 17  1  0  0  0
 17 18  2  0  0  0
 18 19  1  0  0  0
 19 20  2  0  0  0
 11 12  2  0  0  0
  5  6  2  0  0  0
 25 26  2  0  0  0
 26 27  1  0  0  0
 27 28  2  0  0  0
 28 29  1  0  0  0
 28 23  1  0  0  0
  6  1  1  0  0  0
 12  7  2  0  0  0
 20 15  1  0  0  0
 33 34  1  0  0  0
 29 30  1  0  0  0
M  END
> <Activity>
16.3

> <minimizedAffinity>
-6.05412

> <CNNscore>
0.8371219039

> <CNNaffinity>
6.0434961319

> <CNN_VS>
5.0591430664

$$$$
HIPS7790


 38 41  0  0  0  0  0  0  0  0999 V2000
   70.0694   77.5670   92.7093 C   0  0  0  0  0  0  0  0  0  0  0  0
   70.6717   76.8250   93.6788 N   0  0  0  0  0  0  0  0  0  0  0  0
   69.9528   76.2448   94.6738 C   0  0  0  0  0  0  0  0  0  0  0  0
   68.5627   76.3975   94.7138 C   0  0  0  0  0  0  0  0  0  0  0  0
   67.9607   77.1758   93.7197 C   0  0  0  0  0  0  0  0  0  0  0  0
   68.7189   77.7366   92.7435 N   0  0  0  0  0  0  0  0  0  0  0  0
   71.3664   80.1048   90.1893 C   0  0  0  0  0  0  0  0  0  0  0  0
   72.4157   79.3847   89.6042 C   0  0  0  0  0  0  0  0  0  0  0  0
   72.7083   78.0901   90.0346 C   0  0  0  0  0  0  0  0  0  0  0  0
   71.9498   77.4977   91.0464 C   0  0  0  0  0  0  0  0  0  0  0  0
   70.8767   78.1932   91.6332 C   0  0  0  0  0  0  0  0  0  0  0  0
   70.5838   79.4952   91.1837 C   0  0  0  0  0  0  0  0  0  0  0  0
   71.0844   81.4340   89.7308 N   0  0  0  0  0  0  0  0  0  0  0  0
   70.5122   81.5466   88.9376 H   0  0  0  0  0  0  0  0  0  0  0  0
   71.7074   82.8534   90.5129 S   0  0  0  0  0  0  0  0  0  0  0  0
   70.9890   83.0255   91.8217 O   0  0  0  0  0  0  0  0  0  0  0  0
   73.1728   82.7137   90.8103 O   0  0  0  0  0  0  0  0  0  0  0  0
   69.9707   87.6892   88.2325 C   0  0  0  0  0  0  0  0  0  0  0  0
   70.6451   86.4040   88.5710 C   0  0  0  0  0  0  0  0  0  0  0  0
   71.4277   85.7233   87.7059 N   0  0  0  0  0  0  0  0  0  0  0  0
   71.8719   84.5480   88.2293 C   0  0  0  0  0  0  0  0  0  0  0  0
   72.7130   83.6206   87.4112 C   0  0  0  0  0  0  0  0  0  0  0  0
   71.4039   84.2769   89.5206 C   0  0  0  0  0  0  0  0  0  0  0  0
   70.4254   85.5566   90.0048 S   0  0  0  0  0  0  0  0  0  0  0  0
   67.7405   75.7752   95.8103 C   0  0  0  0  0  0  0  0  0  0  0  0
   67.0297   74.6339   95.3287 O   0  0  0  0  0  0  0  0  0  0  0  0
   67.5783   73.6043   94.5462 C   0  0  0  0  0  0  0  0  0  0  0  0
   66.8433   73.1496   93.4495 C   0  0  0  0  0  0  0  0  0  0  0  0
   67.3421   72.1352   92.6333 C   0  0  0  0  0  0  0  0  0  0  0  0
   68.5893   71.5552   92.9007 C   0  0  0  0  0  0  0  0  0  0  0  0
   69.0669   70.5467   92.0639 O   0  0  0  0  0  0  0  0  0  0  0  0
   69.3479   71.9965   94.0094 C   0  0  0  0  0  0  0  0  0  0  0  0
   68.8284   73.0200   94.8256 C   0  0  0  0  0  0  0  0  0  0  0  0
   68.5546   70.2631   91.3324 H   0  0  0  0  0  0  0  0  0  0  0  0
   70.6747   71.4118   94.3352 C   0  0  0  0  0  0  0  0  0  0  0  0
   71.6951   71.7008   93.6541 O   0  0  0  0  0  0  0  0  0  0  0  0
   70.8062   70.5311   95.4062 O   0  0  0  0  0  0  0  0  0  0  0  0
   70.0572   70.3061   95.9224 H   0  0  0  0  0  0  0  0  0  0  0  0
 18 19  1  0  0  0
 19 20  2  0  0  0
 20 21  2  0  0  0
 21 22  1  0  0  0
 21 23  2  0  0  0
 23 15  1  0  0  0
 15 16  2  0  0  0
 15 17  2  0  0  0
 15 13  1  0  0  0
 13  7  1  0  0  0
  7  8  2  0  0  0
  8  9  1  0  0  0
  9 10  2  0  0  0
 10 11  1  0  0  0
 11  1  1  0  0  0
  1  2  2  0  0  0
  2  3  2  0  0  0
  3  4  2  0  0  0
  4 25  1  0  0  0
 25 26  1  0  0  0
 26 27  1  0  0  0
 27 28  2  0  0  0
 28 29  1  0  0  0
 29 30  2  0  0  0
 30 31  1  0  0  0
 30 32  1  0  0  0
 32 35  1  0  0  0
 35 36  2  0  0  0
 35 37  1  0  0  0
 32 33  2  0  0  0
  4  5  1  0  0  0
  5  6  2  0  0  0
 11 12  2  0  0  0
 23 24  1  0  0  0
 24 19  1  0  0  0
 12  7  1  0  0  0
  6  1  2  0  0  0
 33 27  1  0  0  0
 13 14  1  0  0  0
 31 34  1  0  0  0
 37 38  1  0  0  0
M  END
> <Activity>
16.6

> <minimizedAffinity>
-0.06632

> <CNNscore>
0.8195299506

> <CNNaffinity>
6.3893527985

> <CNN_VS>
5.2362661362

$$$$
HIPS7790


 38 41  0  0  0  0  0  0  0  0999 V2000
   70.2032   77.2892   92.8644 C   0  0  0  0  0  0  0  0  0  0  0  0
   70.8703   76.6270   93.8491 N   0  0  0  0  0  0  0  0  0  0  0  0
   70.2063   75.9874   94.8459 C   0  0  0  0  0  0  0  0  0  0  0  0
   68.8075   75.9941   94.8720 C   0  0  0  0  0  0  0  0  0  0  0  0
   68.1372   76.6921   93.8621 C   0  0  0  0  0  0  0  0  0  0  0  0
   68.8422   77.3168   92.8847 N   0  0  0  0  0  0  0  0  0  0  0  0
   71.3018   79.9488   90.3758 C   0  0  0  0  0  0  0  0  0  0  0  0
   72.3776   79.3019   89.7544 C   0  0  0  0  0  0  0  0  0  0  0  0
   72.7518   78.0174   90.1504 C   0  0  0  0  0  0  0  0  0  0  0  0
   72.0494   77.3619   91.1636 C   0  0  0  0  0  0  0  0  0  0  0  0
   70.9512   77.9827   91.7866 C   0  0  0  0  0  0  0  0  0  0  0  0
   70.5758   79.2750   91.3718 C   0  0  0  0  0  0  0  0  0  0  0  0
   70.9356   81.2691   89.9524 N   0  0  0  0  0  0  0  0  0  0  0  0
   70.3326   81.3652   89.1802 H   0  0  0  0  0  0  0  0  0  0  0  0
   71.5087   82.7054   90.7415 S   0  0  0  0  0  0  0  0  0  0  0  0
   70.5903   83.0115   91.8910 O   0  0  0  0  0  0  0  0  0  0  0  0
   72.8892   82.5078   91.2991 O   0  0  0  0  0  0  0  0  0  0  0  0
   72.2962   86.4551   86.6279 C   0  0  0  0  0  0  0  0  0  0  0  0
   71.8266   85.6652   87.8013 C   0  0  0  0  0  0  0  0  0  0  0  0
   70.9575   86.1406   88.7193 N   0  0  0  0  0  0  0  0  0  0  0  0
   70.7385   85.2537   89.7283 C   0  0  0  0  0  0  0  0  0  0  0  0
   69.8450   85.6097   90.8735 C   0  0  0  0  0  0  0  0  0  0  0  0
   71.4747   84.0674   89.6248 C   0  0  0  0  0  0  0  0  0  0  0  0
   72.4032   84.1452   88.2243 S   0  0  0  0  0  0  0  0  0  0  0  0
   68.0441   75.3032   95.9700 C   0  0  0  0  0  0  0  0  0  0  0  0
   67.8177   73.9306   95.6469 O   0  0  0  0  0  0  0  0  0  0  0  0
   68.8050   72.9324   95.5991 C   0  0  0  0  0  0  0  0  0  0  0  0
   69.1480   72.2898   96.7904 C   0  0  0  0  0  0  0  0  0  0  0  0
   70.1158   71.2861   96.8011 C   0  0  0  0  0  0  0  0  0  0  0  0
   70.7601   70.9062   95.6163 C   0  0  0  0  0  0  0  0  0  0  0  0
   71.7196   69.8946   95.6549 O   0  0  0  0  0  0  0  0  0  0  0  0
   70.4321   71.5475   94.3995 C   0  0  0  0  0  0  0  0  0  0  0  0
   69.4546   72.5614   94.4064 C   0  0  0  0  0  0  0  0  0  0  0  0
   71.9281   69.4774   96.4676 H   0  0  0  0  0  0  0  0  0  0  0  0
   71.0886   71.1813   93.1176 C   0  0  0  0  0  0  0  0  0  0  0  0
   72.2237   71.6394   92.8168 O   0  0  0  0  0  0  0  0  0  0  0  0
   70.4516   70.3201   92.2274 O   0  0  0  0  0  0  0  0  0  0  0  0
   69.6075   69.9709   92.4362 H   0  0  0  0  0  0  0  0  0  0  0  0
 18 19  1  0  0  0
 19 20  2  0  0  0
 20 21  2  0  0  0
 21 22  1  0  0  0
 21 23  2  0  0  0
 23 15  1  0  0  0
 15 16  2  0  0  0
 15 17  2  0  0  0
 15 13  1  0  0  0
 13  7  1  0  0  0
  7  8  2  0  0  0
  8  9  1  0  0  0
  9 10  2  0  0  0
 10 11  1  0  0  0
 11  1  1  0  0  0
  1  2  2  0  0  0
  2  3  2  0  0  0
  3  4  2  0  0  0
  4 25  1  0  0  0
 25 26  1  0  0  0
 26 27  1  0  0  0
 27 28  2  0  0  0
 28 29  1  0  0  0
 29 30  2  0  0  0
 30 31  1  0  0  0
 30 32  1  0  0  0
 32 35  1  0  0  0
 35 36  2  0  0  0
 35 37  1  0  0  0
 32 33  2  0  0  0
  4  5  1  0  0  0
  5  6  2  0  0  0
 11 12  2  0  0  0
 23 24  1  0  0  0
 24 19  1  0  0  0
 12  7  1  0  0  0
  6  1  2  0  0  0
 33 27  1  0  0  0
 13 14  1  0  0  0
 31 34  1  0  0  0
 37 38  1  0  0  0
M  END
> <Activity>
16.6

> <minimizedAffinity>
2.50823

> <CNNscore>
0.8096181750

> <CNNaffinity>
6.2359008789

> <CNN_VS>
5.0486989021

$$$$
HIPS7790


 38 41  0  0  0  0  0  0  0  0999 V2000
   71.2119   81.1610   90.7166 C   0  0  0  0  0  0  0  0  0  0  0  0
   70.8193   81.9005   91.7899 N   0  0  0  0  0  0  0  0  0  0  0  0
   70.5714   83.2309   91.6791 C   0  0  0  0  0  0  0  0  0  0  0  0
   70.7111   83.8683   90.4415 C   0  0  0  0  0  0  0  0  0  0  0  0
   71.1303   83.0979   89.3520 C   0  0  0  0  0  0  0  0  0  0  0  0
   71.3663   81.7704   89.5090 N   0  0  0  0  0  0  0  0  0  0  0  0
   71.3495   77.6510   92.1777 C   0  0  0  0  0  0  0  0  0  0  0  0
   71.9726   76.9542   91.1347 C   0  0  0  0  0  0  0  0  0  0  0  0
   72.3326   77.6164   89.9605 C   0  0  0  0  0  0  0  0  0  0  0  0
   72.0833   78.9831   89.8200 C   0  0  0  0  0  0  0  0  0  0  0  0
   71.4791   79.7086   90.8631 C   0  0  0  0  0  0  0  0  0  0  0  0
   71.1296   79.0323   92.0477 C   0  0  0  0  0  0  0  0  0  0  0  0
   70.9882   76.9493   93.3750 N   0  0  0  0  0  0  0  0  0  0  0  0
   71.6986   76.5069   93.8936 H   0  0  0  0  0  0  0  0  0  0  0  0
   69.3535   76.8455   93.9504 S   0  0  0  0  0  0  0  0  0  0  0  0
   69.1677   77.8711   95.0332 O   0  0  0  0  0  0  0  0  0  0  0  0
   68.3699   77.1511   92.8574 O   0  0  0  0  0  0  0  0  0  0  0  0
   69.5404   71.8345   96.4914 C   0  0  0  0  0  0  0  0  0  0  0  0
   69.1604   73.0866   95.7780 C   0  0  0  0  0  0  0  0  0  0  0  0
   67.9951   73.2403   95.1126 N   0  0  0  0  0  0  0  0  0  0  0  0
   67.9135   74.4478   94.4899 C   0  0  0  0  0  0  0  0  0  0  0  0
   66.7215   74.7946   93.6560 C   0  0  0  0  0  0  0  0  0  0  0  0
   69.0505   75.2515   94.6364 C   0  0  0  0  0  0  0  0  0  0  0  0
   70.1648   74.4189   95.5822 S   0  0  0  0  0  0  0  0  0  0  0  0
   70.4537   85.3435   90.2901 C   0  0  0  0  0  0  0  0  0  0  0  0
   70.1716   85.9437   91.5550 O   0  0  0  0  0  0  0  0  0  0  0  0
   68.8973   86.0585   92.1350 C   0  0  0  0  0  0  0  0  0  0  0  0
   67.8627   86.5735   91.3515 C   0  0  0  0  0  0  0  0  0  0  0  0
   66.5759   86.7029   91.8725 C   0  0  0  0  0  0  0  0  0  0  0  0
   66.3003   86.3183   93.1914 C   0  0  0  0  0  0  0  0  0  0  0  0
   65.0025   86.4526   93.6848 O   0  0  0  0  0  0  0  0  0  0  0  0
   67.3343   85.7995   94.0043 C   0  0  0  0  0  0  0  0  0  0  0  0
   68.6292   85.6781   93.4637 C   0  0  0  0  0  0  0  0  0  0  0  0
   64.3260   86.7978   93.1360 H   0  0  0  0  0  0  0  0  0  0  0  0
   67.0923   85.3796   95.4092 C   0  0  0  0  0  0  0  0  0  0  0  0
   67.4627   84.2469   95.8199 O   0  0  0  0  0  0  0  0  0  0  0  0
   66.4488   86.2406   96.2948 O   0  0  0  0  0  0  0  0  0  0  0  0
   66.1672   87.0860   96.0051 H   0  0  0  0  0  0  0  0  0  0  0  0
 18 19  1  0  0  0
 19 20  2  0  0  0
 20 21  2  0  0  0
 21 22  1  0  0  0
 21 23  2  0  0  0
 23 15  1  0  0  0
 15 16  2  0  0  0
 15 17  2  0  0  0
 15 13  1  0  0  0
 13  7  1  0  0  0
  7  8  2  0  0  0
  8  9  1  0  0  0
  9 10  2  0  0  0
 10 11  1  0  0  0
 11  1  1  0  0  0
  1  2  2  0  0  0
  2  3  2  0  0  0
  3  4  2  0  0  0
  4 25  1  0  0  0
 25 26  1  0  0  0
 26 27  1  0  0  0
 27 28  2  0  0  0
 28 29  1  0  0  0
 29 30  2  0  0  0
 30 31  1  0  0  0
 30 32  1  0  0  0
 32 35  1  0  0  0
 35 36  2  0  0  0
 35 37  1  0  0  0
 32 33  2  0  0  0
  4  5  1  0  0  0
  5  6  2  0  0  0
 11 12  2  0  0  0
 23 24  1  0  0  0
 24 19  1  0  0  0
 12  7  1  0  0  0
  6  1  2  0  0  0
 33 27  1  0  0  0
 13 14  1  0  0  0
 31 34  1  0  0  0
 37 38  1  0  0  0
M  END
> <Activity>
16.6

> <minimizedAffinity>
3.04760

> <CNNscore>
0.7888337970

> <CNNaffinity>
6.2765083313

> <CNN_VS>
4.9511218071

$$$$
HIPS7792


 37 39  0  0  0  0  0  0  0  0999 V2000
   70.6929   68.9029   90.6248 C   0  0  0  0  0  0  0  0  0  0  0  0
   69.9446   70.0665   90.4300 C   0  0  0  0  0  0  0  0  0  0  0  0
   69.2577   70.2485   89.2722 N   0  0  0  0  0  0  0  0  0  0  0  0
   69.2767   69.3130   88.2815 C   0  0  0  0  0  0  0  0  0  0  0  0
   69.9953   68.1679   88.4619 N   0  0  0  0  0  0  0  0  0  0  0  0
   70.6942   67.9426   89.6062 C   0  0  0  0  0  0  0  0  0  0  0  0
   68.5293   69.5469   87.0195 C   0  0  0  0  0  0  0  0  0  0  0  0
   68.3869   68.5138   86.0755 C   0  0  0  0  0  0  0  0  0  0  0  0
   67.6571   68.7193   84.9049 C   0  0  0  0  0  0  0  0  0  0  0  0
   67.0701   69.9602   84.6516 C   0  0  0  0  0  0  0  0  0  0  0  0
   67.2209   71.0182   85.5665 C   0  0  0  0  0  0  0  0  0  0  0  0
   67.9385   70.7943   86.7559 C   0  0  0  0  0  0  0  0  0  0  0  0
   66.6599   72.3220   85.3277 N   0  0  0  0  0  0  0  0  0  0  0  0
   65.7482   72.4959   85.6562 H   0  0  0  0  0  0  0  0  0  0  0  0
   67.4807   73.6099   84.4999 S   0  0  0  0  0  0  0  0  0  0  0  0
   66.7627   73.8663   83.2017 O   0  0  0  0  0  0  0  0  0  0  0  0
   68.8920   73.1859   84.1936 O   0  0  0  0  0  0  0  0  0  0  0  0
   67.4404   75.1030   85.4956 C   0  0  0  0  0  0  0  0  0  0  0  0
   67.2639   76.3844   84.6587 C   0  0  0  0  0  0  0  0  0  0  0  0
   68.2600   77.4964   85.0095 C   0  0  0  0  0  0  0  0  0  0  0  0
   69.5350   76.9861   85.1582 F   0  0  0  0  0  0  0  0  0  0  0  0
   68.2637   78.4680   84.0221 F   0  0  0  0  0  0  0  0  0  0  0  0
   67.8809   78.0811   86.2045 F   0  0  0  0  0  0  0  0  0  0  0  0
   71.4263   68.6745   91.9128 C   0  0  0  0  0  0  0  0  0  0  0  0
   72.6173   67.9430   91.6507 O   0  0  0  0  0  0  0  0  0  0  0  0
   75.7466   69.9193   92.2018 C   0  0  0  0  0  0  0  0  0  0  0  0
   74.4464   69.4140   92.3843 C   0  0  0  0  0  0  0  0  0  0  0  0
   73.8763   68.5268   91.4529 C   0  0  0  0  0  0  0  0  0  0  0  0
   74.5925   68.2028   90.2937 C   0  0  0  0  0  0  0  0  0  0  0  0
   75.8747   68.7113   90.0904 C   0  0  0  0  0  0  0  0  0  0  0  0
   76.4578   69.5686   91.0301 C   0  0  0  0  0  0  0  0  0  0  0  0
   77.7450   70.0542   90.8071 O   0  0  0  0  0  0  0  0  0  0  0  0
   78.2072   69.8157   90.0276 H   0  0  0  0  0  0  0  0  0  0  0  0
   76.6178   70.3828   94.3818 O   0  0  0  0  0  0  0  0  0  0  0  0
   76.3482   70.8160   93.2234 C   0  0  0  0  0  0  0  0  0  0  0  0
   76.6759   72.1324   92.9092 O   0  0  0  0  0  0  0  0  0  0  0  0
   76.4848   72.4723   92.0572 H   0  0  0  0  0  0  0  0  0  0  0  0
 34 35  2  0  0  0
 35 36  1  0  0  0
 35 26  1  0  0  0
 26 27  2  0  0  0
 27 28  1  0  0  0
 28 25  1  0  0  0
 25 24  1  0  0  0
 24  1  1  0  0  0
  1  2  2  0  0  0
  2  3  2  0  0  0
  3  4  2  0  0  0
  4  7  1  0  0  0
  7  8  2  0  0  0
  8  9  1  0  0  0
  9 10  2  0  0  0
 10 11  1  0  0  0
 11 13  1  0  0  0
 13 15  1  0  0  0
 15 16  2  0  0  0
 15 17  2  0  0  0
 15 18  1  0  0  0
 18 19  1  0  0  0
 19 20  1  0  0  0
 20 21  1  0  0  0
 20 22  1  0  0  0
 20 23  1  0  0  0
 11 12  2  0  0  0
  4  5  2  0  0  0
  5  6  2  0  0  0
 28 29  2  0  0  0
 29 30  1  0  0  0
 30 31  2  0  0  0
 31 32  1  0  0  0
 31 26  1  0  0  0
  6  1  1  0  0  0
 12  7  1  0  0  0
 36 37  1  0  0  0
 13 14  1  0  0  0
 32 33  1  0  0  0
M  END
> <Activity>
18.5

> <minimizedAffinity>
-6.66951

> <CNNscore>
0.5238888860

> <CNNaffinity>
6.1937208176

> <CNN_VS>
3.2448215485

$$$$
HIPS7792


 37 39  0  0  0  0  0  0  0  0999 V2000
   65.6382   86.4453   93.2109 C   0  0  0  0  0  0  0  0  0  0  0  0
   66.2600   86.2151   94.4406 C   0  0  0  0  0  0  0  0  0  0  0  0
   65.5113   85.9610   95.5453 N   0  0  0  0  0  0  0  0  0  0  0  0
   64.1504   85.9216   95.4863 C   0  0  0  0  0  0  0  0  0  0  0  0
   63.5302   86.1349   94.2904 N   0  0  0  0  0  0  0  0  0  0  0  0
   64.2403   86.3887   93.1591 C   0  0  0  0  0  0  0  0  0  0  0  0
   63.3573   85.6577   96.7140 C   0  0  0  0  0  0  0  0  0  0  0  0
   63.9882   85.6024   97.9700 C   0  0  0  0  0  0  0  0  0  0  0  0
   63.2421   85.3885   99.1289 C   0  0  0  0  0  0  0  0  0  0  0  0
   61.8594   85.2135   99.0520 C   0  0  0  0  0  0  0  0  0  0  0  0
   61.2079   85.2368   97.8053 C   0  0  0  0  0  0  0  0  0  0  0  0
   61.9655   85.4772   96.6442 C   0  0  0  0  0  0  0  0  0  0  0  0
   59.7894   85.0279   97.6793 N   0  0  0  0  0  0  0  0  0  0  0  0
   59.4453   84.1174   97.8269 H   0  0  0  0  0  0  0  0  0  0  0  0
   58.6428   86.2717   97.2847 S   0  0  0  0  0  0  0  0  0  0  0  0
   59.3872   87.5744   97.1606 O   0  0  0  0  0  0  0  0  0  0  0  0
   57.6386   86.3958   98.3990 O   0  0  0  0  0  0  0  0  0  0  0  0
   57.8491   85.8998   95.7181 C   0  0  0  0  0  0  0  0  0  0  0  0
   58.8378   85.8361   94.5383 C   0  0  0  0  0  0  0  0  0  0  0  0
   59.0909   84.4162   94.0172 C   0  0  0  0  0  0  0  0  0  0  0  0
   60.2488   84.3669   93.2654 F   0  0  0  0  0  0  0  0  0  0  0  0
   59.1882   83.5260   95.0741 F   0  0  0  0  0  0  0  0  0  0  0  0
   58.0313   84.0352   93.2136 F   0  0  0  0  0  0  0  0  0  0  0  0
   66.4549   86.6914   91.9775 C   0  0  0  0  0  0  0  0  0  0  0  0
   67.2997   87.8152   92.1914 O   0  0  0  0  0  0  0  0  0  0  0  0
   70.0052   87.6563   89.6113 C   0  0  0  0  0  0  0  0  0  0  0  0
   68.8355   87.3464   90.3288 C   0  0  0  0  0  0  0  0  0  0  0  0
   68.4988   88.0451   91.5027 C   0  0  0  0  0  0  0  0  0  0  0  0
   69.3823   89.0132   91.9966 C   0  0  0  0  0  0  0  0  0  0  0  0
   70.5547   89.3174   91.3061 C   0  0  0  0  0  0  0  0  0  0  0  0
   70.8773   88.6471   90.1209 C   0  0  0  0  0  0  0  0  0  0  0  0
   72.0503   88.9782   89.4452 O   0  0  0  0  0  0  0  0  0  0  0  0
   72.6208   89.6359   89.7915 H   0  0  0  0  0  0  0  0  0  0  0  0
   71.3721   86.2493   88.2407 O   0  0  0  0  0  0  0  0  0  0  0  0
   70.3162   86.9395   88.3467 C   0  0  0  0  0  0  0  0  0  0  0  0
   69.4272   86.9696   87.2754 O   0  0  0  0  0  0  0  0  0  0  0  0
   68.6400   87.4744   87.3339 H   0  0  0  0  0  0  0  0  0  0  0  0
 34 35  2  0  0  0
 35 36  1  0  0  0
 35 26  1  0  0  0
 26 27  2  0  0  0
 27 28  1  0  0  0
 28 25  1  0  0  0
 25 24  1  0  0  0
 24  1  1  0  0  0
  1  2  2  0  0  0
  2  3  2  0  0  0
  3  4  2  0  0  0
  4  7  1  0  0  0
  7  8  2  0  0  0
  8  9  1  0  0  0
  9 10  2  0  0  0
 10 11  1  0  0  0
 11 13  1  0  0  0
 13 15  1  0  0  0
 15 16  2  0  0  0
 15 17  2  0  0  0
 15 18  1  0  0  0
 18 19  1  0  0  0
 19 20  1  0  0  0
 20 21  1  0  0  0
 20 22  1  0  0  0
 20 23  1  0  0  0
 11 12  2  0  0  0
  4  5  2  0  0  0
  5  6  2  0  0  0
 28 29  2  0  0  0
 29 30  1  0  0  0
 30 31  2  0  0  0
 31 32  1  0  0  0
 31 26  1  0  0  0
  6  1  1  0  0  0
 12  7  1  0  0  0
 36 37  1  0  0  0
 13 14  1  0  0  0
 32 33  1  0  0  0
M  END
> <Activity>
18.5

> <minimizedAffinity>
-5.94218

> <CNNscore>
0.4740312696

> <CNNaffinity>
5.8296031952

> <CNN_VS>
2.7634141445

$$$$
HIPS7792


 37 39  0  0  0  0  0  0  0  0999 V2000
   66.8315   87.0299   94.8155 C   0  0  0  0  0  0  0  0  0  0  0  0
   65.7924   87.7532   95.4062 C   0  0  0  0  0  0  0  0  0  0  0  0
   64.5018   87.3804   95.2033 N   0  0  0  0  0  0  0  0  0  0  0  0
   64.1879   86.3033   94.4298 C   0  0  0  0  0  0  0  0  0  0  0  0
   65.1926   85.5821   93.8547 N   0  0  0  0  0  0  0  0  0  0  0  0
   66.4980   85.9171   94.0342 C   0  0  0  0  0  0  0  0  0  0  0  0
   62.7672   85.9292   94.2123 C   0  0  0  0  0  0  0  0  0  0  0  0
   62.2702   85.7512   92.9085 C   0  0  0  0  0  0  0  0  0  0  0  0
   60.9455   85.3669   92.7013 C   0  0  0  0  0  0  0  0  0  0  0  0
   60.0936   85.1674   93.7890 C   0  0  0  0  0  0  0  0  0  0  0  0
   60.5583   85.3656   95.1019 C   0  0  0  0  0  0  0  0  0  0  0  0
   61.9026   85.7298   95.3020 C   0  0  0  0  0  0  0  0  0  0  0  0
   59.7039   85.2027   96.2487 N   0  0  0  0  0  0  0  0  0  0  0  0
   59.4068   84.2913   96.4731 H   0  0  0  0  0  0  0  0  0  0  0  0
   59.1608   86.5034   97.2639 S   0  0  0  0  0  0  0  0  0  0  0  0
   57.6557   86.5262   97.2330 O   0  0  0  0  0  0  0  0  0  0  0  0
   59.6730   87.8092   96.7180 O   0  0  0  0  0  0  0  0  0  0  0  0
   59.7073   86.2331   98.9523 C   0  0  0  0  0  0  0  0  0  0  0  0
   61.2166   86.4734   99.1461 C   0  0  0  0  0  0  0  0  0  0  0  0
   62.0254   85.1897   99.3692 C   0  0  0  0  0  0  0  0  0  0  0  0
   61.2649   84.2349  100.0158 F   0  0  0  0  0  0  0  0  0  0  0  0
   62.4692   84.6842   98.1581 F   0  0  0  0  0  0  0  0  0  0  0  0
   63.1246   85.4803  100.1571 F   0  0  0  0  0  0  0  0  0  0  0  0
   68.2611   87.4102   95.0610 C   0  0  0  0  0  0  0  0  0  0  0  0
   68.4149   87.8038   96.4189 O   0  0  0  0  0  0  0  0  0  0  0  0
   71.0586   87.2085   98.9993 C   0  0  0  0  0  0  0  0  0  0  0  0
   70.2788   87.8540   98.0224 C   0  0  0  0  0  0  0  0  0  0  0  0
   69.2616   87.1656   97.3359 C   0  0  0  0  0  0  0  0  0  0  0  0
   69.0764   85.7996   97.5835 C   0  0  0  0  0  0  0  0  0  0  0  0
   69.8548   85.1424   98.5353 C   0  0  0  0  0  0  0  0  0  0  0  0
   70.8460   85.8312   99.2431 C   0  0  0  0  0  0  0  0  0  0  0  0
   71.6026   85.1523  100.1966 O   0  0  0  0  0  0  0  0  0  0  0  0
   71.4536   84.2401  100.3502 H   0  0  0  0  0  0  0  0  0  0  0  0
   73.1978   87.4254  100.0497 O   0  0  0  0  0  0  0  0  0  0  0  0
   72.0946   87.9677   99.7476 C   0  0  0  0  0  0  0  0  0  0  0  0
   71.8932   89.3042  100.0826 O   0  0  0  0  0  0  0  0  0  0  0  0
   71.0836   89.7242   99.8679 H   0  0  0  0  0  0  0  0  0  0  0  0
 34 35  2  0  0  0
 35 36  1  0  0  0
 35 26  1  0  0  0
 26 27  2  0  0  0
 27 28  1  0  0  0
 28 25  1  0  0  0
 25 24  1  0  0  0
 24  1  1  0  0  0
  1  2  2  0  0  0
  2  3  2  0  0  0
  3  4  2  0  0  0
  4  7  1  0  0  0
  7  8  2  0  0  0
  8  9  1  0  0  0
  9 10  2  0  0  0
 10 11  1  0  0  0
 11 13  1  0  0  0
 13 15  1  0  0  0
 15 16  2  0  0  0
 15 17  2  0  0  0
 15 18  1  0  0  0
 18 19  1  0  0  0
 19 20  1  0  0  0
 20 21  1  0  0  0
 20 22  1  0  0  0
 20 23  1  0  0  0
 11 12  2  0  0  0
  4  5  2  0  0  0
  5  6  2  0  0  0
 28 29  2  0  0  0
 29 30  1  0  0  0
 30 31  2  0  0  0
 31 32  1  0  0  0
 31 26  1  0  0  0
  6  1  1  0  0  0
 12  7  1  0  0  0
 36 37  1  0  0  0
 13 14  1  0  0  0
 32 33  1  0  0  0
M  END
> <Activity>
18.5

> <minimizedAffinity>
-4.15769

> <CNNscore>
0.3928720951

> <CNNaffinity>
5.4389429092

> <CNN_VS>
2.1368088722

$$$$
HIPS6992


 35 38  0  0  0  0  0  0  0  0999 V2000
   70.0997   77.6993   92.6547 C   0  0  0  0  0  0  0  0  0  0  0  0
   68.7419   78.0676   92.6481 C   0  0  0  0  0  0  0  0  0  0  0  0
   67.8972   77.6689   93.6899 C   0  0  0  0  0  0  0  0  0  0  0  0
   68.4010   76.9135   94.7527 C   0  0  0  0  0  0  0  0  0  0  0  0
   69.7564   76.5470   94.7804 C   0  0  0  0  0  0  0  0  0  0  0  0
   70.5879   76.9084   93.7091 C   0  0  0  0  0  0  0  0  0  0  0  0
   72.0035   80.0000   90.3013 C   0  0  0  0  0  0  0  0  0  0  0  0
   72.8147   79.0823   89.6271 C   0  0  0  0  0  0  0  0  0  0  0  0
   72.7132   77.7150   89.9038 C   0  0  0  0  0  0  0  0  0  0  0  0
   71.8186   77.2570   90.8770 C   0  0  0  0  0  0  0  0  0  0  0  0
   71.0232   78.1680   91.5905 C   0  0  0  0  0  0  0  0  0  0  0  0
   71.1221   79.5407   91.2945 C   0  0  0  0  0  0  0  0  0  0  0  0
   72.1225   81.3651   89.9988 O   0  0  0  0  0  0  0  0  0  0  0  0
   70.0493   84.4721   91.9629 C   0  0  0  0  0  0  0  0  0  0  0  0
   70.4635   84.6526   90.6359 C   0  0  0  0  0  0  0  0  0  0  0  0
   71.1345   83.6225   89.9621 C   0  0  0  0  0  0  0  0  0  0  0  0
   71.3960   82.3986   90.6142 C   0  0  0  0  0  0  0  0  0  0  0  0
   70.9736   82.2255   91.9387 C   0  0  0  0  0  0  0  0  0  0  0  0
   70.3013   83.2554   92.6119 C   0  0  0  0  0  0  0  0  0  0  0  0
   68.8652   86.4082   93.2336 N   0  0  0  0  0  0  0  0  0  0  0  0
   69.3931   85.5461   92.6677 C   0  0  0  0  0  0  0  0  0  0  0  0
   70.3120   75.7631   95.9442 C   0  0  0  0  0  0  0  0  0  0  0  0
   69.5763   74.5521   96.1551 O   0  0  0  0  0  0  0  0  0  0  0  0
   69.4127   73.5237   95.2050 C   0  0  0  0  0  0  0  0  0  0  0  0
   70.3985   72.5466   94.9676 C   0  0  0  0  0  0  0  0  0  0  0  0
   70.2002   71.5701   93.9870 C   0  0  0  0  0  0  0  0  0  0  0  0
   69.0144   71.5424   93.2366 C   0  0  0  0  0  0  0  0  0  0  0  0
   68.8527   70.5825   92.2342 O   0  0  0  0  0  0  0  0  0  0  0  0
   68.0073   72.5043   93.4813 C   0  0  0  0  0  0  0  0  0  0  0  0
   68.2244   73.4894   94.4624 C   0  0  0  0  0  0  0  0  0  0  0  0
   69.5255   69.9490   92.0792 H   0  0  0  0  0  0  0  0  0  0  0  0
   66.7359   72.5117   92.7201 C   0  0  0  0  0  0  0  0  0  0  0  0
   66.6936   72.0669   91.5416 O   0  0  0  0  0  0  0  0  0  0  0  0
   65.5659   72.9894   93.3089 O   0  0  0  0  0  0  0  0  0  0  0  0
   65.5843   73.3227   94.1844 H   0  0  0  0  0  0  0  0  0  0  0  0
 20 21  3  0  0  0
 21 14  1  0  0  0
 14 15  2  0  0  0
 15 16  1  0  0  0
 16 17  2  0  0  0
 17 13  1  0  0  0
 13  7  1  0  0  0
  7  8  2  0  0  0
  8  9  1  0  0  0
  9 10  2  0  0  0
 10 11  1  0  0  0
 11  1  1  0  0  0
  1  2  2  0  0  0
  2  3  1  0  0  0
  3  4  2  0  0  0
  4  5  1  0  0  0
  5 22  1  0  0  0
 22 23  1  0  0  0
 23 24  1  0  0  0
 24 25  2  0  0  0
 25 26  1  0  0  0
 26 27  2  0  0  0
 27 28  1  0  0  0
 27 29  1  0  0  0
 29 32  1  0  0  0
 32 33  2  0  0  0
 32 34  1  0  0  0
 29 30  2  0  0  0
  5  6  2  0  0  0
 11 12  2  0  0  0
 17 18  1  0  0  0
 18 19  2  0  0  0
 19 14  1  0  0  0
 12  7  1  0  0  0
  6  1  1  0  0  0
 30 24  1  0  0  0
 28 31  1  0  0  0
 34 35  1  0  0  0
M  END
> <Activity>
18.6

> <minimizedAffinity>
4.05069

> <CNNscore>
0.8984047174

> <CNNaffinity>
6.0281333923

> <CNN_VS>
5.4157032967

$$$$
HIPS6992


 35 38  0  0  0  0  0  0  0  0999 V2000
   72.0387   79.3530   90.7625 C   0  0  0  0  0  0  0  0  0  0  0  0
   72.5852   78.6784   89.6554 C   0  0  0  0  0  0  0  0  0  0  0  0
   72.8030   77.2972   89.7075 C   0  0  0  0  0  0  0  0  0  0  0  0
   72.4650   76.5755   90.8559 C   0  0  0  0  0  0  0  0  0  0  0  0
   71.9081   77.2318   91.9656 C   0  0  0  0  0  0  0  0  0  0  0  0
   71.7368   78.6242   91.9258 C   0  0  0  0  0  0  0  0  0  0  0  0
   72.5054   83.1061   90.3711 C   0  0  0  0  0  0  0  0  0  0  0  0
   71.1890   83.5560   90.5113 C   0  0  0  0  0  0  0  0  0  0  0  0
   70.1581   82.6486   90.7763 C   0  0  0  0  0  0  0  0  0  0  0  0
   70.4314   81.2802   90.8758 C   0  0  0  0  0  0  0  0  0  0  0  0
   71.7416   80.8066   90.7004 C   0  0  0  0  0  0  0  0  0  0  0  0
   72.7746   81.7291   90.4487 C   0  0  0  0  0  0  0  0  0  0  0  0
   73.5203   84.0397   90.1119 O   0  0  0  0  0  0  0  0  0  0  0  0
   73.5061   87.0852   87.1904 C   0  0  0  0  0  0  0  0  0  0  0  0
   72.9001   85.8540   86.9041 C   0  0  0  0  0  0  0  0  0  0  0  0
   72.8775   84.8392   87.8711 C   0  0  0  0  0  0  0  0  0  0  0  0
   73.4628   85.0508   89.1376 C   0  0  0  0  0  0  0  0  0  0  0  0
   74.0614   86.2864   89.4166 C   0  0  0  0  0  0  0  0  0  0  0  0
   74.0827   87.3015   88.4498 C   0  0  0  0  0  0  0  0  0  0  0  0
   73.6074   88.9422   85.3721 N   0  0  0  0  0  0  0  0  0  0  0  0
   73.5627   88.1149   86.1819 C   0  0  0  0  0  0  0  0  0  0  0  0
   71.5079   76.4506   93.1933 C   0  0  0  0  0  0  0  0  0  0  0  0
   70.4903   77.1328   93.9358 O   0  0  0  0  0  0  0  0  0  0  0  0
   69.1130   76.8361   93.8903 C   0  0  0  0  0  0  0  0  0  0  0  0
   68.1573   77.7447   93.3965 C   0  0  0  0  0  0  0  0  0  0  0  0
   66.7990   77.4137   93.4084 C   0  0  0  0  0  0  0  0  0  0  0  0
   66.3715   76.1703   93.8995 C   0  0  0  0  0  0  0  0  0  0  0  0
   65.0064   75.8750   93.9394 O   0  0  0  0  0  0  0  0  0  0  0  0
   67.3235   75.2403   94.3771 C   0  0  0  0  0  0  0  0  0  0  0  0
   68.6864   75.5904   94.3712 C   0  0  0  0  0  0  0  0  0  0  0  0
   64.3828   76.4975   93.6207 H   0  0  0  0  0  0  0  0  0  0  0  0
   66.9217   73.9127   94.8986 C   0  0  0  0  0  0  0  0  0  0  0  0
   67.7471   72.9608   94.9284 O   0  0  0  0  0  0  0  0  0  0  0  0
   65.6310   73.7089   95.3849 O   0  0  0  0  0  0  0  0  0  0  0  0
   65.0081   74.4087   95.3683 H   0  0  0  0  0  0  0  0  0  0  0  0
 20 21  3  0  0  0
 21 14  1  0  0  0
 14 15  2  0  0  0
 15 16  1  0  0  0
 16 17  2  0  0  0
 17 13  1  0  0  0
 13  7  1  0  0  0
  7  8  2  0  0  0
  8  9  1  0  0  0
  9 10  2  0  0  0
 10 11  1  0  0  0
 11  1  1  0  0  0
  1  2  2  0  0  0
  2  3  1  0  0  0
  3  4  2  0  0  0
  4  5  1  0  0  0
  5 22  1  0  0  0
 22 23  1  0  0  0
 23 24  1  0  0  0
 24 25  2  0  0  0
 25 26  1  0  0  0
 26 27  2  0  0  0
 27 28  1  0  0  0
 27 29  1  0  0  0
 29 32  1  0  0  0
 32 33  2  0  0  0
 32 34  1  0  0  0
 29 30  2  0  0  0
  5  6  2  0  0  0
 11 12  2  0  0  0
 17 18  1  0  0  0
 18 19  2  0  0  0
 19 14  1  0  0  0
 12  7  1  0  0  0
  6  1  1  0  0  0
 30 24  1  0  0  0
 28 31  1  0  0  0
 34 35  1  0  0  0
M  END
> <Activity>
18.6

> <minimizedAffinity>
5.28294

> <CNNscore>
0.8812623620

> <CNNaffinity>
6.0342292786

> <CNN_VS>
5.3177390099

$$$$
HIPS6992


 35 38  0  0  0  0  0  0  0  0999 V2000
   70.0953   77.5301   92.8351 C   0  0  0  0  0  0  0  0  0  0  0  0
   68.7049   77.7453   92.8370 C   0  0  0  0  0  0  0  0  0  0  0  0
   67.9063   77.1916   93.8437 C   0  0  0  0  0  0  0  0  0  0  0  0
   68.4873   76.4322   94.8633 C   0  0  0  0  0  0  0  0  0  0  0  0
   69.8750   76.2173   94.8825 C   0  0  0  0  0  0  0  0  0  0  0  0
   70.6648   76.7344   93.8440 C   0  0  0  0  0  0  0  0  0  0  0  0
   72.2786   80.0798   91.0492 C   0  0  0  0  0  0  0  0  0  0  0  0
   72.6661   79.3554   89.9179 C   0  0  0  0  0  0  0  0  0  0  0  0
   72.1850   78.0582   89.7122 C   0  0  0  0  0  0  0  0  0  0  0  0
   71.3339   77.4647   90.6506 C   0  0  0  0  0  0  0  0  0  0  0  0
   70.9645   78.1635   91.8112 C   0  0  0  0  0  0  0  0  0  0  0  0
   71.4421   79.4738   92.0020 C   0  0  0  0  0  0  0  0  0  0  0  0
   72.7719   81.3814   91.2265 O   0  0  0  0  0  0  0  0  0  0  0  0
   71.7685   84.6331   88.7306 C   0  0  0  0  0  0  0  0  0  0  0  0
   70.8382   84.1779   89.6753 C   0  0  0  0  0  0  0  0  0  0  0  0
   71.1637   83.1126   90.5265 C   0  0  0  0  0  0  0  0  0  0  0  0
   72.4287   82.4933   90.4386 C   0  0  0  0  0  0  0  0  0  0  0  0
   73.3539   82.9585   89.4951 C   0  0  0  0  0  0  0  0  0  0  0  0
   73.0286   84.0248   88.6449 C   0  0  0  0  0  0  0  0  0  0  0  0
   71.1374   86.5634   87.1055 N   0  0  0  0  0  0  0  0  0  0  0  0
   71.4188   85.7039   87.8296 C   0  0  0  0  0  0  0  0  0  0  0  0
   70.5103   75.4291   96.0017 C   0  0  0  0  0  0  0  0  0  0  0  0
   69.8590   74.1663   96.1845 O   0  0  0  0  0  0  0  0  0  0  0  0
   69.6444   73.2078   95.1734 C   0  0  0  0  0  0  0  0  0  0  0  0
   70.5944   72.2195   94.8513 C   0  0  0  0  0  0  0  0  0  0  0  0
   70.3460   71.3158   93.8139 C   0  0  0  0  0  0  0  0  0  0  0  0
   69.1451   71.3727   93.0896 C   0  0  0  0  0  0  0  0  0  0  0  0
   68.9335   70.4859   92.0308 O   0  0  0  0  0  0  0  0  0  0  0  0
   68.1736   72.3460   93.4185 C   0  0  0  0  0  0  0  0  0  0  0  0
   68.4409   73.2577   94.4565 C   0  0  0  0  0  0  0  0  0  0  0  0
   69.5831   69.8442   91.8202 H   0  0  0  0  0  0  0  0  0  0  0  0
   66.8880   72.4411   92.6877 C   0  0  0  0  0  0  0  0  0  0  0  0
   65.9332   73.1157   93.1585 O   0  0  0  0  0  0  0  0  0  0  0  0
   66.7289   71.8041   91.4578 O   0  0  0  0  0  0  0  0  0  0  0  0
   67.4313   71.2997   91.0971 H   0  0  0  0  0  0  0  0  0  0  0  0
 20 21  3  0  0  0
 21 14  1  0  0  0
 14 15  2  0  0  0
 15 16  1  0  0  0
 16 17  2  0  0  0
 17 13  1  0  0  0
 13  7  1  0  0  0
  7  8  2  0  0  0
  8  9  1  0  0  0
  9 10  2  0  0  0
 10 11  1  0  0  0
 11  1  1  0  0  0
  1  2  2  0  0  0
  2  3  1  0  0  0
  3  4  2  0  0  0
  4  5  1  0  0  0
  5 22  1  0  0  0
 22 23  1  0  0  0
 23 24  1  0  0  0
 24 25  2  0  0  0
 25 26  1  0  0  0
 26 27  2  0  0  0
 27 28  1  0  0  0
 27 29  1  0  0  0
 29 32  1  0  0  0
 32 33  2  0  0  0
 32 34  1  0  0  0
 29 30  2  0  0  0
  5  6  2  0  0  0
 11 12  2  0  0  0
 17 18  1  0  0  0
 18 19  2  0  0  0
 19 14  1  0  0  0
 12  7  1  0  0  0
  6  1  1  0  0  0
 30 24  1  0  0  0
 28 31  1  0  0  0
 34 35  1  0  0  0
M  END
> <Activity>
18.6

> <minimizedAffinity>
4.22385

> <CNNscore>
0.8765397668

> <CNNaffinity>
5.9598579407

> <CNN_VS>
5.2240524292

$$$$
HIPS7001


 36 39  0  0  0  0  0  0  0  0999 V2000
   70.9114   77.9490   91.9820 C   0  0  0  0  0  0  0  0  0  0  0  0
   71.8553   77.1951   91.2645 C   0  0  0  0  0  0  0  0  0  0  0  0
   72.5095   77.7472   90.1623 C   0  0  0  0  0  0  0  0  0  0  0  0
   72.2250   79.0503   89.7542 C   0  0  0  0  0  0  0  0  0  0  0  0
   71.2893   79.8296   90.4631 C   0  0  0  0  0  0  0  0  0  0  0  0
   70.6456   79.2713   91.5800 C   0  0  0  0  0  0  0  0  0  0  0  0
   68.0694   76.5724   94.0979 C   0  0  0  0  0  0  0  0  0  0  0  0
   68.7787   76.0946   95.2152 C   0  0  0  0  0  0  0  0  0  0  0  0
   70.1659   76.2368   95.2804 C   0  0  0  0  0  0  0  0  0  0  0  0
   70.8582   76.8569   94.2389 C   0  0  0  0  0  0  0  0  0  0  0  0
   70.1674   77.3426   93.1147 C   0  0  0  0  0  0  0  0  0  0  0  0
   68.7667   77.2054   93.0608 C   0  0  0  0  0  0  0  0  0  0  0  0
   66.6772   76.4362   93.9781 O   0  0  0  0  0  0  0  0  0  0  0  0
   65.9413   75.2562   94.3056 C   0  0  0  0  0  0  0  0  0  0  0  0
   68.2801   71.8442   93.0933 C   0  0  0  0  0  0  0  0  0  0  0  0
   68.6423   72.5654   94.2400 C   0  0  0  0  0  0  0  0  0  0  0  0
   67.8729   73.6591   94.6488 C   0  0  0  0  0  0  0  0  0  0  0  0
   66.7320   74.0371   93.9196 C   0  0  0  0  0  0  0  0  0  0  0  0
   66.3779   73.3137   92.7694 C   0  0  0  0  0  0  0  0  0  0  0  0
   67.1446   72.2172   92.3636 C   0  0  0  0  0  0  0  0  0  0  0  0
   69.7058   69.8148   92.3269 N   0  0  0  0  0  0  0  0  0  0  0  0
   69.0710   70.7205   92.6677 C   0  0  0  0  0  0  0  0  0  0  0  0
   70.9298   81.2420   90.0587 C   0  0  0  0  0  0  0  0  0  0  0  0
   71.4619   82.2335   90.9402 O   0  0  0  0  0  0  0  0  0  0  0  0
   70.7548   83.3282   91.4677 C   0  0  0  0  0  0  0  0  0  0  0  0
   70.5579   84.4398   90.6447 C   0  0  0  0  0  0  0  0  0  0  0  0
   69.8940   85.5690   91.1240 C   0  0  0  0  0  0  0  0  0  0  0  0
   69.4135   85.6097   92.4368 C   0  0  0  0  0  0  0  0  0  0  0  0
   68.8443   86.8011   92.8896 O   0  0  0  0  0  0  0  0  0  0  0  0
   69.5520   84.4710   93.2674 C   0  0  0  0  0  0  0  0  0  0  0  0
   70.2482   83.3489   92.7813 C   0  0  0  0  0  0  0  0  0  0  0  0
   68.7693   87.5341   92.3108 H   0  0  0  0  0  0  0  0  0  0  0  0
   68.9437   84.4039   94.6133 C   0  0  0  0  0  0  0  0  0  0  0  0
   69.3023   85.2131   95.5083 O   0  0  0  0  0  0  0  0  0  0  0  0
   68.0164   83.4126   94.9193 O   0  0  0  0  0  0  0  0  0  0  0  0
   67.7439   82.8061   94.2591 H   0  0  0  0  0  0  0  0  0  0  0  0
 21 22  3  0  0  0
 22 15  1  0  0  0
 15 16  2  0  0  0
 16 17  1  0  0  0
 17 18  2  0  0  0
 18 14  1  0  0  0
 14 13  1  0  0  0
 13  7  1  0  0  0
  7  8  2  0  0  0
  8  9  1  0  0  0
  9 10  2  0  0  0
 10 11  1  0  0  0
 11  1  1  0  0  0
  1  2  2  0  0  0
  2  3  1  0  0  0
  3  4  2  0  0  0
  4  5  1  0  0  0
  5 23  1  0  0  0
 23 24  1  0  0  0
 24 25  1  0  0  0
 25 26  2  0  0  0
 26 27  1  0  0  0
 27 28  2  0  0  0
 28 29  1  0  0  0
 28 30  1  0  0  0
 30 33  1  0  0  0
 33 34  2  0  0  0
 33 35  1  0  0  0
 30 31  2  0  0  0
  5  6  2  0  0  0
 11 12  2  0  0  0
 18 19  1  0  0  0
 19 20  2  0  0  0
 20 15  1  0  0  0
 12  7  1  0  0  0
  6  1  1  0  0  0
 31 25  1  0  0  0
 29 32  1  0  0  0
 35 36  1  0  0  0
M  END
> <Activity>
23.7

> <minimizedAffinity>
1.60983

> <CNNscore>
0.9106358290

> <CNNaffinity>
6.0655899048

> <CNN_VS>
5.5235433578

$$$$
HIPS7001


 36 39  0  0  0  0  0  0  0  0999 V2000
   68.1262   78.0806   93.2374 C   0  0  0  0  0  0  0  0  0  0  0  0
   67.4799   79.2608   93.6417 C   0  0  0  0  0  0  0  0  0  0  0  0
   66.1872   79.2142   94.1654 C   0  0  0  0  0  0  0  0  0  0  0  0
   65.5182   77.9959   94.2827 C   0  0  0  0  0  0  0  0  0  0  0  0
   66.1486   76.7976   93.8929 C   0  0  0  0  0  0  0  0  0  0  0  0
   67.4553   76.8516   93.3800 C   0  0  0  0  0  0  0  0  0  0  0  0
   71.0738   79.2054   91.1171 C   0  0  0  0  0  0  0  0  0  0  0  0
   72.0640   78.2987   91.5382 C   0  0  0  0  0  0  0  0  0  0  0  0
   71.7643   77.3232   92.4908 C   0  0  0  0  0  0  0  0  0  0  0  0
   70.4794   77.2389   93.0296 C   0  0  0  0  0  0  0  0  0  0  0  0
   69.4756   78.1344   92.6206 C   0  0  0  0  0  0  0  0  0  0  0  0
   69.7823   79.1090   91.6511 C   0  0  0  0  0  0  0  0  0  0  0  0
   71.3316   80.2149   90.1761 O   0  0  0  0  0  0  0  0  0  0  0  0
   72.1683   81.3501   90.4052 C   0  0  0  0  0  0  0  0  0  0  0  0
   69.9414   84.6674   92.0232 C   0  0  0  0  0  0  0  0  0  0  0  0
   70.3923   84.7119   90.6962 C   0  0  0  0  0  0  0  0  0  0  0  0
   71.0956   83.6281   90.1613 C   0  0  0  0  0  0  0  0  0  0  0  0
   71.3482   82.4887   90.9450 C   0  0  0  0  0  0  0  0  0  0  0  0
   70.8982   82.4529   92.2746 C   0  0  0  0  0  0  0  0  0  0  0  0
   70.1908   83.5346   92.8078 C   0  0  0  0  0  0  0  0  0  0  0  0
   68.6415   86.6798   93.0226 N   0  0  0  0  0  0  0  0  0  0  0  0
   69.2205   85.7816   92.5781 C   0  0  0  0  0  0  0  0  0  0  0  0
   65.4677   75.4501   93.9831 C   0  0  0  0  0  0  0  0  0  0  0  0
   66.0608   74.5825   94.9522 O   0  0  0  0  0  0  0  0  0  0  0  0
   67.3100   73.9487   94.8318 C   0  0  0  0  0  0  0  0  0  0  0  0
   68.3535   74.3956   95.6461 C   0  0  0  0  0  0  0  0  0  0  0  0
   69.6239   73.8286   95.5469 C   0  0  0  0  0  0  0  0  0  0  0  0
   69.8771   72.8027   94.6306 C   0  0  0  0  0  0  0  0  0  0  0  0
   71.1891   72.3421   94.5087 O   0  0  0  0  0  0  0  0  0  0  0  0
   68.8182   72.2966   93.8379 C   0  0  0  0  0  0  0  0  0  0  0  0
   67.5482   72.8960   93.9275 C   0  0  0  0  0  0  0  0  0  0  0  0
   71.8639   72.7009   95.0508 H   0  0  0  0  0  0  0  0  0  0  0  0
   68.9917   71.1237   92.9548 C   0  0  0  0  0  0  0  0  0  0  0  0
   69.9187   70.3009   93.1742 O   0  0  0  0  0  0  0  0  0  0  0  0
   68.1729   70.9508   91.8431 O   0  0  0  0  0  0  0  0  0  0  0  0
   67.4805   71.5585   91.6722 H   0  0  0  0  0  0  0  0  0  0  0  0
 21 22  3  0  0  0
 22 15  1  0  0  0
 15 16  2  0  0  0
 16 17  1  0  0  0
 17 18  2  0  0  0
 18 14  1  0  0  0
 14 13  1  0  0  0
 13  7  1  0  0  0
  7  8  2  0  0  0
  8  9  1  0  0  0
  9 10  2  0  0  0
 10 11  1  0  0  0
 11  1  1  0  0  0
  1  2  2  0  0  0
  2  3  1  0  0  0
  3  4  2  0  0  0
  4  5  1  0  0  0
  5 23  1  0  0  0
 23 24  1  0  0  0
 24 25  1  0  0  0
 25 26  2  0  0  0
 26 27  1  0  0  0
 27 28  2  0  0  0
 28 29  1  0  0  0
 28 30  1  0  0  0
 30 33  1  0  0  0
 33 34  2  0  0  0
 33 35  1  0  0  0
 30 31  2  0  0  0
  5  6  2  0  0  0
 11 12  2  0  0  0
 18 19  1  0  0  0
 19 20  2  0  0  0
 20 15  1  0  0  0
 12  7  1  0  0  0
  6  1  1  0  0  0
 31 25  1  0  0  0
 29 32  1  0  0  0
 35 36  1  0  0  0
M  END
> <Activity>
23.7

> <minimizedAffinity>
1.90980

> <CNNscore>
0.8857662082

> <CNNaffinity>
6.3962869644

> <CNN_VS>
5.6656150818

$$$$
HIPS7001


 36 39  0  0  0  0  0  0  0  0999 V2000
   69.2189   77.8040   93.0404 C   0  0  0  0  0  0  0  0  0  0  0  0
   70.1289   76.9871   93.7322 C   0  0  0  0  0  0  0  0  0  0  0  0
   71.4597   76.9058   93.3198 C   0  0  0  0  0  0  0  0  0  0  0  0
   71.8982   77.6264   92.2089 C   0  0  0  0  0  0  0  0  0  0  0  0
   71.0070   78.4598   91.5043 C   0  0  0  0  0  0  0  0  0  0  0  0
   69.6725   78.5471   91.9345 C   0  0  0  0  0  0  0  0  0  0  0  0
   65.6966   76.6824   93.9260 C   0  0  0  0  0  0  0  0  0  0  0  0
   65.1135   77.9085   94.2956 C   0  0  0  0  0  0  0  0  0  0  0  0
   65.8598   79.0869   94.2393 C   0  0  0  0  0  0  0  0  0  0  0  0
   67.1886   79.0571   93.8128 C   0  0  0  0  0  0  0  0  0  0  0  0
   67.7889   77.8423   93.4375 C   0  0  0  0  0  0  0  0  0  0  0  0
   67.0265   76.6590   93.4865 C   0  0  0  0  0  0  0  0  0  0  0  0
   64.9929   75.4689   93.9834 O   0  0  0  0  0  0  0  0  0  0  0  0
   65.1772   74.4648   94.9830 C   0  0  0  0  0  0  0  0  0  0  0  0
   69.1362   72.8279   94.5045 C   0  0  0  0  0  0  0  0  0  0  0  0
   68.8049   73.5184   95.6791 C   0  0  0  0  0  0  0  0  0  0  0  0
   67.5150   74.0313   95.8471 C   0  0  0  0  0  0  0  0  0  0  0  0
   66.5437   73.8528   94.8466 C   0  0  0  0  0  0  0  0  0  0  0  0
   66.8836   73.1648   93.6707 C   0  0  0  0  0  0  0  0  0  0  0  0
   68.1721   72.6478   93.5049 C   0  0  0  0  0  0  0  0  0  0  0  0
   71.5313   71.8792   94.1860 N   0  0  0  0  0  0  0  0  0  0  0  0
   70.4631   72.3017   94.3265 C   0  0  0  0  0  0  0  0  0  0  0  0
   71.4217   79.2526   90.2849 C   0  0  0  0  0  0  0  0  0  0  0  0
   72.1591   80.4346   90.6049 O   0  0  0  0  0  0  0  0  0  0  0  0
   71.7091   81.7553   90.4328 C   0  0  0  0  0  0  0  0  0  0  0  0
   71.9184   82.3632   89.1925 C   0  0  0  0  0  0  0  0  0  0  0  0
   71.5247   83.6833   88.9736 C   0  0  0  0  0  0  0  0  0  0  0  0
   70.9137   84.4229   89.9912 C   0  0  0  0  0  0  0  0  0  0  0  0
   70.6304   85.7673   89.7445 O   0  0  0  0  0  0  0  0  0  0  0  0
   70.6404   83.8058   91.2363 C   0  0  0  0  0  0  0  0  0  0  0  0
   71.0676   82.4828   91.4536 C   0  0  0  0  0  0  0  0  0  0  0  0
   70.8253   86.1413   88.9078 H   0  0  0  0  0  0  0  0  0  0  0  0
   69.8744   84.4908   92.2992 C   0  0  0  0  0  0  0  0  0  0  0  0
   69.8471   84.0139   93.4639 O   0  0  0  0  0  0  0  0  0  0  0  0
   69.1315   85.6312   92.0097 O   0  0  0  0  0  0  0  0  0  0  0  0
   69.1460   85.9929   91.1455 H   0  0  0  0  0  0  0  0  0  0  0  0
 21 22  3  0  0  0
 22 15  1  0  0  0
 15 16  2  0  0  0
 16 17  1  0  0  0
 17 18  2  0  0  0
 18 14  1  0  0  0
 14 13  1  0  0  0
 13  7  1  0  0  0
  7  8  2  0  0  0
  8  9  1  0  0  0
  9 10  2  0  0  0
 10 11  1  0  0  0
 11  1  1  0  0  0
  1  2  2  0  0  0
  2  3  1  0  0  0
  3  4  2  0  0  0
  4  5  1  0  0  0
  5 23  1  0  0  0
 23 24  1  0  0  0
 24 25  1  0  0  0
 25 26  2  0  0  0
 26 27  1  0  0  0
 27 28  2  0  0  0
 28 29  1  0  0  0
 28 30  1  0  0  0
 30 33  1  0  0  0
 33 34  2  0  0  0
 33 35  1  0  0  0
 30 31  2  0  0  0
  5  6  2  0  0  0
 11 12  2  0  0  0
 18 19  1  0  0  0
 19 20  2  0  0  0
 20 15  1  0  0  0
 12  7  1  0  0  0
  6  1  1  0  0  0
 31 25  1  0  0  0
 29 32  1  0  0  0
 35 36  1  0  0  0
M  END
> <Activity>
23.7

> <minimizedAffinity>
-0.01624

> <CNNscore>
0.8814305663

> <CNNaffinity>
6.2621603012

> <CNN_VS>
5.5196595192

$$$$
HIPS7784


 38 41  0  0  0  0  0  0  0  0999 V2000
   71.2104   79.2397   89.7514 C   0  0  0  0  0  0  0  0  0  0  0  0
   70.2251   80.0373   89.1603 C   0  0  0  0  0  0  0  0  0  0  0  0
   69.5093   79.5651   88.1067 N   0  0  0  0  0  0  0  0  0  0  0  0
   69.7186   78.3145   87.6104 C   0  0  0  0  0  0  0  0  0  0  0  0
   70.6612   77.5196   88.1865 N   0  0  0  0  0  0  0  0  0  0  0  0
   71.4014   77.9508   89.2408 C   0  0  0  0  0  0  0  0  0  0  0  0
   68.9298   77.8245   86.4525 C   0  0  0  0  0  0  0  0  0  0  0  0
   68.7195   78.6464   85.3303 C   0  0  0  0  0  0  0  0  0  0  0  0
   67.9863   78.1791   84.2378 C   0  0  0  0  0  0  0  0  0  0  0  0
   67.4630   76.8861   84.2431 C   0  0  0  0  0  0  0  0  0  0  0  0
   67.6712   76.0435   85.3468 C   0  0  0  0  0  0  0  0  0  0  0  0
   68.3890   76.5250   86.4524 C   0  0  0  0  0  0  0  0  0  0  0  0
   67.1756   74.6960   85.3636 N   0  0  0  0  0  0  0  0  0  0  0  0
   66.6748   74.3893   86.1538 H   0  0  0  0  0  0  0  0  0  0  0  0
   67.4194   73.5828   84.0533 S   0  0  0  0  0  0  0  0  0  0  0  0
   68.8753   73.2236   83.9534 O   0  0  0  0  0  0  0  0  0  0  0  0
   66.9962   74.2409   82.7696 O   0  0  0  0  0  0  0  0  0  0  0  0
   66.4414   72.1034   84.2893 C   0  0  0  0  0  0  0  0  0  0  0  0
   67.1837   71.1018   85.1300 C   0  0  0  0  0  0  0  0  0  0  0  0
   67.2465   71.2571   86.5252 C   0  0  0  0  0  0  0  0  0  0  0  0
   67.9598   70.3417   87.3062 C   0  0  0  0  0  0  0  0  0  0  0  0
   68.6223   69.2696   86.7005 C   0  0  0  0  0  0  0  0  0  0  0  0
   68.5664   69.1091   85.3129 C   0  0  0  0  0  0  0  0  0  0  0  0
   67.8502   70.0195   84.5292 C   0  0  0  0  0  0  0  0  0  0  0  0
   72.0117   79.7405   90.9238 C   0  0  0  0  0  0  0  0  0  0  0  0
   72.6587   80.9748   90.6114 O   0  0  0  0  0  0  0  0  0  0  0  0
   70.6007   84.0289   91.3395 C   0  0  0  0  0  0  0  0  0  0  0  0
   71.2182   82.7711   91.5029 C   0  0  0  0  0  0  0  0  0  0  0  0
   72.0185   82.2201   90.4845 C   0  0  0  0  0  0  0  0  0  0  0  0
   72.1892   82.9291   89.2935 C   0  0  0  0  0  0  0  0  0  0  0  0
   71.5829   84.1720   89.1145 C   0  0  0  0  0  0  0  0  0  0  0  0
   70.7923   84.7311   90.1276 C   0  0  0  0  0  0  0  0  0  0  0  0
   70.2050   85.9805   89.9240 O   0  0  0  0  0  0  0  0  0  0  0  0
   70.3399   86.4355   89.1161 H   0  0  0  0  0  0  0  0  0  0  0  0
   69.8288   84.0857   93.5956 O   0  0  0  0  0  0  0  0  0  0  0  0
   69.7686   84.5851   92.4391 C   0  0  0  0  0  0  0  0  0  0  0  0
   68.9131   85.6625   92.2158 O   0  0  0  0  0  0  0  0  0  0  0  0
   68.8555   86.0461   91.3629 H   0  0  0  0  0  0  0  0  0  0  0  0
 35 36  2  0  0  0
 36 37  1  0  0  0
 36 27  1  0  0  0
 27 28  2  0  0  0
 28 29  1  0  0  0
 29 26  1  0  0  0
 26 25  1  0  0  0
 25  1  1  0  0  0
  1  2  2  0  0  0
  2  3  2  0  0  0
  3  4  2  0  0  0
  4  7  1  0  0  0
  7  8  2  0  0  0
  8  9  1  0  0  0
  9 10  2  0  0  0
 10 11  1  0  0  0
 11 13  1  0  0  0
 13 15  1  0  0  0
 15 16  2  0  0  0
 15 17  2  0  0  0
 15 18  1  0  0  0
 18 19  1  0  0  0
 19 20  2  0  0  0
 20 21  1  0  0  0
 21 22  2  0  0  0
 22 23  1  0  0  0
 23 24  2  0  0  0
 11 12  2  0  0  0
  4  5  2  0  0  0
  5  6  2  0  0  0
 29 30  2  0  0  0
 30 31  1  0  0  0
 31 32  2  0  0  0
 32 33  1  0  0  0
 32 27  1  0  0  0
  6  1  1  0  0  0
 12  7  1  0  0  0
 24 19  1  0  0  0
 37 38  1  0  0  0
 13 14  1  0  0  0
 33 34  1  0  0  0
M  END
> <Activity>
29.3

> <minimizedAffinity>
10.54133

> <CNNscore>
0.7003622055

> <CNNaffinity>
5.9999551773

> <CNN_VS>
4.2021417618

$$$$
HIPS7784


 38 41  0  0  0  0  0  0  0  0999 V2000
   71.3861   80.9185   90.7345 C   0  0  0  0  0  0  0  0  0  0  0  0
   71.7225   79.5625   90.6662 C   0  0  0  0  0  0  0  0  0  0  0  0
   70.9913   78.6449   91.3507 N   0  0  0  0  0  0  0  0  0  0  0  0
   69.9169   79.0118   92.1027 C   0  0  0  0  0  0  0  0  0  0  0  0
   69.5659   80.3253   92.1643 N   0  0  0  0  0  0  0  0  0  0  0  0
   70.2690   81.2772   91.4975 C   0  0  0  0  0  0  0  0  0  0  0  0
   69.1391   77.9915   92.8489 C   0  0  0  0  0  0  0  0  0  0  0  0
   67.7461   78.1203   92.9968 C   0  0  0  0  0  0  0  0  0  0  0  0
   67.0152   77.1533   93.6900 C   0  0  0  0  0  0  0  0  0  0  0  0
   67.6584   76.0420   94.2346 C   0  0  0  0  0  0  0  0  0  0  0  0
   69.0461   75.8859   94.0884 C   0  0  0  0  0  0  0  0  0  0  0  0
   69.7802   76.8715   93.4109 C   0  0  0  0  0  0  0  0  0  0  0  0
   69.7283   74.7337   94.6068 N   0  0  0  0  0  0  0  0  0  0  0  0
   70.6614   74.8344   94.9042 H   0  0  0  0  0  0  0  0  0  0  0  0
   68.9821   73.1707   94.7330 S   0  0  0  0  0  0  0  0  0  0  0  0
   68.4813   72.7342   93.3850 O   0  0  0  0  0  0  0  0  0  0  0  0
   67.8137   73.2631   95.6745 O   0  0  0  0  0  0  0  0  0  0  0  0
   70.1403   71.9661   95.3722 C   0  0  0  0  0  0  0  0  0  0  0  0
   70.9424   71.3537   94.2575 C   0  0  0  0  0  0  0  0  0  0  0  0
   70.2939   70.7107   93.1895 C   0  0  0  0  0  0  0  0  0  0  0  0
   71.0391   70.1163   92.1658 C   0  0  0  0  0  0  0  0  0  0  0  0
   72.4364   70.1518   92.2042 C   0  0  0  0  0  0  0  0  0  0  0  0
   73.0893   70.7876   93.2642 C   0  0  0  0  0  0  0  0  0  0  0  0
   72.3476   71.3873   94.2871 C   0  0  0  0  0  0  0  0  0  0  0  0
   72.1790   81.9521   89.9793 C   0  0  0  0  0  0  0  0  0  0  0  0
   71.3400   83.0221   89.5427 O   0  0  0  0  0  0  0  0  0  0  0  0
   69.5876   86.0657   90.8689 C   0  0  0  0  0  0  0  0  0  0  0  0
   70.2962   85.2134   89.9964 C   0  0  0  0  0  0  0  0  0  0  0  0
   70.6430   83.9058   90.3854 C   0  0  0  0  0  0  0  0  0  0  0  0
   70.2876   83.4573   91.6593 C   0  0  0  0  0  0  0  0  0  0  0  0
   69.5902   84.2883   92.5353 C   0  0  0  0  0  0  0  0  0  0  0  0
   69.2335   85.5882   92.1515 C   0  0  0  0  0  0  0  0  0  0  0  0
   68.5280   86.3945   93.0456 O   0  0  0  0  0  0  0  0  0  0  0  0
   68.2994   86.0659   93.8928 H   0  0  0  0  0  0  0  0  0  0  0  0
   68.7910   88.2811   91.2513 O   0  0  0  0  0  0  0  0  0  0  0  0
   69.2301   87.4383   90.4224 C   0  0  0  0  0  0  0  0  0  0  0  0
   69.3738   87.8184   89.0891 O   0  0  0  0  0  0  0  0  0  0  0  0
   69.6986   87.2051   88.4595 H   0  0  0  0  0  0  0  0  0  0  0  0
 35 36  2  0  0  0
 36 37  1  0  0  0
 36 27  1  0  0  0
 27 28  2  0  0  0
 28 29  1  0  0  0
 29 26  1  0  0  0
 26 25  1  0  0  0
 25  1  1  0  0  0
  1  2  2  0  0  0
  2  3  2  0  0  0
  3  4  2  0  0  0
  4  7  1  0  0  0
  7  8  2  0  0  0
  8  9  1  0  0  0
  9 10  2  0  0  0
 10 11  1  0  0  0
 11 13  1  0  0  0
 13 15  1  0  0  0
 15 16  2  0  0  0
 15 17  2  0  0  0
 15 18  1  0  0  0
 18 19  1  0  0  0
 19 20  2  0  0  0
 20 21  1  0  0  0
 21 22  2  0  0  0
 22 23  1  0  0  0
 23 24  2  0  0  0
 11 12  2  0  0  0
  4  5  2  0  0  0
  5  6  2  0  0  0
 29 30  2  0  0  0
 30 31  1  0  0  0
 31 32  2  0  0  0
 32 33  1  0  0  0
 32 27  1  0  0  0
  6  1  1  0  0  0
 12  7  1  0  0  0
 24 19  1  0  0  0
 37 38  1  0  0  0
 13 14  1  0  0  0
 33 34  1  0  0  0
M  END
> <Activity>
29.3

> <minimizedAffinity>
6.66190

> <CNNscore>
0.6973937750

> <CNNaffinity>
5.5555915833

> <CNN_VS>
3.8744349480

$$$$
HIPS7784


 38 41  0  0  0  0  0  0  0  0999 V2000
   71.1076   79.3994   91.2728 C   0  0  0  0  0  0  0  0  0  0  0  0
   70.5740   79.5525   89.9890 C   0  0  0  0  0  0  0  0  0  0  0  0
   70.8060   80.6924   89.2874 N   0  0  0  0  0  0  0  0  0  0  0  0
   71.5644   81.6998   89.8013 C   0  0  0  0  0  0  0  0  0  0  0  0
   72.1057   81.5581   91.0420 N   0  0  0  0  0  0  0  0  0  0  0  0
   71.8990   80.4364   91.7798 C   0  0  0  0  0  0  0  0  0  0  0  0
   71.7961   82.9396   89.0189 C   0  0  0  0  0  0  0  0  0  0  0  0
   71.3569   83.0375   87.6860 C   0  0  0  0  0  0  0  0  0  0  0  0
   71.5664   84.2089   86.9556 C   0  0  0  0  0  0  0  0  0  0  0  0
   72.2049   85.3002   87.5445 C   0  0  0  0  0  0  0  0  0  0  0  0
   72.6404   85.2299   88.8775 C   0  0  0  0  0  0  0  0  0  0  0  0
   72.4484   84.0427   89.6008 C   0  0  0  0  0  0  0  0  0  0  0  0
   73.2672   86.3505   89.5201 N   0  0  0  0  0  0  0  0  0  0  0  0
   73.8092   86.1876   90.3257 H   0  0  0  0  0  0  0  0  0  0  0  0
   73.1127   87.9803   88.9407 S   0  0  0  0  0  0  0  0  0  0  0  0
   74.0039   88.1842   87.7478 O   0  0  0  0  0  0  0  0  0  0  0  0
   73.5390   88.9266   90.0282 O   0  0  0  0  0  0  0  0  0  0  0  0
   71.4156   88.3378   88.5016 C   0  0  0  0  0  0  0  0  0  0  0  0
   70.4999   88.0942   89.6692 C   0  0  0  0  0  0  0  0  0  0  0  0
   69.5768   87.0352   89.6356 C   0  0  0  0  0  0  0  0  0  0  0  0
   68.7051   86.8239   90.7090 C   0  0  0  0  0  0  0  0  0  0  0  0
   68.7424   87.6722   91.8200 C   0  0  0  0  0  0  0  0  0  0  0  0
   69.6563   88.7292   91.8603 C   0  0  0  0  0  0  0  0  0  0  0  0
   70.5328   88.9407   90.7911 C   0  0  0  0  0  0  0  0  0  0  0  0
   70.8681   78.1422   92.0660 C   0  0  0  0  0  0  0  0  0  0  0  0
   69.8504   78.3425   93.0477 O   0  0  0  0  0  0  0  0  0  0  0  0
   68.2540   75.2622   94.4814 C   0  0  0  0  0  0  0  0  0  0  0  0
   69.2431   76.1918   94.0976 C   0  0  0  0  0  0  0  0  0  0  0  0
   68.8966   77.3862   93.4382 C   0  0  0  0  0  0  0  0  0  0  0  0
   67.5537   77.6418   93.1527 C   0  0  0  0  0  0  0  0  0  0  0  0
   66.5640   76.7317   93.5220 C   0  0  0  0  0  0  0  0  0  0  0  0
   66.9005   75.5448   94.1870 C   0  0  0  0  0  0  0  0  0  0  0  0
   65.8881   74.6566   94.5524 O   0  0  0  0  0  0  0  0  0  0  0  0
   64.9949   74.8558   94.3513 H   0  0  0  0  0  0  0  0  0  0  0  0
   69.7928   73.5103   94.9831 O   0  0  0  0  0  0  0  0  0  0  0  0
   68.6544   74.0143   95.1839 C   0  0  0  0  0  0  0  0  0  0  0  0
   67.7867   73.3823   96.0729 O   0  0  0  0  0  0  0  0  0  0  0  0
   66.9370   73.7428   96.2342 H   0  0  0  0  0  0  0  0  0  0  0  0
 35 36  2  0  0  0
 36 37  1  0  0  0
 36 27  1  0  0  0
 27 28  2  0  0  0
 28 29  1  0  0  0
 29 26  1  0  0  0
 26 25  1  0  0  0
 25  1  1  0  0  0
  1  2  2  0  0  0
  2  3  2  0  0  0
  3  4  2  0  0  0
  4  7  1  0  0  0
  7  8  2  0  0  0
  8  9  1  0  0  0
  9 10  2  0  0  0
 10 11  1  0  0  0
 11 13  1  0  0  0
 13 15  1  0  0  0
 15 16  2  0  0  0
 15 17  2  0  0  0
 15 18  1  0  0  0
 18 19  1  0  0  0
 19 20  2  0  0  0
 20 21  1  0  0  0
 21 22  2  0  0  0
 22 23  1  0  0  0
 23 24  2  0  0  0
 11 12  2  0  0  0
  4  5  2  0  0  0
  5  6  2  0  0  0
 29 30  2  0  0  0
 30 31  1  0  0  0
 31 32  2  0  0  0
 32 33  1  0  0  0
 32 27  1  0  0  0
  6  1  1  0  0  0
 12  7  1  0  0  0
 24 19  1  0  0  0
 37 38  1  0  0  0
 13 14  1  0  0  0
 33 34  1  0  0  0
M  END
> <Activity>
29.3

> <minimizedAffinity>
-1.55901

> <CNNscore>
0.6867035627

> <CNNaffinity>
6.0037097931

> <CNN_VS>
4.1227688789

$$$$
HIPS6986


 30 32  0  0  0  0  0  0  0  0999 V2000
   71.6278   79.8469   90.6972 C   0  0  0  0  0  0  0  0  0  0  0  0
   72.3637   79.1893   89.6948 C   0  0  0  0  0  0  0  0  0  0  0  0
   72.6019   77.8154   89.7770 C   0  0  0  0  0  0  0  0  0  0  0  0
   72.1178   77.0818   90.8618 C   0  0  0  0  0  0  0  0  0  0  0  0
   71.3911   77.7196   91.8789 C   0  0  0  0  0  0  0  0  0  0  0  0
   71.1334   79.0972   91.7813 C   0  0  0  0  0  0  0  0  0  0  0  0
   70.7371   83.4105   91.6920 C   0  0  0  0  0  0  0  0  0  0  0  0
   70.9147   84.0798   90.4662 C   0  0  0  0  0  0  0  0  0  0  0  0
   71.3198   83.3735   89.3322 C   0  0  0  0  0  0  0  0  0  0  0  0
   71.5539   81.9989   89.4050 C   0  0  0  0  0  0  0  0  0  0  0  0
   71.3882   81.3119   90.6208 C   0  0  0  0  0  0  0  0  0  0  0  0
   70.9817   82.0328   91.7593 C   0  0  0  0  0  0  0  0  0  0  0  0
   70.3298   84.0670   92.8658 O   0  0  0  0  0  0  0  0  0  0  0  0
   68.6549   84.3873   94.5983 C   0  0  0  0  0  0  0  0  0  0  0  0
   69.0226   84.5843   93.1241 C   0  0  0  0  0  0  0  0  0  0  0  0
   69.0066   86.0699   92.7707 C   0  0  0  0  0  0  0  0  0  0  0  0
   70.8573   76.9333   93.0436 C   0  0  0  0  0  0  0  0  0  0  0  0
   69.5861   77.4517   93.4299 O   0  0  0  0  0  0  0  0  0  0  0  0
   68.4823   76.6671   93.7952 C   0  0  0  0  0  0  0  0  0  0  0  0
   67.1754   76.9587   93.3690 C   0  0  0  0  0  0  0  0  0  0  0  0
   66.1143   76.1338   93.7461 C   0  0  0  0  0  0  0  0  0  0  0  0
   66.3348   75.0145   94.5606 C   0  0  0  0  0  0  0  0  0  0  0  0
   65.2542   74.2072   94.9178 O   0  0  0  0  0  0  0  0  0  0  0  0
   67.6424   74.7139   95.0070 C   0  0  0  0  0  0  0  0  0  0  0  0
   68.7040   75.5523   94.6108 C   0  0  0  0  0  0  0  0  0  0  0  0
   64.3925   74.4171   94.6155 H   0  0  0  0  0  0  0  0  0  0  0  0
   67.9216   73.5403   95.8756 C   0  0  0  0  0  0  0  0  0  0  0  0
   67.0491   73.1309   96.6892 O   0  0  0  0  0  0  0  0  0  0  0  0
   69.1433   72.8767   95.8096 O   0  0  0  0  0  0  0  0  0  0  0  0
   69.8027   73.1676   95.2108 H   0  0  0  0  0  0  0  0  0  0  0  0
 14 15  1  0  0  0
 15 16  1  0  0  0
 15 13  1  0  0  0
 13  7  1  0  0  0
  7  8  2  0  0  0
  8  9  1  0  0  0
  9 10  2  0  0  0
 10 11  1  0  0  0
 11  1  1  0  0  0
  1  2  2  0  0  0
  2  3  1  0  0  0
  3  4  2  0  0  0
  4  5  1  0  0  0
  5 17  1  0  0  0
 17 18  1  0  0  0
 18 19  1  0  0  0
 19 20  2  0  0  0
 20 21  1  0  0  0
 21 22  2  0  0  0
 22 23  1  0  0  0
 22 24  1  0  0  0
 24 27  1  0  0  0
 27 28  2  0  0  0
 27 29  1  0  0  0
 24 25  2  0  0  0
  5  6  2  0  0  0
 11 12  2  0  0  0
 12  7  1  0  0  0
  6  1  1  0  0  0
 25 19  1  0  0  0
 23 26  1  0  0  0
 29 30  1  0  0  0
M  END
> <Activity>
32.3

> <minimizedAffinity>
-4.04799

> <CNNscore>
0.8684173226

> <CNNaffinity>
5.7249507904

> <CNN_VS>
4.9716463089

$$$$
HIPS6986


 30 32  0  0  0  0  0  0  0  0999 V2000
   71.6276   79.8507   90.6729 C   0  0  0  0  0  0  0  0  0  0  0  0
   72.3595   79.1890   89.6703 C   0  0  0  0  0  0  0  0  0  0  0  0
   72.6031   77.8165   89.7603 C   0  0  0  0  0  0  0  0  0  0  0  0
   72.1285   77.0886   90.8530 C   0  0  0  0  0  0  0  0  0  0  0  0
   71.4060   77.7308   91.8704 C   0  0  0  0  0  0  0  0  0  0  0  0
   71.1427   79.1067   91.7652 C   0  0  0  0  0  0  0  0  0  0  0  0
   71.4743   83.4081   89.3297 C   0  0  0  0  0  0  0  0  0  0  0  0
   70.9373   84.0873   90.4398 C   0  0  0  0  0  0  0  0  0  0  0  0
   70.6309   83.3897   91.6096 C   0  0  0  0  0  0  0  0  0  0  0  0
   70.8524   82.0133   91.6872 C   0  0  0  0  0  0  0  0  0  0  0  0
   71.3823   81.3143   90.5881 C   0  0  0  0  0  0  0  0  0  0  0  0
   71.6862   82.0258   89.4121 C   0  0  0  0  0  0  0  0  0  0  0  0
   71.8036   84.0561   88.1271 O   0  0  0  0  0  0  0  0  0  0  0  0
   72.6307   86.3253   87.8509 C   0  0  0  0  0  0  0  0  0  0  0  0
   71.4243   85.3849   87.7620 C   0  0  0  0  0  0  0  0  0  0  0  0
   70.8773   85.3625   86.3364 C   0  0  0  0  0  0  0  0  0  0  0  0
   70.8823   76.9505   93.0438 C   0  0  0  0  0  0  0  0  0  0  0  0
   69.6157   77.4725   93.4401 O   0  0  0  0  0  0  0  0  0  0  0  0
   68.5131   76.6911   93.8157 C   0  0  0  0  0  0  0  0  0  0  0  0
   67.2006   76.9983   93.4188 C   0  0  0  0  0  0  0  0  0  0  0  0
   66.1406   76.1762   93.8048 C   0  0  0  0  0  0  0  0  0  0  0  0
   66.3681   75.0441   94.5996 C   0  0  0  0  0  0  0  0  0  0  0  0
   65.2883   74.2399   94.9664 O   0  0  0  0  0  0  0  0  0  0  0  0
   67.6816   74.7277   95.0166 C   0  0  0  0  0  0  0  0  0  0  0  0
   68.7418   75.5636   94.6117 C   0  0  0  0  0  0  0  0  0  0  0  0
   64.4226   74.4604   94.6836 H   0  0  0  0  0  0  0  0  0  0  0  0
   67.9683   73.5402   95.8636 C   0  0  0  0  0  0  0  0  0  0  0  0
   67.1047   73.1202   96.6813 O   0  0  0  0  0  0  0  0  0  0  0  0
   69.1874   72.8748   95.7725 O   0  0  0  0  0  0  0  0  0  0  0  0
   69.8403   73.1734   95.1704 H   0  0  0  0  0  0  0  0  0  0  0  0
 14 15  1  0  0  0
 15 16  1  0  0  0
 15 13  1  0  0  0
 13  7  1  0  0  0
  7  8  2  0  0  0
  8  9  1  0  0  0
  9 10  2  0  0  0
 10 11  1  0  0  0
 11  1  1  0  0  0
  1  2  2  0  0  0
  2  3  1  0  0  0
  3  4  2  0  0  0
  4  5  1  0  0  0
  5 17  1  0  0  0
 17 18  1  0  0  0
 18 19  1  0  0  0
 19 20  2  0  0  0
 20 21  1  0  0  0
 21 22  2  0  0  0
 22 23  1  0  0  0
 22 24  1  0  0  0
 24 27  1  0  0  0
 27 28  2  0  0  0
 27 29  1  0  0  0
 24 25  2  0  0  0
  5  6  2  0  0  0
 11 12  2  0  0  0
 12  7  1  0  0  0
  6  1  1  0  0  0
 25 19  1  0  0  0
 23 26  1  0  0  0
 29 30  1  0  0  0
M  END
> <Activity>
32.3

> <minimizedAffinity>
-5.00315

> <CNNscore>
0.8679931760

> <CNNaffinity>
5.7690000534

> <CNN_VS>
5.0074524879

$$$$
HIPS6986


 30 32  0  0  0  0  0  0  0  0999 V2000
   69.7939   77.6543   92.9667 C   0  0  0  0  0  0  0  0  0  0  0  0
   70.0828   76.5242   93.7529 C   0  0  0  0  0  0  0  0  0  0  0  0
   69.2189   76.1359   94.7796 C   0  0  0  0  0  0  0  0  0  0  0  0
   68.0621   76.8726   95.0410 C   0  0  0  0  0  0  0  0  0  0  0  0
   67.7604   78.0101   94.2766 C   0  0  0  0  0  0  0  0  0  0  0  0
   68.6193   78.3843   93.2297 C   0  0  0  0  0  0  0  0  0  0  0  0
   71.4345   79.7385   90.2378 C   0  0  0  0  0  0  0  0  0  0  0  0
   72.4630   78.8708   89.8242 C   0  0  0  0  0  0  0  0  0  0  0  0
   72.6156   77.6225   90.4305 C   0  0  0  0  0  0  0  0  0  0  0  0
   71.7510   77.2258   91.4527 C   0  0  0  0  0  0  0  0  0  0  0  0
   70.7207   78.0795   91.8852 C   0  0  0  0  0  0  0  0  0  0  0  0
   70.5761   79.3370   91.2695 C   0  0  0  0  0  0  0  0  0  0  0  0
   71.2307   81.0053   89.6647 O   0  0  0  0  0  0  0  0  0  0  0  0
   71.7904   83.2778   89.0077 C   0  0  0  0  0  0  0  0  0  0  0  0
   71.7945   82.2339   90.1291 C   0  0  0  0  0  0  0  0  0  0  0  0
   70.9716   82.7313   91.3154 C   0  0  0  0  0  0  0  0  0  0  0  0
   66.5104   78.8009   94.5455 C   0  0  0  0  0  0  0  0  0  0  0  0
   66.7389   80.1761   94.2448 O   0  0  0  0  0  0  0  0  0  0  0  0
   67.1575   81.1375   95.1764 C   0  0  0  0  0  0  0  0  0  0  0  0
   67.1470   80.9005   96.5614 C   0  0  0  0  0  0  0  0  0  0  0  0
   67.5923   81.8853   97.4448 C   0  0  0  0  0  0  0  0  0  0  0  0
   68.0437   83.1229   96.9656 C   0  0  0  0  0  0  0  0  0  0  0  0
   68.4859   84.0858   97.8735 O   0  0  0  0  0  0  0  0  0  0  0  0
   68.0500   83.3809   95.5754 C   0  0  0  0  0  0  0  0  0  0  0  0
   67.6046   82.3731   94.6963 C   0  0  0  0  0  0  0  0  0  0  0  0
   68.4767   83.9026   98.7924 H   0  0  0  0  0  0  0  0  0  0  0  0
   68.5156   84.6803   95.0235 C   0  0  0  0  0  0  0  0  0  0  0  0
   69.3281   84.7058   94.0592 O   0  0  0  0  0  0  0  0  0  0  0  0
   68.0683   85.8852   95.5579 O   0  0  0  0  0  0  0  0  0  0  0  0
   67.4646   85.8845   96.2744 H   0  0  0  0  0  0  0  0  0  0  0  0
 14 15  1  0  0  0
 15 16  1  0  0  0
 15 13  1  0  0  0
 13  7  1  0  0  0
  7  8  2  0  0  0
  8  9  1  0  0  0
  9 10  2  0  0  0
 10 11  1  0  0  0
 11  1  1  0  0  0
  1  2  2  0  0  0
  2  3  1  0  0  0
  3  4  2  0  0  0
  4  5  1  0  0  0
  5 17  1  0  0  0
 17 18  1  0  0  0
 18 19  1  0  0  0
 19 20  2  0  0  0
 20 21  1  0  0  0
 21 22  2  0  0  0
 22 23  1  0  0  0
 22 24  1  0  0  0
 24 27  1  0  0  0
 27 28  2  0  0  0
 27 29  1  0  0  0
 24 25  2  0  0  0
  5  6  2  0  0  0
 11 12  2  0  0  0
 12  7  1  0  0  0
  6  1  1  0  0  0
 25 19  1  0  0  0
 23 26  1  0  0  0
 29 30  1  0  0  0
M  END
> <Activity>
32.3

> <minimizedAffinity>
2.52591

> <CNNscore>
0.8559873104

> <CNNaffinity>
5.6452608109

> <CNN_VS>
4.8322715759

$$$$
HIPS7781


 41 44  0  0  0  0  0  0  0  0999 V2000
   70.7942   78.1421   88.7635 C   0  0  0  0  0  0  0  0  0  0  0  0
   71.4159   77.3882   89.7703 C   0  0  0  0  0  0  0  0  0  0  0  0
   71.8941   78.0088   90.9246 C   0  0  0  0  0  0  0  0  0  0  0  0
   71.7664   79.3897   91.0832 C   0  0  0  0  0  0  0  0  0  0  0  0
   71.1745   80.1744   90.0729 C   0  0  0  0  0  0  0  0  0  0  0  0
   70.7014   79.5387   88.9100 C   0  0  0  0  0  0  0  0  0  0  0  0
   71.0403   81.6428   90.2352 C   0  0  0  0  0  0  0  0  0  0  0  0
   70.6525   82.1694   91.4290 N   0  0  0  0  0  0  0  0  0  0  0  0
   70.4994   83.5075   91.5954 C   0  0  0  0  0  0  0  0  0  0  0  0
   70.7524   84.3804   90.5306 C   0  0  0  0  0  0  0  0  0  0  0  0
   71.1419   83.8242   89.3075 C   0  0  0  0  0  0  0  0  0  0  0  0
   71.2784   82.4774   89.1867 N   0  0  0  0  0  0  0  0  0  0  0  0
   70.5579   85.8637   90.6906 C   0  0  0  0  0  0  0  0  0  0  0  0
   69.1685   86.1773   90.7827 O   0  0  0  0  0  0  0  0  0  0  0  0
   68.5284   86.7116   91.9140 C   0  0  0  0  0  0  0  0  0  0  0  0
   67.4779   87.6423   91.8262 C   0  0  0  0  0  0  0  0  0  0  0  0
   66.8711   88.1221   92.9883 C   0  0  0  0  0  0  0  0  0  0  0  0
   67.3023   87.7052   94.2564 C   0  0  0  0  0  0  0  0  0  0  0  0
   66.6825   88.2867   95.3695 O   0  0  0  0  0  0  0  0  0  0  0  0
   68.3473   86.7483   94.3597 C   0  0  0  0  0  0  0  0  0  0  0  0
   68.9507   86.2774   93.1759 C   0  0  0  0  0  0  0  0  0  0  0  0
   65.9968   88.9139   95.2494 H   0  0  0  0  0  0  0  0  0  0  0  0
   68.8087   86.1833   95.6534 C   0  0  0  0  0  0  0  0  0  0  0  0
   68.9956   86.9214   96.6607 O   0  0  0  0  0  0  0  0  0  0  0  0
   68.9691   84.8012   95.7854 O   0  0  0  0  0  0  0  0  0  0  0  0
   68.8337   84.2411   95.0464 H   0  0  0  0  0  0  0  0  0  0  0  0
   68.6533   79.0557   87.0630 O   0  0  0  0  0  0  0  0  0  0  0  0
   69.2393   77.9771   86.7680 C   0  0  0  0  0  0  0  0  0  0  0  0
   70.3077   77.4781   87.5862 N   0  0  0  0  0  0  0  0  0  0  0  0
   70.7328   76.6294   87.3248 H   0  0  0  0  0  0  0  0  0  0  0  0
   68.7770   77.1940   85.5721 C   0  0  0  0  0  0  0  0  0  0  0  0
   67.5593   76.3201   85.8970 C   0  0  0  0  0  0  0  0  0  0  0  0
   66.9175   75.6909   84.6484 C   0  0  0  0  0  0  0  0  0  0  0  0
   67.6259   74.5304   84.2080 O   0  0  0  0  0  0  0  0  0  0  0  0
   67.5199   73.2489   84.7729 C   0  0  0  0  0  0  0  0  0  0  0  0
   68.1304   72.1793   84.1060 C   0  0  0  0  0  0  0  0  0  0  0  0
   68.0922   70.8906   84.6502 C   0  0  0  0  0  0  0  0  0  0  0  0
   67.4336   70.6617   85.8634 C   0  0  0  0  0  0  0  0  0  0  0  0
   67.4064   69.0492   86.5555 Cl  0  0  0  0  0  0  0  0  0  0  0  0
   66.8029   71.7167   86.5250 C   0  0  0  0  0  0  0  0  0  0  0  0
   66.8370   73.0061   85.9803 C   0  0  0  0  0  0  0  0  0  0  0  0
 27 28  2  0  0  0
 28 31  1  0  0  0
 31 32  1  0  0  0
 32 33  1  0  0  0
 33 34  1  0  0  0
 34 35  1  0  0  0
 35 36  2  0  0  0
 36 37  1  0  0  0
 37 38  2  0  0  0
 38 39  1  0  0  0
 38 40  1  0  0  0
 40 41  2  0  0  0
 28 29  1  0  0  0
 29  1  1  0  0  0
  1  2  2  0  0  0
  2  3  1  0  0  0
  3  4  2  0  0  0
  4  5  1  0  0  0
  5  7  1  0  0  0
  7  8  2  0  0  0
  8  9  2  0  0  0
  9 10  2  0  0  0
 10 13  1  0  0  0
 13 14  1  0  0  0
 14 15  1  0  0  0
 15 16  2  0  0  0
 16 17  1  0  0  0
 17 18  2  0  0  0
 18 19  1  0  0  0
 18 20  1  0  0  0
 20 23  1  0  0  0
 23 24  2  0  0  0
 23 25  1  0  0  0
 20 21  2  0  0  0
 10 11  1  0  0  0
 11 12  2  0  0  0
  5  6  2  0  0  0
 41 35  1  0  0  0
  6  1  1  0  0  0
 12  7  2  0  0  0
 21 15  1  0  0  0
 29 30  1  0  0  0
 19 22  1  0  0  0
 25 26  1  0  0  0
M  END
> <Activity>
32.3

> <minimizedAffinity>
5.28583

> <CNNscore>
0.8603652120

> <CNNaffinity>
6.3080787659

> <CNN_VS>
5.4272513390

$$$$
HIPS7781


 41 44  0  0  0  0  0  0  0  0999 V2000
   70.8999   78.5955   89.1017 C   0  0  0  0  0  0  0  0  0  0  0  0
   71.3010   78.0847   90.3453 C   0  0  0  0  0  0  0  0  0  0  0  0
   71.6577   78.9474   91.3819 C   0  0  0  0  0  0  0  0  0  0  0  0
   71.6278   80.3292   91.1866 C   0  0  0  0  0  0  0  0  0  0  0  0
   71.2592   80.8675   89.9371 C   0  0  0  0  0  0  0  0  0  0  0  0
   70.9075   79.9877   88.8966 C   0  0  0  0  0  0  0  0  0  0  0  0
   71.2299   82.3352   89.7235 C   0  0  0  0  0  0  0  0  0  0  0  0
   70.8740   83.1700   90.7381 N   0  0  0  0  0  0  0  0  0  0  0  0
   70.8165   84.5142   90.5606 C   0  0  0  0  0  0  0  0  0  0  0  0
   71.1377   85.0722   89.3175 C   0  0  0  0  0  0  0  0  0  0  0  0
   71.4933   84.2012   88.2821 C   0  0  0  0  0  0  0  0  0  0  0  0
   71.5335   82.8613   88.5055 N   0  0  0  0  0  0  0  0  0  0  0  0
   71.0492   86.5578   89.0967 C   0  0  0  0  0  0  0  0  0  0  0  0
   69.7240   87.0220   89.3527 O   0  0  0  0  0  0  0  0  0  0  0  0
   69.2504   87.4877   90.5911 C   0  0  0  0  0  0  0  0  0  0  0  0
   69.8874   88.5121   91.3138 C   0  0  0  0  0  0  0  0  0  0  0  0
   69.3561   88.9424   92.5309 C   0  0  0  0  0  0  0  0  0  0  0  0
   68.1977   88.3573   93.0636 C   0  0  0  0  0  0  0  0  0  0  0  0
   67.7715   88.8041   94.3206 O   0  0  0  0  0  0  0  0  0  0  0  0
   67.5309   87.3372   92.3336 C   0  0  0  0  0  0  0  0  0  0  0  0
   68.0836   86.9128   91.1081 C   0  0  0  0  0  0  0  0  0  0  0  0
   68.2457   89.4805   94.7629 H   0  0  0  0  0  0  0  0  0  0  0  0
   66.2527   86.7230   92.7753 C   0  0  0  0  0  0  0  0  0  0  0  0
   65.6034   85.9474   92.0195 O   0  0  0  0  0  0  0  0  0  0  0  0
   65.7933   86.9450   94.0765 O   0  0  0  0  0  0  0  0  0  0  0  0
   66.2649   87.5180   94.6485 H   0  0  0  0  0  0  0  0  0  0  0  0
   68.8455   79.0223   87.1250 O   0  0  0  0  0  0  0  0  0  0  0  0
   69.5049   77.9465   87.0867 C   0  0  0  0  0  0  0  0  0  0  0  0
   70.5346   77.6853   88.0519 N   0  0  0  0  0  0  0  0  0  0  0  0
   71.0198   76.8309   87.9909 H   0  0  0  0  0  0  0  0  0  0  0  0
   69.1711   76.9178   86.0440 C   0  0  0  0  0  0  0  0  0  0  0  0
   67.8685   77.2527   85.3070 C   0  0  0  0  0  0  0  0  0  0  0  0
   66.8679   76.0843   85.2884 C   0  0  0  0  0  0  0  0  0  0  0  0
   67.3326   74.9927   84.4916 O   0  0  0  0  0  0  0  0  0  0  0  0
   67.4047   73.6534   84.9085 C   0  0  0  0  0  0  0  0  0  0  0  0
   66.7787   73.3001   86.1105 C   0  0  0  0  0  0  0  0  0  0  0  0
   66.7830   71.9706   86.5473 C   0  0  0  0  0  0  0  0  0  0  0  0
   67.4229   70.9854   85.7871 C   0  0  0  0  0  0  0  0  0  0  0  0
   67.4076   69.3151   86.3252 Cl  0  0  0  0  0  0  0  0  0  0  0  0
   68.0688   71.3308   84.5988 C   0  0  0  0  0  0  0  0  0  0  0  0
   68.0687   72.6610   84.1619 C   0  0  0  0  0  0  0  0  0  0  0  0
 27 28  2  0  0  0
 28 31  1  0  0  0
 31 32  1  0  0  0
 32 33  1  0  0  0
 33 34  1  0  0  0
 34 35  1  0  0  0
 35 36  2  0  0  0
 36 37  1  0  0  0
 37 38  2  0  0  0
 38 39  1  0  0  0
 38 40  1  0  0  0
 40 41  2  0  0  0
 28 29  1  0  0  0
 29  1  1  0  0  0
  1  2  2  0  0  0
  2  3  1  0  0  0
  3  4  2  0  0  0
  4  5  1  0  0  0
  5  7  1  0  0  0
  7  8  2  0  0  0
  8  9  2  0  0  0
  9 10  2  0  0  0
 10 13  1  0  0  0
 13 14  1  0  0  0
 14 15  1  0  0  0
 15 16  2  0  0  0
 16 17  1  0  0  0
 17 18  2  0  0  0
 18 19  1  0  0  0
 18 20  1  0  0  0
 20 23  1  0  0  0
 23 24  2  0  0  0
 23 25  1  0  0  0
 20 21  2  0  0  0
 10 11  1  0  0  0
 11 12  2  0  0  0
  5  6  2  0  0  0
 41 35  1  0  0  0
  6  1  1  0  0  0
 12  7  2  0  0  0
 21 15  1  0  0  0
 29 30  1  0  0  0
 19 22  1  0  0  0
 25 26  1  0  0  0
M  END
> <Activity>
32.3

> <minimizedAffinity>
3.88722

> <CNNscore>
0.8347404599

> <CNNaffinity>
6.4650430679

> <CNN_VS>
5.3966331482

$$$$
HIPS7781


 41 44  0  0  0  0  0  0  0  0999 V2000
   71.3681   80.1188   90.3872 C   0  0  0  0  0  0  0  0  0  0  0  0
   72.3915   79.3944   89.7576 C   0  0  0  0  0  0  0  0  0  0  0  0
   72.6379   78.0673   90.1098 C   0  0  0  0  0  0  0  0  0  0  0  0
   71.8726   77.4507   91.1012 C   0  0  0  0  0  0  0  0  0  0  0  0
   70.8594   78.1656   91.7714 C   0  0  0  0  0  0  0  0  0  0  0  0
   70.6239   79.5058   91.4124 C   0  0  0  0  0  0  0  0  0  0  0  0
   70.0464   77.5158   92.8284 C   0  0  0  0  0  0  0  0  0  0  0  0
   70.6454   76.7573   93.7869 N   0  0  0  0  0  0  0  0  0  0  0  0
   69.9210   76.1333   94.7499 C   0  0  0  0  0  0  0  0  0  0  0  0
   68.5282   76.2707   94.7802 C   0  0  0  0  0  0  0  0  0  0  0  0
   67.9260   77.0462   93.7837 C   0  0  0  0  0  0  0  0  0  0  0  0
   68.6919   77.6495   92.8369 N   0  0  0  0  0  0  0  0  0  0  0  0
   67.7088   75.5606   95.8231 C   0  0  0  0  0  0  0  0  0  0  0  0
   66.9216   74.5319   95.2236 O   0  0  0  0  0  0  0  0  0  0  0  0
   67.4101   73.5245   94.3742 C   0  0  0  0  0  0  0  0  0  0  0  0
   66.7072   73.0759   93.2419 C   0  0  0  0  0  0  0  0  0  0  0  0
   67.2554   72.0835   92.4275 C   0  0  0  0  0  0  0  0  0  0  0  0
   68.4978   71.5047   92.7265 C   0  0  0  0  0  0  0  0  0  0  0  0
   68.9422   70.4701   91.8939 O   0  0  0  0  0  0  0  0  0  0  0  0
   69.2294   71.9640   93.8544 C   0  0  0  0  0  0  0  0  0  0  0  0
   68.6589   72.9643   94.6675 C   0  0  0  0  0  0  0  0  0  0  0  0
   68.4230   70.2027   91.1611 H   0  0  0  0  0  0  0  0  0  0  0  0
   70.5889   71.4739   94.1974 C   0  0  0  0  0  0  0  0  0  0  0  0
   70.8063   70.8431   95.2694 O   0  0  0  0  0  0  0  0  0  0  0  0
   71.6352   71.6461   93.2868 O   0  0  0  0  0  0  0  0  0  0  0  0
   71.4884   72.1120   92.4872 H   0  0  0  0  0  0  0  0  0  0  0  0
   71.2967   82.3912   92.1596 O   0  0  0  0  0  0  0  0  0  0  0  0
   71.1119   82.5828   90.9255 C   0  0  0  0  0  0  0  0  0  0  0  0
   71.1330   81.4830   90.0036 N   0  0  0  0  0  0  0  0  0  0  0  0
   70.9770   81.6752   89.0507 H   0  0  0  0  0  0  0  0  0  0  0  0
   70.8245   83.9730   90.4337 C   0  0  0  0  0  0  0  0  0  0  0  0
   70.0057   84.7805   91.4484 C   0  0  0  0  0  0  0  0  0  0  0  0
   69.4867   86.1131   90.8814 C   0  0  0  0  0  0  0  0  0  0  0  0
   69.7960   86.2628   89.4942 O   0  0  0  0  0  0  0  0  0  0  0  0
   70.9518   86.8724   88.9790 C   0  0  0  0  0  0  0  0  0  0  0  0
   71.2360   88.1872   89.3690 C   0  0  0  0  0  0  0  0  0  0  0  0
   72.3985   88.8237   88.9195 C   0  0  0  0  0  0  0  0  0  0  0  0
   73.2813   88.1504   88.0678 C   0  0  0  0  0  0  0  0  0  0  0  0
   74.7498   88.9424   87.5237 Cl  0  0  0  0  0  0  0  0  0  0  0  0
   72.9960   86.8477   87.6555 C   0  0  0  0  0  0  0  0  0  0  0  0
   71.8317   86.2104   88.1012 C   0  0  0  0  0  0  0  0  0  0  0  0
 27 28  2  0  0  0
 28 31  1  0  0  0
 31 32  1  0  0  0
 32 33  1  0  0  0
 33 34  1  0  0  0
 34 35  1  0  0  0
 35 36  2  0  0  0
 36 37  1  0  0  0
 37 38  2  0  0  0
 38 39  1  0  0  0
 38 40  1  0  0  0
 40 41  2  0  0  0
 28 29  1  0  0  0
 29  1  1  0  0  0
  1  2  2  0  0  0
  2  3  1  0  0  0
  3  4  2  0  0  0
  4  5  1  0  0  0
  5  7  1  0  0  0
  7  8  2  0  0  0
  8  9  2  0  0  0
  9 10  2  0  0  0
 10 13  1  0  0  0
 13 14  1  0  0  0
 14 15  1  0  0  0
 15 16  2  0  0  0
 16 17  1  0  0  0
 17 18  2  0  0  0
 18 19  1  0  0  0
 18 20  1  0  0  0
 20 23  1  0  0  0
 23 24  2  0  0  0
 23 25  1  0  0  0
 20 21  2  0  0  0
 10 11  1  0  0  0
 11 12  2  0  0  0
  5  6  2  0  0  0
 41 35  1  0  0  0
  6  1  1  0  0  0
 12  7  2  0  0  0
 21 15  1  0  0  0
 29 30  1  0  0  0
 19 22  1  0  0  0
 25 26  1  0  0  0
M  END
> <Activity>
32.3

> <minimizedAffinity>
-0.06638

> <CNNscore>
0.7953168154

> <CNNaffinity>
6.1835203171

> <CNN_VS>
4.9178576469

$$$$
HIPS7785


 42 46  0  0  0  0  0  0  0  0999 V2000
   71.6461   79.9580   90.6172 C   0  0  0  0  0  0  0  0  0  0  0  0
   72.3980   79.1952   89.7502 C   0  0  0  0  0  0  0  0  0  0  0  0
   72.5620   77.8341   89.9088 C   0  0  0  0  0  0  0  0  0  0  0  0
   71.9458   77.2093   90.9829 C   0  0  0  0  0  0  0  0  0  0  0  0
   71.1830   77.9392   91.8751 C   0  0  0  0  0  0  0  0  0  0  0  0
   71.0512   79.2971   91.6710 C   0  0  0  0  0  0  0  0  0  0  0  0
   71.1799   84.1335   90.0816 C   0  0  0  0  0  0  0  0  0  0  0  0
   70.5376   83.4662   91.1045 C   0  0  0  0  0  0  0  0  0  0  0  0
   70.6977   82.1353   91.2602 N   0  0  0  0  0  0  0  0  0  0  0  0
   71.4730   81.3982   90.4485 C   0  0  0  0  0  0  0  0  0  0  0  0
   72.1008   82.0430   89.4510 N   0  0  0  0  0  0  0  0  0  0  0  0
   71.9752   83.3694   89.2515 C   0  0  0  0  0  0  0  0  0  0  0  0
   71.0157   85.6023   89.8933 C   0  0  0  0  0  0  0  0  0  0  0  0
   69.6386   85.9023   89.8039 O   0  0  0  0  0  0  0  0  0  0  0  0
   68.9455   87.6622   92.9487 C   0  0  0  0  0  0  0  0  0  0  0  0
   69.6396   87.0828   91.9002 C   0  0  0  0  0  0  0  0  0  0  0  0
   68.9767   86.4817   90.8514 C   0  0  0  0  0  0  0  0  0  0  0  0
   67.5974   86.4644   90.8594 C   0  0  0  0  0  0  0  0  0  0  0  0
   66.8707   87.0321   91.8881 C   0  0  0  0  0  0  0  0  0  0  0  0
   67.5824   87.6171   92.9068 C   0  0  0  0  0  0  0  0  0  0  0  0
   66.8770   88.1953   93.9534 O   0  0  0  0  0  0  0  0  0  0  0  0
   65.9401   88.1797   93.9520 H   0  0  0  0  0  0  0  0  0  0  0  0
   70.6965   88.9375   93.7916 O   0  0  0  0  0  0  0  0  0  0  0  0
   69.6641   88.2928   94.0479 C   0  0  0  0  0  0  0  0  0  0  0  0
   69.1885   88.1632   95.3430 O   0  0  0  0  0  0  0  0  0  0  0  0
   68.4081   87.6718   95.5085 H   0  0  0  0  0  0  0  0  0  0  0  0
   70.5702   77.2559   92.9611 N   0  0  0  0  0  0  0  0  0  0  0  0
   69.1762   77.3915   93.1627 C   0  0  0  0  0  0  0  0  0  0  0  0
   68.5480   78.1215   92.3556 O   0  0  0  0  0  0  0  0  0  0  0  0
   71.1090   76.6955   93.5651 H   0  0  0  0  0  0  0  0  0  0  0  0
   68.4403   76.7217   94.2678 C   0  0  0  0  0  0  0  0  0  0  0  0
   68.2446   75.2529   93.9658 C   0  0  0  0  0  0  0  0  0  0  0  0
   69.3090   74.5178   94.7134 C   0  0  0  0  0  0  0  0  0  0  0  0
   70.2277   75.5769   95.2886 C   0  0  0  0  0  0  0  0  0  0  0  0
   69.2832   76.7525   95.4974 C   0  0  0  0  0  0  0  0  0  0  0  0
   67.1202   77.3748   94.4508 C   0  0  0  0  0  0  0  0  0  0  0  0
   66.8931   78.7103   94.1959 C   0  0  0  0  0  0  0  0  0  0  0  0
   65.6447   79.3031   94.3797 C   0  0  0  0  0  0  0  0  0  0  0  0
   64.5833   78.5454   94.8326 C   0  0  0  0  0  0  0  0  0  0  0  0
   64.7844   77.2074   95.0950 C   0  0  0  0  0  0  0  0  0  0  0  0
   66.0202   76.6572   94.9044 C   0  0  0  0  0  0  0  0  0  0  0  0
   66.1900   75.3435   95.1725 F   0  0  0  0  0  0  0  0  0  0  0  0
 23 24  2  0  0  0
 24 25  1  0  0  0
 24 15  1  0  0  0
 15 16  2  0  0  0
 16 17  1  0  0  0
 17 14  1  0  0  0
 14 13  1  0  0  0
 13  7  1  0  0  0
  7  8  2  0  0  0
  8  9  2  0  0  0
  9 10  2  0  0  0
 10  1  1  0  0  0
  1  2  2  0  0  0
  2  3  1  0  0  0
  3  4  2  0  0  0
  4  5  1  0  0  0
  5 27  1  0  0  0
 27 28  1  0  0  0
 28 29  2  0  0  0
 28 31  1  0  0  0
 31 36  1  0  0  0
 36 37  2  0  0  0
 37 38  1  0  0  0
 38 39  2  0  0  0
 39 40  1  0  0  0
 40 41  2  0  0  0
 41 42  1  0  0  0
 31 32  1  0  0  0
 32 33  1  0  0  0
 33 34  1  0  0  0
 34 35  1  0  0  0
  5  6  2  0  0  0
 10 11  2  0  0  0
 11 12  2  0  0  0
 17 18  2  0  0  0
 18 19  1  0  0  0
 19 20  2  0  0  0
 20 21  1  0  0  0
 20 15  1  0  0  0
 12  7  1  0  0  0
  6  1  1  0  0  0
 35 31  1  0  0  0
 41 36  1  0  0  0
 25 26  1  0  0  0
 27 30  1  0  0  0
 21 22  1  0  0  0
M  END
> <Activity>
34.7

> <minimizedAffinity>
3.83191

> <CNNscore>
0.8030249476

> <CNNaffinity>
6.7532100677

> <CNN_VS>
5.4229960442

$$$$
HIPS7785


 42 46  0  0  0  0  0  0  0  0999 V2000
   71.5241   80.1428   90.4921 C   0  0  0  0  0  0  0  0  0  0  0  0
   72.5049   79.3772   89.8998 C   0  0  0  0  0  0  0  0  0  0  0  0
   72.6325   78.0229   90.1328 C   0  0  0  0  0  0  0  0  0  0  0  0
   71.7386   77.4082   90.9970 C   0  0  0  0  0  0  0  0  0  0  0  0
   70.7405   78.1412   91.6111 C   0  0  0  0  0  0  0  0  0  0  0  0
   70.6569   79.4920   91.3440 C   0  0  0  0  0  0  0  0  0  0  0  0
   71.1525   84.2906   89.7200 C   0  0  0  0  0  0  0  0  0  0  0  0
   70.8478   83.7621   90.9577 C   0  0  0  0  0  0  0  0  0  0  0  0
   70.9721   82.4379   91.1859 N   0  0  0  0  0  0  0  0  0  0  0  0
   71.3897   81.5758   90.2448 C   0  0  0  0  0  0  0  0  0  0  0  0
   71.6878   82.0851   89.0380 N   0  0  0  0  0  0  0  0  0  0  0  0
   71.5812   83.3985   88.7578 C   0  0  0  0  0  0  0  0  0  0  0  0
   71.0217   85.7497   89.4486 C   0  0  0  0  0  0  0  0  0  0  0  0
   69.6567   86.1069   89.5082 O   0  0  0  0  0  0  0  0  0  0  0  0
   67.7781   86.8810   92.5642 C   0  0  0  0  0  0  0  0  0  0  0  0
   68.2746   86.1839   91.4759 C   0  0  0  0  0  0  0  0  0  0  0  0
   69.1519   86.7735   90.5908 C   0  0  0  0  0  0  0  0  0  0  0  0
   69.5334   88.0816   90.8051 C   0  0  0  0  0  0  0  0  0  0  0  0
   69.0592   88.8089   91.8797 C   0  0  0  0  0  0  0  0  0  0  0  0
   68.1880   88.1719   92.7294 C   0  0  0  0  0  0  0  0  0  0  0  0
   67.6960   88.8797   93.8175 O   0  0  0  0  0  0  0  0  0  0  0  0
   67.9597   89.7680   93.9567 H   0  0  0  0  0  0  0  0  0  0  0  0
   65.7527   85.8516   93.0553 O   0  0  0  0  0  0  0  0  0  0  0  0
   66.8520   86.2403   93.4885 C   0  0  0  0  0  0  0  0  0  0  0  0
   67.2103   86.0785   94.8173 O   0  0  0  0  0  0  0  0  0  0  0  0
   68.0449   86.3806   95.1177 H   0  0  0  0  0  0  0  0  0  0  0  0
   69.8471   77.4684   92.4891 N   0  0  0  0  0  0  0  0  0  0  0  0
   68.6343   78.0988   92.8549 C   0  0  0  0  0  0  0  0  0  0  0  0
   68.4121   79.2382   92.3741 O   0  0  0  0  0  0  0  0  0  0  0  0
   70.0696   76.5751   92.8381 H   0  0  0  0  0  0  0  0  0  0  0  0
   67.6344   77.4824   93.7669 C   0  0  0  0  0  0  0  0  0  0  0  0
   67.3093   78.4153   94.9119 C   0  0  0  0  0  0  0  0  0  0  0  0
   66.0287   79.0978   94.5561 C   0  0  0  0  0  0  0  0  0  0  0  0
   65.7214   78.6983   93.1269 C   0  0  0  0  0  0  0  0  0  0  0  0
   66.3486   77.3145   93.0308 C   0  0  0  0  0  0  0  0  0  0  0  0
   68.1711   76.2053   94.2993 C   0  0  0  0  0  0  0  0  0  0  0  0
   69.3282   76.1207   95.0437 C   0  0  0  0  0  0  0  0  0  0  0  0
   69.8158   74.9084   95.5296 C   0  0  0  0  0  0  0  0  0  0  0  0
   69.1323   73.7377   95.2684 C   0  0  0  0  0  0  0  0  0  0  0  0
   67.9724   73.7952   94.5261 C   0  0  0  0  0  0  0  0  0  0  0  0
   67.5217   74.9995   94.0647 C   0  0  0  0  0  0  0  0  0  0  0  0
   66.3834   75.0265   93.3367 F   0  0  0  0  0  0  0  0  0  0  0  0
 23 24  2  0  0  0
 24 25  1  0  0  0
 24 15  1  0  0  0
 15 16  2  0  0  0
 16 17  1  0  0  0
 17 14  1  0  0  0
 14 13  1  0  0  0
 13  7  1  0  0  0
  7  8  2  0  0  0
  8  9  2  0  0  0
  9 10  2  0  0  0
 10  1  1  0  0  0
  1  2  2  0  0  0
  2  3  1  0  0  0
  3  4  2  0  0  0
  4  5  1  0  0  0
  5 27  1  0  0  0
 27 28  1  0  0  0
 28 29  2  0  0  0
 28 31  1  0  0  0
 31 36  1  0  0  0
 36 37  2  0  0  0
 37 38  1  0  0  0
 38 39  2  0  0  0
 39 40  1  0  0  0
 40 41  2  0  0  0
 41 42  1  0  0  0
 31 32  1  0  0  0
 32 33  1  0  0  0
 33 34  1  0  0  0
 34 35  1  0  0  0
  5  6  2  0  0  0
 10 11  2  0  0  0
 11 12  2  0  0  0
 17 18  2  0  0  0
 18 19  1  0  0  0
 19 20  2  0  0  0
 20 21  1  0  0  0
 20 15  1  0  0  0
 12  7  1  0  0  0
  6  1  1  0  0  0
 35 31  1  0  0  0
 41 36  1  0  0  0
 25 26  1  0  0  0
 27 30  1  0  0  0
 21 22  1  0  0  0
M  END
> <Activity>
34.7

> <minimizedAffinity>
1.41390

> <CNNscore>
0.7953804731

> <CNNaffinity>
6.9120693207

> <CNN_VS>
5.4977250099

$$$$
HIPS7785


 42 46  0  0  0  0  0  0  0  0999 V2000
   70.4516   83.8474   91.3477 C   0  0  0  0  0  0  0  0  0  0  0  0
   71.1556   84.3535   90.2767 C   0  0  0  0  0  0  0  0  0  0  0  0
   71.7504   83.5450   89.3295 C   0  0  0  0  0  0  0  0  0  0  0  0
   71.6351   82.1691   89.4605 C   0  0  0  0  0  0  0  0  0  0  0  0
   70.9372   81.6219   90.5207 C   0  0  0  0  0  0  0  0  0  0  0  0
   70.3616   82.4745   91.4398 C   0  0  0  0  0  0  0  0  0  0  0  0
   68.6163   86.3708   94.2118 C   0  0  0  0  0  0  0  0  0  0  0  0
   69.1358   85.1428   94.5671 C   0  0  0  0  0  0  0  0  0  0  0  0
   69.7171   84.3517   93.6411 N   0  0  0  0  0  0  0  0  0  0  0  0
   69.8224   84.7037   92.3495 C   0  0  0  0  0  0  0  0  0  0  0  0
   69.3183   85.8983   91.9982 N   0  0  0  0  0  0  0  0  0  0  0  0
   68.7282   86.7258   92.8826 C   0  0  0  0  0  0  0  0  0  0  0  0
   67.9706   87.2582   95.2194 C   0  0  0  0  0  0  0  0  0  0  0  0
   67.3387   86.4587   96.1970 O   0  0  0  0  0  0  0  0  0  0  0  0
   63.9595   86.3349   97.6229 C   0  0  0  0  0  0  0  0  0  0  0  0
   65.1590   85.9264   97.0652 C   0  0  0  0  0  0  0  0  0  0  0  0
   66.1452   86.8363   96.7487 C   0  0  0  0  0  0  0  0  0  0  0  0
   65.9197   88.1742   96.9974 C   0  0  0  0  0  0  0  0  0  0  0  0
   64.7357   88.6194   97.5527 C   0  0  0  0  0  0  0  0  0  0  0  0
   63.7884   87.6697   97.8481 C   0  0  0  0  0  0  0  0  0  0  0  0
   62.5891   88.0897   98.4071 O   0  0  0  0  0  0  0  0  0  0  0  0
   62.4431   89.0003   98.5732 H   0  0  0  0  0  0  0  0  0  0  0  0
   61.9217   85.2899   97.2248 O   0  0  0  0  0  0  0  0  0  0  0  0
   62.9295   85.3580   97.9506 C   0  0  0  0  0  0  0  0  0  0  0  0
   63.0914   84.5331   99.0522 O   0  0  0  0  0  0  0  0  0  0  0  0
   63.8606   84.6051   99.5825 H   0  0  0  0  0  0  0  0  0  0  0  0
   70.8453   80.2061   90.6139 N   0  0  0  0  0  0  0  0  0  0  0  0
   71.5129   79.5395   91.6686 C   0  0  0  0  0  0  0  0  0  0  0  0
   72.1607   80.2502   92.4774 O   0  0  0  0  0  0  0  0  0  0  0  0
   70.3237   79.6959   89.9529 H   0  0  0  0  0  0  0  0  0  0  0  0
   71.4815   78.0644   91.8539 C   0  0  0  0  0  0  0  0  0  0  0  0
   71.4044   77.3598   90.5181 C   0  0  0  0  0  0  0  0  0  0  0  0
   72.7944   76.9254   90.1838 C   0  0  0  0  0  0  0  0  0  0  0  0
   73.6938   77.5465   91.2335 C   0  0  0  0  0  0  0  0  0  0  0  0
   72.7772   77.6247   92.4465 C   0  0  0  0  0  0  0  0  0  0  0  0
   70.3073   77.6945   92.6828 C   0  0  0  0  0  0  0  0  0  0  0  0
   69.0281   78.1401   92.4273 C   0  0  0  0  0  0  0  0  0  0  0  0
   67.9407   77.7828   93.2232 C   0  0  0  0  0  0  0  0  0  0  0  0
   68.1276   76.9542   94.3116 C   0  0  0  0  0  0  0  0  0  0  0  0
   69.3972   76.4951   94.5887 C   0  0  0  0  0  0  0  0  0  0  0  0
   70.4414   76.8641   93.7888 C   0  0  0  0  0  0  0  0  0  0  0  0
   71.6762   76.4019   94.0854 F   0  0  0  0  0  0  0  0  0  0  0  0
 23 24  2  0  0  0
 24 25  1  0  0  0
 24 15  1  0  0  0
 15 16  2  0  0  0
 16 17  1  0  0  0
 17 14  1  0  0  0
 14 13  1  0  0  0
 13  7  1  0  0  0
  7  8  2  0  0  0
  8  9  2  0  0  0
  9 10  2  0  0  0
 10  1  1  0  0  0
  1  2  2  0  0  0
  2  3  1  0  0  0
  3  4  2  0  0  0
  4  5  1  0  0  0
  5 27  1  0  0  0
 27 28  1  0  0  0
 28 29  2  0  0  0
 28 31  1  0  0  0
 31 36  1  0  0  0
 36 37  2  0  0  0
 37 38  1  0  0  0
 38 39  2  0  0  0
 39 40  1  0  0  0
 40 41  2  0  0  0
 41 42  1  0  0  0
 31 32  1  0  0  0
 32 33  1  0  0  0
 33 34  1  0  0  0
 34 35  1  0  0  0
  5  6  2  0  0  0
 10 11  2  0  0  0
 11 12  2  0  0  0
 17 18  2  0  0  0
 18 19  1  0  0  0
 19 20  2  0  0  0
 20 21  1  0  0  0
 20 15  1  0  0  0
 12  7  1  0  0  0
  6  1  1  0  0  0
 35 31  1  0  0  0
 41 36  1  0  0  0
 25 26  1  0  0  0
 27 30  1  0  0  0
 21 22  1  0  0  0
M  END
> <Activity>
34.7

> <minimizedAffinity>
4.33869

> <CNNscore>
0.7876352668

> <CNNaffinity>
6.3917961121

> <CNN_VS>
5.0344038010

$$$$
HIPS6458


 42 45  0  0  0  0  0  0  0  0999 V2000
   70.4839   78.3453   92.3982 C   0  0  0  0  0  0  0  0  0  0  0  0
   71.0242   77.3004   93.1731 C   0  0  0  0  0  0  0  0  0  0  0  0
   70.2165   76.5722   94.0602 C   0  0  0  0  0  0  0  0  0  0  0  0
   68.8549   76.8867   94.1715 C   0  0  0  0  0  0  0  0  0  0  0  0
   68.2825   77.9090   93.3852 C   0  0  0  0  0  0  0  0  0  0  0  0
   69.1121   78.6370   92.5106 C   0  0  0  0  0  0  0  0  0  0  0  0
   72.9408   80.5730   89.6875 C   0  0  0  0  0  0  0  0  0  0  0  0
   71.9486   81.1761   90.4018 N   0  0  0  0  0  0  0  0  0  0  0  0
   71.1617   80.4897   91.2672 C   0  0  0  0  0  0  0  0  0  0  0  0
   71.3462   79.1066   91.4564 C   0  0  0  0  0  0  0  0  0  0  0  0
   72.3647   78.4687   90.7277 C   0  0  0  0  0  0  0  0  0  0  0  0
   73.1644   79.1983   89.8432 C   0  0  0  0  0  0  0  0  0  0  0  0
   74.4381   78.3868   88.9414 Cl  0  0  0  0  0  0  0  0  0  0  0  0
   73.7265   81.3091   88.7911 O   0  0  0  0  0  0  0  0  0  0  0  0
   73.4435   83.2954   90.1191 C   0  0  0  0  0  0  0  0  0  0  0  0
   73.7566   82.7379   88.7312 C   0  0  0  0  0  0  0  0  0  0  0  0
   72.7433   83.2473   87.6973 C   0  0  0  0  0  0  0  0  0  0  0  0
   66.8183   78.1809   93.4339 C   0  0  0  0  0  0  0  0  0  0  0  0
   66.0147   78.0495   92.2837 C   0  0  0  0  0  0  0  0  0  0  0  0
   64.6974   78.3618   92.3293 N   0  0  0  0  0  0  0  0  0  0  0  0
   64.0915   78.8077   93.4643 C   0  0  0  0  0  0  0  0  0  0  0  0
   64.8450   78.9473   94.6372 C   0  0  0  0  0  0  0  0  0  0  0  0
   64.1002   79.5216   96.1223 Cl  0  0  0  0  0  0  0  0  0  0  0  0
   66.2045   78.6280   94.6202 C   0  0  0  0  0  0  0  0  0  0  0  0
   62.7354   79.1484   93.4672 O   0  0  0  0  0  0  0  0  0  0  0  0
   62.0589   79.7546   92.3641 C   0  0  0  0  0  0  0  0  0  0  0  0
   61.4757   78.6518   91.4779 C   0  0  0  0  0  0  0  0  0  0  0  0
   63.0425   80.6187   91.5679 C   0  0  0  0  0  0  0  0  0  0  0  0
   70.7501   75.3268   94.7172 C   0  0  0  0  0  0  0  0  0  0  0  0
   69.7126   74.8199   95.5563 O   0  0  0  0  0  0  0  0  0  0  0  0
   68.4273   74.4450   95.1388 C   0  0  0  0  0  0  0  0  0  0  0  0
   67.2444   74.9253   95.7282 C   0  0  0  0  0  0  0  0  0  0  0  0
   66.0015   74.4882   95.2596 C   0  0  0  0  0  0  0  0  0  0  0  0
   65.9166   73.5710   94.1947 C   0  0  0  0  0  0  0  0  0  0  0  0
   64.6637   73.1402   93.7622 O   0  0  0  0  0  0  0  0  0  0  0  0
   67.1022   73.0806   93.5937 C   0  0  0  0  0  0  0  0  0  0  0  0
   68.3408   73.5405   94.0705 C   0  0  0  0  0  0  0  0  0  0  0  0
   63.8878   73.4729   94.1687 H   0  0  0  0  0  0  0  0  0  0  0  0
   67.0935   72.0769   92.4937 C   0  0  0  0  0  0  0  0  0  0  0  0
   67.9460   71.1488   92.4546 O   0  0  0  0  0  0  0  0  0  0  0  0
   66.1352   72.1541   91.4843 O   0  0  0  0  0  0  0  0  0  0  0  0
   65.4943   72.8375   91.4981 H   0  0  0  0  0  0  0  0  0  0  0  0
 15 16  1  0  0  0
 16 17  1  0  0  0
 16 14  1  0  0  0
 14  7  1  0  0  0
  7  8  2  0  0  0
  8  9  2  0  0  0
  9 10  2  0  0  0
 10  1  1  0  0  0
  1  2  2  0  0  0
  2  3  1  0  0  0
  3 29  1  0  0  0
 29 30  1  0  0  0
 30 31  1  0  0  0
 31 32  2  0  0  0
 32 33  1  0  0  0
 33 34  2  0  0  0
 34 35  1  0  0  0
 34 36  1  0  0  0
 36 39  1  0  0  0
 39 40  2  0  0  0
 39 41  1  0  0  0
 36 37  2  0  0  0
  3  4  2  0  0  0
  4  5  1  0  0  0
  5 18  1  0  0  0
 18 19  2  0  0  0
 19 20  2  0  0  0
 20 21  2  0  0  0
 21 25  1  0  0  0
 25 26  1  0  0  0
 26 27  1  0  0  0
 26 28  1  0  0  0
 21 22  1  0  0  0
 22 23  1  0  0  0
 22 24  2  0  0  0
  5  6  2  0  0  0
 10 11  1  0  0  0
 11 12  2  0  0  0
 12 13  1  0  0  0
 12  7  1  0  0  0
  6  1  1  0  0  0
 37 31  1  0  0  0
 24 18  1  0  0  0
 35 38  1  0  0  0
 41 42  1  0  0  0
M  END
> <Activity>
4.1

> <minimizedAffinity>
16.77294

> <CNNscore>
0.9250974655

> <CNNaffinity>
7.2458143234

> <CNN_VS>
6.7030844688

$$$$
HIPS6458


 42 45  0  0  0  0  0  0  0  0999 V2000
   70.4481   77.4942   92.7530 C   0  0  0  0  0  0  0  0  0  0  0  0
   70.8356   76.6176   93.7853 C   0  0  0  0  0  0  0  0  0  0  0  0
   69.9202   76.2208   94.7723 C   0  0  0  0  0  0  0  0  0  0  0  0
   68.6035   76.6998   94.7259 C   0  0  0  0  0  0  0  0  0  0  0  0
   68.1817   77.5554   93.6862 C   0  0  0  0  0  0  0  0  0  0  0  0
   69.1186   77.9527   92.7126 C   0  0  0  0  0  0  0  0  0  0  0  0
   73.2820   78.6380   89.7517 C   0  0  0  0  0  0  0  0  0  0  0  0
   73.3055   77.3944   90.3098 N   0  0  0  0  0  0  0  0  0  0  0  0
   72.4158   77.0115   91.2590 C   0  0  0  0  0  0  0  0  0  0  0  0
   71.4233   77.9036   91.7083 C   0  0  0  0  0  0  0  0  0  0  0  0
   71.3847   79.1900   91.1437 C   0  0  0  0  0  0  0  0  0  0  0  0
   72.3114   79.5606   90.1650 C   0  0  0  0  0  0  0  0  0  0  0  0
   72.2477   81.1729   89.4644 Cl  0  0  0  0  0  0  0  0  0  0  0  0
   74.2250   79.0061   88.7833 O   0  0  0  0  0  0  0  0  0  0  0  0
   75.8473   80.6205   88.0409 C   0  0  0  0  0  0  0  0  0  0  0  0
   75.5142   79.5504   89.0797 C   0  0  0  0  0  0  0  0  0  0  0  0
   76.5728   78.4393   89.0770 C   0  0  0  0  0  0  0  0  0  0  0  0
   66.7600   77.9893   93.5834 C   0  0  0  0  0  0  0  0  0  0  0  0
   66.0793   77.9669   92.3497 C   0  0  0  0  0  0  0  0  0  0  0  0
   64.8075   78.4244   92.2608 N   0  0  0  0  0  0  0  0  0  0  0  0
   64.1322   78.9180   93.3354 C   0  0  0  0  0  0  0  0  0  0  0  0
   64.7618   78.9539   94.5864 C   0  0  0  0  0  0  0  0  0  0  0  0
   63.9247   79.5853   95.9973 Cl  0  0  0  0  0  0  0  0  0  0  0  0
   66.0714   78.4842   94.7081 C   0  0  0  0  0  0  0  0  0  0  0  0
   62.8299   79.4088   93.2006 O   0  0  0  0  0  0  0  0  0  0  0  0
   62.3315   80.0463   92.0229 C   0  0  0  0  0  0  0  0  0  0  0  0
   61.6924   78.9869   91.1224 C   0  0  0  0  0  0  0  0  0  0  0  0
   63.4800   80.7497   91.2920 C   0  0  0  0  0  0  0  0  0  0  0  0
   70.2805   75.1229   95.7378 C   0  0  0  0  0  0  0  0  0  0  0  0
   69.1585   74.2433   95.8077 O   0  0  0  0  0  0  0  0  0  0  0  0
   68.6286   73.5007   94.7425 C   0  0  0  0  0  0  0  0  0  0  0  0
   67.4221   73.8185   94.0939 C   0  0  0  0  0  0  0  0  0  0  0  0
   66.9571   73.0152   93.0480 C   0  0  0  0  0  0  0  0  0  0  0  0
   67.6876   71.8869   92.6286 C   0  0  0  0  0  0  0  0  0  0  0  0
   67.1888   71.0953   91.5955 O   0  0  0  0  0  0  0  0  0  0  0  0
   68.9043   71.5575   93.2753 C   0  0  0  0  0  0  0  0  0  0  0  0
   69.3608   72.3833   94.3158 C   0  0  0  0  0  0  0  0  0  0  0  0
   66.3828   71.3250   91.1766 H   0  0  0  0  0  0  0  0  0  0  0  0
   69.7090   70.3567   92.9172 C   0  0  0  0  0  0  0  0  0  0  0  0
   70.2824   69.6705   93.8060 O   0  0  0  0  0  0  0  0  0  0  0  0
   69.8404   69.9757   91.5829 O   0  0  0  0  0  0  0  0  0  0  0  0
   69.4208   70.4745   90.9097 H   0  0  0  0  0  0  0  0  0  0  0  0
 15 16  1  0  0  0
 16 17  1  0  0  0
 16 14  1  0  0  0
 14  7  1  0  0  0
  7  8  2  0  0  0
  8  9  2  0  0  0
  9 10  2  0  0  0
 10  1  1  0  0  0
  1  2  2  0  0  0
  2  3  1  0  0  0
  3 29  1  0  0  0
 29 30  1  0  0  0
 30 31  1  0  0  0
 31 32  2  0  0  0
 32 33  1  0  0  0
 33 34  2  0  0  0
 34 35  1  0  0  0
 34 36  1  0  0  0
 36 39  1  0  0  0
 39 40  2  0  0  0
 39 41  1  0  0  0
 36 37  2  0  0  0
  3  4  2  0  0  0
  4  5  1  0  0  0
  5 18  1  0  0  0
 18 19  2  0  0  0
 19 20  2  0  0  0
 20 21  2  0  0  0
 21 25  1  0  0  0
 25 26  1  0  0  0
 26 27  1  0  0  0
 26 28  1  0  0  0
 21 22  1  0  0  0
 22 23  1  0  0  0
 22 24  2  0  0  0
  5  6  2  0  0  0
 10 11  1  0  0  0
 11 12  2  0  0  0
 12 13  1  0  0  0
 12  7  1  0  0  0
  6  1  1  0  0  0
 37 31  1  0  0  0
 24 18  1  0  0  0
 35 38  1  0  0  0
 41 42  1  0  0  0
M  END
> <Activity>
4.1

> <minimizedAffinity>
13.72266

> <CNNscore>
0.9082933068

> <CNNaffinity>
6.9599504471

> <CNN_VS>
6.3216762543

$$$$
HIPS6458


 42 45  0  0  0  0  0  0  0  0999 V2000
   70.8435   77.4574   92.6995 C   0  0  0  0  0  0  0  0  0  0  0  0
   71.2885   76.6516   93.7657 C   0  0  0  0  0  0  0  0  0  0  0  0
   70.4170   76.2886   94.8042 C   0  0  0  0  0  0  0  0  0  0  0  0
   69.0869   76.7302   94.7759 C   0  0  0  0  0  0  0  0  0  0  0  0
   68.6079   77.5137   93.7046 C   0  0  0  0  0  0  0  0  0  0  0  0
   69.5012   77.8786   92.6788 C   0  0  0  0  0  0  0  0  0  0  0  0
   73.5412   78.4964   89.5389 C   0  0  0  0  0  0  0  0  0  0  0  0
   73.4927   77.2294   90.0399 N   0  0  0  0  0  0  0  0  0  0  0  0
   72.6441   76.8792   91.0381 C   0  0  0  0  0  0  0  0  0  0  0  0
   71.7724   77.8312   91.6007 C   0  0  0  0  0  0  0  0  0  0  0  0
   71.8094   79.1425   91.0962 C   0  0  0  0  0  0  0  0  0  0  0  0
   72.6915   79.4787   90.0652 C   0  0  0  0  0  0  0  0  0  0  0  0
   72.7231   81.1230   89.4412 Cl  0  0  0  0  0  0  0  0  0  0  0  0
   74.4401   78.8281   88.5168 O   0  0  0  0  0  0  0  0  0  0  0  0
   76.2665   78.1953   89.9496 C   0  0  0  0  0  0  0  0  0  0  0  0
   75.8516   78.9703   88.6996 C   0  0  0  0  0  0  0  0  0  0  0  0
   76.2234   80.4536   88.8290 C   0  0  0  0  0  0  0  0  0  0  0  0
   67.1722   77.9044   93.6261 C   0  0  0  0  0  0  0  0  0  0  0  0
   66.4517   77.7913   92.4202 C   0  0  0  0  0  0  0  0  0  0  0  0
   65.1656   78.2101   92.3490 N   0  0  0  0  0  0  0  0  0  0  0  0
   64.5130   78.7493   93.4157 C   0  0  0  0  0  0  0  0  0  0  0  0
   65.1826   78.8756   94.6398 C   0  0  0  0  0  0  0  0  0  0  0  0
   64.3758   79.5681   96.0396 Cl  0  0  0  0  0  0  0  0  0  0  0  0
   66.5080   78.4475   94.7431 C   0  0  0  0  0  0  0  0  0  0  0  0
   63.1940   79.1979   93.2978 O   0  0  0  0  0  0  0  0  0  0  0  0
   62.6930   79.9287   92.1768 C   0  0  0  0  0  0  0  0  0  0  0  0
   61.8389   78.9917   91.3200 C   0  0  0  0  0  0  0  0  0  0  0  0
   63.8635   80.4853   91.3594 C   0  0  0  0  0  0  0  0  0  0  0  0
   70.8389   75.2574   95.8171 C   0  0  0  0  0  0  0  0  0  0  0  0
   69.7118   74.4120   96.0467 O   0  0  0  0  0  0  0  0  0  0  0  0
   68.9449   73.7782   95.0584 C   0  0  0  0  0  0  0  0  0  0  0  0
   69.4545   72.8061   94.1792 C   0  0  0  0  0  0  0  0  0  0  0  0
   68.6235   72.2335   93.2113 C   0  0  0  0  0  0  0  0  0  0  0  0
   67.2723   72.6153   93.1067 C   0  0  0  0  0  0  0  0  0  0  0  0
   66.4741   72.0399   92.1197 O   0  0  0  0  0  0  0  0  0  0  0  0
   66.7486   73.5939   93.9873 C   0  0  0  0  0  0  0  0  0  0  0  0
   67.5959   74.1489   94.9605 C   0  0  0  0  0  0  0  0  0  0  0  0
   66.8335   71.3938   91.5441 H   0  0  0  0  0  0  0  0  0  0  0  0
   65.3433   74.0801   93.9092 C   0  0  0  0  0  0  0  0  0  0  0  0
   65.0682   75.3000   94.0704 O   0  0  0  0  0  0  0  0  0  0  0  0
   64.3063   73.1835   93.6569 O   0  0  0  0  0  0  0  0  0  0  0  0
   64.4931   72.2735   93.5346 H   0  0  0  0  0  0  0  0  0  0  0  0
 15 16  1  0  0  0
 16 17  1  0  0  0
 16 14  1  0  0  0
 14  7  1  0  0  0
  7  8  2  0  0  0
  8  9  2  0  0  0
  9 10  2  0  0  0
 10  1  1  0  0  0
  1  2  2  0  0  0
  2  3  1  0  0  0
  3 29  1  0  0  0
 29 30  1  0  0  0
 30 31  1  0  0  0
 31 32  2  0  0  0
 32 33  1  0  0  0
 33 34  2  0  0  0
 34 35  1  0  0  0
 34 36  1  0  0  0
 36 39  1  0  0  0
 39 40  2  0  0  0
 39 41  1  0  0  0
 36 37  2  0  0  0
  3  4  2  0  0  0
  4  5  1  0  0  0
  5 18  1  0  0  0
 18 19  2  0  0  0
 19 20  2  0  0  0
 20 21  2  0  0  0
 21 25  1  0  0  0
 25 26  1  0  0  0
 26 27  1  0  0  0
 26 28  1  0  0  0
 21 22  1  0  0  0
 22 23  1  0  0  0
 22 24  2  0  0  0
  5  6  2  0  0  0
 10 11  1  0  0  0
 11 12  2  0  0  0
 12 13  1  0  0  0
 12  7  1  0  0  0
  6  1  1  0  0  0
 37 31  1  0  0  0
 24 18  1  0  0  0
 35 38  1  0  0  0
 41 42  1  0  0  0
M  END
> <Activity>
4.1

> <minimizedAffinity>
16.66467

> <CNNscore>
0.9022394419

> <CNNaffinity>
7.0012226105

> <CNN_VS>
6.3167791367

$$$$
HIPS7116


 36 39  0  0  0  0  0  0  0  0999 V2000
   65.1393   78.5863   92.2389 C   0  0  0  0  0  0  0  0  0  0  0  0
   64.5601   79.7979   92.2219 N   0  0  0  0  0  0  0  0  0  0  0  0
   64.1405   80.4086   91.1142 C   0  0  0  0  0  0  0  0  0  0  0  0
   64.3143   79.7483   89.9043 C   0  0  0  0  0  0  0  0  0  0  0  0
   64.9096   78.4978   89.9015 C   0  0  0  0  0  0  0  0  0  0  0  0
   65.3048   77.9555   91.0779 N   0  0  0  0  0  0  0  0  0  0  0  0
   65.6483   75.2267   95.8378 C   0  0  0  0  0  0  0  0  0  0  0  0
   64.4930   74.8397   96.1468 O   0  0  0  0  0  0  0  0  0  0  0  0
   65.8962   76.0910   94.7391 N   0  0  0  0  0  0  0  0  0  0  0  0
   64.9552   76.6697   93.8070 C   0  0  0  0  0  0  0  0  0  0  0  0
   65.5637   78.0144   93.5356 C   0  0  0  0  0  0  0  0  0  0  0  0
   67.0120   77.7338   93.5857 C   0  0  0  0  0  0  0  0  0  0  0  0
   68.1277   78.3773   93.0736 C   0  0  0  0  0  0  0  0  0  0  0  0
   69.3682   77.8375   93.3131 C   0  0  0  0  0  0  0  0  0  0  0  0
   69.5404   76.6816   94.0430 C   0  0  0  0  0  0  0  0  0  0  0  0
   68.4307   76.0452   94.5502 C   0  0  0  0  0  0  0  0  0  0  0  0
   67.1713   76.5795   94.3158 C   0  0  0  0  0  0  0  0  0  0  0  0
   66.6822   74.7505   96.6481 O   0  0  0  0  0  0  0  0  0  0  0  0
   67.1829   72.4928   97.3770 C   0  0  0  0  0  0  0  0  0  0  0  0
   67.4093   73.5912   96.3618 C   0  0  0  0  0  0  0  0  0  0  0  0
   68.8801   73.7995   96.2170 C   0  0  0  0  0  0  0  0  0  0  0  0
   66.8808   73.0556   95.0307 C   0  0  0  0  0  0  0  0  0  0  0  0
   63.8630   80.3898   88.6331 C   0  0  0  0  0  0  0  0  0  0  0  0
   64.9613   80.4006   87.7680 O   0  0  0  0  0  0  0  0  0  0  0  0
   65.3976   79.3068   87.0452 C   0  0  0  0  0  0  0  0  0  0  0  0
   64.5269   78.4209   86.4616 C   0  0  0  0  0  0  0  0  0  0  0  0
   65.0412   77.3384   85.7461 C   0  0  0  0  0  0  0  0  0  0  0  0
   66.3932   77.1210   85.6002 C   0  0  0  0  0  0  0  0  0  0  0  0
   66.9064   76.0399   84.8856 O   0  0  0  0  0  0  0  0  0  0  0  0
   67.2523   78.0311   86.1996 C   0  0  0  0  0  0  0  0  0  0  0  0
   66.7451   79.0964   86.9040 C   0  0  0  0  0  0  0  0  0  0  0  0
   66.3245   75.4266   84.4817 H   0  0  0  0  0  0  0  0  0  0  0  0
   68.6852   77.8292   86.0630 C   0  0  0  0  0  0  0  0  0  0  0  0
   69.1806   77.5362   84.9358 O   0  0  0  0  0  0  0  0  0  0  0  0
   69.5676   77.9399   87.1164 O   0  0  0  0  0  0  0  0  0  0  0  0
   69.2515   78.1551   87.9718 H   0  0  0  0  0  0  0  0  0  0  0  0
 19 20  1  0  0  0
 20 21  1  0  0  0
 20 22  1  0  0  0
 20 18  1  0  0  0
 18  7  1  0  0  0
  7  8  2  0  0  0
  7  9  1  0  0  0
  9 10  1  0  0  0
 10 11  1  0  0  0
 11  1  1  0  0  0
  1  2  2  0  0  0
  2  3  2  0  0  0
  3  4  2  0  0  0
  4 23  1  0  0  0
 23 24  1  0  0  0
 24 25  1  0  0  0
 25 26  2  0  0  0
 26 27  1  0  0  0
 27 28  2  0  0  0
 28 29  1  0  0  0
 28 30  1  0  0  0
 30 33  1  0  0  0
 33 34  2  0  0  0
 33 35  1  0  0  0
 30 31  2  0  0  0
  4  5  1  0  0  0
  5  6  2  0  0  0
 11 12  1  0  0  0
 12 13  2  0  0  0
 13 14  1  0  0  0
 14 15  2  0  0  0
 15 16  1  0  0  0
 16 17  2  0  0  0
 17  9  1  0  0  0
  6  1  2  0  0  0
 17 12  1  0  0  0
 31 25  1  0  0  0
 29 32  1  0  0  0
 35 36  1  0  0  0
M  END
> <Activity>
8.1

> <minimizedAffinity>
23.89150

> <CNNscore>
0.8414529562

> <CNNaffinity>
6.4003591537

> <CNN_VS>
5.3856010437

$$$$
HIPS7116


 36 39  0  0  0  0  0  0  0  0999 V2000
   70.7095   80.8518   90.4766 C   0  0  0  0  0  0  0  0  0  0  0  0
   70.5794   80.3363   91.7099 N   0  0  0  0  0  0  0  0  0  0  0  0
   70.9006   79.0838   92.0326 C   0  0  0  0  0  0  0  0  0  0  0  0
   71.4007   78.2637   91.0289 C   0  0  0  0  0  0  0  0  0  0  0  0
   71.5422   78.7774   89.7505 C   0  0  0  0  0  0  0  0  0  0  0  0
   71.1890   80.0636   89.5164 N   0  0  0  0  0  0  0  0  0  0  0  0
   69.7855   85.6012   91.5194 C   0  0  0  0  0  0  0  0  0  0  0  0
   68.9507   85.6165   92.4590 O   0  0  0  0  0  0  0  0  0  0  0  0
   70.3884   84.4036   91.0525 N   0  0  0  0  0  0  0  0  0  0  0  0
   70.1950   83.0480   91.5150 C   0  0  0  0  0  0  0  0  0  0  0  0
   70.3162   82.2589   90.2442 C   0  0  0  0  0  0  0  0  0  0  0  0
   71.3323   83.0148   89.4859 C   0  0  0  0  0  0  0  0  0  0  0  0
   72.1892   82.6858   88.4473 C   0  0  0  0  0  0  0  0  0  0  0  0
   73.0304   83.6540   87.9547 C   0  0  0  0  0  0  0  0  0  0  0  0
   73.0511   84.9370   88.4566 C   0  0  0  0  0  0  0  0  0  0  0  0
   72.1991   85.2603   89.4876 C   0  0  0  0  0  0  0  0  0  0  0  0
   71.3439   84.2920   89.9950 C   0  0  0  0  0  0  0  0  0  0  0  0
   70.0865   86.8447   90.9578 O   0  0  0  0  0  0  0  0  0  0  0  0
   68.7373   88.8529   91.1185 C   0  0  0  0  0  0  0  0  0  0  0  0
   69.9135   88.0549   91.6361 C   0  0  0  0  0  0  0  0  0  0  0  0
   71.1144   88.9411   91.6431 C   0  0  0  0  0  0  0  0  0  0  0  0
   69.5839   87.7046   93.0876 C   0  0  0  0  0  0  0  0  0  0  0  0
   71.7745   76.8507   91.3374 C   0  0  0  0  0  0  0  0  0  0  0  0
   72.7403   76.4694   90.4012 O   0  0  0  0  0  0  0  0  0  0  0  0
   74.0029   77.0234   90.3110 C   0  0  0  0  0  0  0  0  0  0  0  0
   74.3774   77.8236   89.2608 C   0  0  0  0  0  0  0  0  0  0  0  0
   75.6706   78.3484   89.2374 C   0  0  0  0  0  0  0  0  0  0  0  0
   76.5916   78.0955   90.2296 C   0  0  0  0  0  0  0  0  0  0  0  0
   77.8828   78.6197   90.2060 O   0  0  0  0  0  0  0  0  0  0  0  0
   76.1881   77.2837   91.2803 C   0  0  0  0  0  0  0  0  0  0  0  0
   74.9149   76.7675   91.3025 C   0  0  0  0  0  0  0  0  0  0  0  0
   78.1531   79.1676   89.4955 H   0  0  0  0  0  0  0  0  0  0  0  0
   77.1374   76.9988   92.3434 C   0  0  0  0  0  0  0  0  0  0  0  0
   77.8838   77.9176   92.7914 O   0  0  0  0  0  0  0  0  0  0  0  0
   77.2815   75.7519   92.9136 O   0  0  0  0  0  0  0  0  0  0  0  0
   76.7525   75.0375   92.6177 H   0  0  0  0  0  0  0  0  0  0  0  0
 19 20  1  0  0  0
 20 21  1  0  0  0
 20 22  1  0  0  0
 20 18  1  0  0  0
 18  7  1  0  0  0
  7  8  2  0  0  0
  7  9  1  0  0  0
  9 10  1  0  0  0
 10 11  1  0  0  0
 11  1  1  0  0  0
  1  2  2  0  0  0
  2  3  2  0  0  0
  3  4  2  0  0  0
  4 23  1  0  0  0
 23 24  1  0  0  0
 24 25  1  0  0  0
 25 26  2  0  0  0
 26 27  1  0  0  0
 27 28  2  0  0  0
 28 29  1  0  0  0
 28 30  1  0  0  0
 30 33  1  0  0  0
 33 34  2  0  0  0
 33 35  1  0  0  0
 30 31  2  0  0  0
  4  5  1  0  0  0
  5  6  2  0  0  0
 11 12  1  0  0  0
 12 13  2  0  0  0
 13 14  1  0  0  0
 14 15  2  0  0  0
 15 16  1  0  0  0
 16 17  2  0  0  0
 17  9  1  0  0  0
  6  1  2  0  0  0
 17 12  1  0  0  0
 31 25  1  0  0  0
 29 32  1  0  0  0
 35 36  1  0  0  0
M  END
> <Activity>
8.1

> <minimizedAffinity>
16.95653

> <CNNscore>
0.8139744997

> <CNNaffinity>
6.1103219986

> <CNN_VS>
4.9736461639

$$$$
HIPS7116


 36 39  0  0  0  0  0  0  0  0999 V2000
   71.6290   81.5297   90.4660 C   0  0  0  0  0  0  0  0  0  0  0  0
   72.2369   81.1250   91.5931 N   0  0  0  0  0  0  0  0  0  0  0  0
   72.2043   79.8735   92.0501 C   0  0  0  0  0  0  0  0  0  0  0  0
   71.4971   78.9322   91.3126 C   0  0  0  0  0  0  0  0  0  0  0  0
   70.8635   79.3305   90.1472 C   0  0  0  0  0  0  0  0  0  0  0  0
   70.9518   80.6256   89.7609 N   0  0  0  0  0  0  0  0  0  0  0  0
   73.7723   85.8892   89.5174 C   0  0  0  0  0  0  0  0  0  0  0  0
   74.3944   86.2277   90.5559 O   0  0  0  0  0  0  0  0  0  0  0  0
   73.1513   84.6200   89.3783 N   0  0  0  0  0  0  0  0  0  0  0  0
   73.1008   83.5244   90.3197 C   0  0  0  0  0  0  0  0  0  0  0  0
   71.7383   82.9494   90.0644 C   0  0  0  0  0  0  0  0  0  0  0  0
   71.5689   83.1431   88.6109 C   0  0  0  0  0  0  0  0  0  0  0  0
   70.7669   82.5409   87.6542 C   0  0  0  0  0  0  0  0  0  0  0  0
   70.8547   82.9732   86.3531 C   0  0  0  0  0  0  0  0  0  0  0  0
   71.7103   83.9822   85.9681 C   0  0  0  0  0  0  0  0  0  0  0  0
   72.5051   84.5781   86.9202 C   0  0  0  0  0  0  0  0  0  0  0  0
   72.4268   84.1512   88.2387 C   0  0  0  0  0  0  0  0  0  0  0  0
   73.7290   86.8457   88.4999 O   0  0  0  0  0  0  0  0  0  0  0  0
   73.2083   88.9425   87.3992 C   0  0  0  0  0  0  0  0  0  0  0  0
   73.0469   88.0605   88.6175 C   0  0  0  0  0  0  0  0  0  0  0  0
   73.4048   88.8602   89.8258 C   0  0  0  0  0  0  0  0  0  0  0  0
   71.5578   87.7243   88.7049 C   0  0  0  0  0  0  0  0  0  0  0  0
   71.4278   77.5158   91.7820 C   0  0  0  0  0  0  0  0  0  0  0  0
   70.9156   77.5405   93.0827 O   0  0  0  0  0  0  0  0  0  0  0  0
   69.6182   77.2036   93.4182 C   0  0  0  0  0  0  0  0  0  0  0  0
   68.5429   77.9686   93.0414 C   0  0  0  0  0  0  0  0  0  0  0  0
   67.2606   77.5652   93.4171 C   0  0  0  0  0  0  0  0  0  0  0  0
   67.0279   76.4253   94.1540 C   0  0  0  0  0  0  0  0  0  0  0  0
   65.7472   76.0228   94.5290 O   0  0  0  0  0  0  0  0  0  0  0  0
   68.1318   75.6694   94.5223 C   0  0  0  0  0  0  0  0  0  0  0  0
   69.3939   76.0673   94.1521 C   0  0  0  0  0  0  0  0  0  0  0  0
   65.0033   76.5347   94.2792 H   0  0  0  0  0  0  0  0  0  0  0  0
   67.9187   74.4602   95.3000 C   0  0  0  0  0  0  0  0  0  0  0  0
   68.6258   73.4330   95.0836 O   0  0  0  0  0  0  0  0  0  0  0  0
   66.9652   74.3570   96.2904 O   0  0  0  0  0  0  0  0  0  0  0  0
   66.4156   75.0892   96.4897 H   0  0  0  0  0  0  0  0  0  0  0  0
 19 20  1  0  0  0
 20 21  1  0  0  0
 20 22  1  0  0  0
 20 18  1  0  0  0
 18  7  1  0  0  0
  7  8  2  0  0  0
  7  9  1  0  0  0
  9 10  1  0  0  0
 10 11  1  0  0  0
 11  1  1  0  0  0
  1  2  2  0  0  0
  2  3  2  0  0  0
  3  4  2  0  0  0
  4 23  1  0  0  0
 23 24  1  0  0  0
 24 25  1  0  0  0
 25 26  2  0  0  0
 26 27  1  0  0  0
 27 28  2  0  0  0
 28 29  1  0  0  0
 28 30  1  0  0  0
 30 33  1  0  0  0
 33 34  2  0  0  0
 33 35  1  0  0  0
 30 31  2  0  0  0
  4  5  1  0  0  0
  5  6  2  0  0  0
 11 12  1  0  0  0
 12 13  2  0  0  0
 13 14  1  0  0  0
 14 15  2  0  0  0
 15 16  1  0  0  0
 16 17  2  0  0  0
 17  9  1  0  0  0
  6  1  2  0  0  0
 17 12  1  0  0  0
 31 25  1  0  0  0
 29 32  1  0  0  0
 35 36  1  0  0  0
M  END
> <Activity>
8.1

> <minimizedAffinity>
5.40005

> <CNNscore>
0.7918152809

> <CNNaffinity>
5.9511003494

> <CNN_VS>
4.7121720314

$$$$
HIPS6566


 32 33  0  0  0  0  0  0  0  0999 V2000
   70.4002   78.5137   91.7647 C   0  0  0  0  0  0  0  0  0  0  0  0
   71.4231   77.7078   91.2327 C   0  0  0  0  0  0  0  0  0  0  0  0
   72.3321   78.2369   90.3126 C   0  0  0  0  0  0  0  0  0  0  0  0
   72.2324   79.5729   89.9132 C   0  0  0  0  0  0  0  0  0  0  0  0
   71.2116   80.3885   90.4234 C   0  0  0  0  0  0  0  0  0  0  0  0
   70.3054   79.8581   91.3565 C   0  0  0  0  0  0  0  0  0  0  0  0
   68.8426   76.2577   94.4064 C   0  0  0  0  0  0  0  0  0  0  0  0
   67.6164   76.9094   94.6100 C   0  0  0  0  0  0  0  0  0  0  0  0
   67.3028   78.0714   93.9021 C   0  0  0  0  0  0  0  0  0  0  0  0
   68.2084   78.5955   92.9791 C   0  0  0  0  0  0  0  0  0  0  0  0
   69.4381   77.9565   92.7482 C   0  0  0  0  0  0  0  0  0  0  0  0
   69.7476   76.7862   93.4652 C   0  0  0  0  0  0  0  0  0  0  0  0
   69.1348   75.0703   95.1664 N   0  0  0  0  0  0  0  0  0  0  0  0
   69.8368   75.1295   95.8541 H   0  0  0  0  0  0  0  0  0  0  0  0
   68.3384   73.5407   94.9576 S   0  0  0  0  0  0  0  0  0  0  0  0
   67.7551   73.1182   96.2778 O   0  0  0  0  0  0  0  0  0  0  0  0
   69.3349   72.5032   94.5247 O   0  0  0  0  0  0  0  0  0  0  0  0
   67.0864   72.5321   92.7504 C   0  0  0  0  0  0  0  0  0  0  0  0
   67.0221   73.6891   93.7495 C   0  0  0  0  0  0  0  0  0  0  0  0
   65.6615   73.7247   94.4526 C   0  0  0  0  0  0  0  0  0  0  0  0
   71.1417   81.8371   90.0374 C   0  0  0  0  0  0  0  0  0  0  0  0
   71.6675   82.6281   91.1008 O   0  0  0  0  0  0  0  0  0  0  0  0
   70.9100   83.1702   92.1500 C   0  0  0  0  0  0  0  0  0  0  0  0
   70.1305   84.2545   92.0130 C   0  0  0  0  0  0  0  0  0  0  0  0
   69.3234   84.8103   93.1290 C   0  0  0  0  0  0  0  0  0  0  0  0
   69.1135   84.0349   94.2089 C   0  0  0  0  0  0  0  0  0  0  0  0
   68.2923   84.4029   95.2753 O   0  0  0  0  0  0  0  0  0  0  0  0
   67.8516   85.2297   95.2636 H   0  0  0  0  0  0  0  0  0  0  0  0
   68.7513   86.1717   93.0316 C   0  0  0  0  0  0  0  0  0  0  0  0
   69.0181   87.0293   93.9160 O   0  0  0  0  0  0  0  0  0  0  0  0
   67.8872   86.5003   91.9912 O   0  0  0  0  0  0  0  0  0  0  0  0
   67.6859   85.8661   91.3314 H   0  0  0  0  0  0  0  0  0  0  0  0
 18 19  1  0  0  0
 19 20  1  0  0  0
 19 15  1  0  0  0
 15 16  2  0  0  0
 15 17  2  0  0  0
 15 13  1  0  0  0
 13  7  1  0  0  0
  7  8  2  0  0  0
  8  9  1  0  0  0
  9 10  2  0  0  0
 10 11  1  0  0  0
 11  1  1  0  0  0
  1  2  2  0  0  0
  2  3  1  0  0  0
  3  4  2  0  0  0
  4  5  1  0  0  0
  5 21  1  0  0  0
 21 22  1  0  0  0
 22 23  1  0  0  0
 23 24  2  0  0  0
 24 25  1  0  0  0
 25 26  2  0  0  0
 26 27  1  0  0  0
 25 29  1  0  0  0
 29 30  2  0  0  0
 29 31  1  0  0  0
  5  6  2  0  0  0
 11 12  2  0  0  0
 12  7  1  0  0  0
  6  1  1  0  0  0
 13 14  1  0  0  0
 27 28  1  0  0  0
 31 32  1  0  0  0
M  END
> <Activity>
8.6

> <minimizedAffinity>
-0.02127

> <CNNscore>
0.8619320393

> <CNNaffinity>
5.5820312500

> <CNN_VS>
4.8113317490

$$$$
HIPS6566


 32 33  0  0  0  0  0  0  0  0999 V2000
   67.2770   81.2595   95.4069 C   0  0  0  0  0  0  0  0  0  0  0  0
   67.2846   81.3927   96.8073 C   0  0  0  0  0  0  0  0  0  0  0  0
   67.6997   82.5880   97.4005 C   0  0  0  0  0  0  0  0  0  0  0  0
   68.1106   83.6625   96.6061 C   0  0  0  0  0  0  0  0  0  0  0  0
   68.1216   83.5443   95.2084 C   0  0  0  0  0  0  0  0  0  0  0  0
   67.6937   82.3458   94.6135 C   0  0  0  0  0  0  0  0  0  0  0  0
   67.3075   77.7195   94.0065 C   0  0  0  0  0  0  0  0  0  0  0  0
   65.9757   77.6006   93.5799 C   0  0  0  0  0  0  0  0  0  0  0  0
   65.0775   78.6558   93.7514 C   0  0  0  0  0  0  0  0  0  0  0  0
   65.4987   79.8446   94.3481 C   0  0  0  0  0  0  0  0  0  0  0  0
   66.8292   79.9938   94.7740 C   0  0  0  0  0  0  0  0  0  0  0  0
   67.7288   78.9264   94.5982 C   0  0  0  0  0  0  0  0  0  0  0  0
   68.1992   76.6037   93.8251 N   0  0  0  0  0  0  0  0  0  0  0  0
   69.0033   76.7464   93.2753 H   0  0  0  0  0  0  0  0  0  0  0  0
   67.9588   75.0239   94.5061 S   0  0  0  0  0  0  0  0  0  0  0  0
   67.4856   75.1790   95.9252 O   0  0  0  0  0  0  0  0  0  0  0  0
   69.2593   74.2719   94.5185 O   0  0  0  0  0  0  0  0  0  0  0  0
   67.2786   72.7723   93.1189 C   0  0  0  0  0  0  0  0  0  0  0  0
   66.7242   74.1266   93.5654 C   0  0  0  0  0  0  0  0  0  0  0  0
   65.4530   73.9446   94.4009 C   0  0  0  0  0  0  0  0  0  0  0  0
   68.5080   84.7179   94.3567 C   0  0  0  0  0  0  0  0  0  0  0  0
   69.7910   84.4752   93.7843 O   0  0  0  0  0  0  0  0  0  0  0  0
   70.0151   83.8417   92.5526 C   0  0  0  0  0  0  0  0  0  0  0  0
   70.9651   82.9123   92.3635 C   0  0  0  0  0  0  0  0  0  0  0  0
   71.1829   82.2399   91.0573 C   0  0  0  0  0  0  0  0  0  0  0  0
   70.6281   81.0285   90.8660 C   0  0  0  0  0  0  0  0  0  0  0  0
   70.8412   80.2537   89.7253 O   0  0  0  0  0  0  0  0  0  0  0  0
   71.3964   80.5709   89.0404 H   0  0  0  0  0  0  0  0  0  0  0  0
   72.0100   82.8851   90.0135 C   0  0  0  0  0  0  0  0  0  0  0  0
   73.2430   83.0595   90.2085 O   0  0  0  0  0  0  0  0  0  0  0  0
   71.4281   83.3380   88.8331 O   0  0  0  0  0  0  0  0  0  0  0  0
   70.5119   83.2107   88.6836 H   0  0  0  0  0  0  0  0  0  0  0  0
 18 19  1  0  0  0
 19 20  1  0  0  0
 19 15  1  0  0  0
 15 16  2  0  0  0
 15 17  2  0  0  0
 15 13  1  0  0  0
 13  7  1  0  0  0
  7  8  2  0  0  0
  8  9  1  0  0  0
  9 10  2  0  0  0
 10 11  1  0  0  0
 11  1  1  0  0  0
  1  2  2  0  0  0
  2  3  1  0  0  0
  3  4  2  0  0  0
  4  5  1  0  0  0
  5 21  1  0  0  0
 21 22  1  0  0  0
 22 23  1  0  0  0
 23 24  2  0  0  0
 24 25  1  0  0  0
 25 26  2  0  0  0
 26 27  1  0  0  0
 25 29  1  0  0  0
 29 30  2  0  0  0
 29 31  1  0  0  0
  5  6  2  0  0  0
 11 12  2  0  0  0
 12  7  1  0  0  0
  6  1  1  0  0  0
 13 14  1  0  0  0
 27 28  1  0  0  0
 31 32  1  0  0  0
M  END
> <Activity>
8.6

> <minimizedAffinity>
-3.87615

> <CNNscore>
0.8513190746

> <CNNaffinity>
5.9055967331

> <CNN_VS>
5.0275473595

$$$$
HIPS6566


 32 33  0  0  0  0  0  0  0  0999 V2000
   71.5598   80.0819   90.7340 C   0  0  0  0  0  0  0  0  0  0  0  0
   72.2080   79.4985   89.6303 C   0  0  0  0  0  0  0  0  0  0  0  0
   72.4681   78.1256   89.6089 C   0  0  0  0  0  0  0  0  0  0  0  0
   72.0853   77.3199   90.6854 C   0  0  0  0  0  0  0  0  0  0  0  0
   71.4490   77.8856   91.8002 C   0  0  0  0  0  0  0  0  0  0  0  0
   71.1786   79.2640   91.8152 C   0  0  0  0  0  0  0  0  0  0  0  0
   70.5011   83.5321   91.9459 C   0  0  0  0  0  0  0  0  0  0  0  0
   70.7430   84.2948   90.7928 C   0  0  0  0  0  0  0  0  0  0  0  0
   71.2501   83.6958   89.6379 C   0  0  0  0  0  0  0  0  0  0  0  0
   71.5190   82.3268   89.6187 C   0  0  0  0  0  0  0  0  0  0  0  0
   71.2753   81.5385   90.7559 C   0  0  0  0  0  0  0  0  0  0  0  0
   70.7645   82.1487   91.9162 C   0  0  0  0  0  0  0  0  0  0  0  0
   69.9915   84.1893   93.1213 N   0  0  0  0  0  0  0  0  0  0  0  0
   70.2915   83.8553   93.9975 H   0  0  0  0  0  0  0  0  0  0  0  0
   68.8858   85.5289   93.1052 S   0  0  0  0  0  0  0  0  0  0  0  0
   68.6864   85.9707   91.6816 O   0  0  0  0  0  0  0  0  0  0  0  0
   69.4657   86.6766   93.8820 O   0  0  0  0  0  0  0  0  0  0  0  0
   67.3870   85.0005   95.3258 C   0  0  0  0  0  0  0  0  0  0  0  0
   67.3075   85.0359   93.7983 C   0  0  0  0  0  0  0  0  0  0  0  0
   66.2048   85.9926   93.3337 C   0  0  0  0  0  0  0  0  0  0  0  0
   70.9877   77.0100   92.9284 C   0  0  0  0  0  0  0  0  0  0  0  0
   69.7503   77.5103   93.4298 O   0  0  0  0  0  0  0  0  0  0  0  0
   68.6880   76.7159   93.8870 C   0  0  0  0  0  0  0  0  0  0  0  0
   68.8624   75.5697   94.5637 C   0  0  0  0  0  0  0  0  0  0  0  0
   67.7286   74.7450   95.0534 C   0  0  0  0  0  0  0  0  0  0  0  0
   66.4788   75.1289   94.7332 C   0  0  0  0  0  0  0  0  0  0  0  0
   65.3308   74.4981   95.2140 O   0  0  0  0  0  0  0  0  0  0  0  0
   65.4065   73.7651   95.7927 H   0  0  0  0  0  0  0  0  0  0  0  0
   67.9800   73.5506   95.8903 C   0  0  0  0  0  0  0  0  0  0  0  0
   67.1103   73.1712   96.7199 O   0  0  0  0  0  0  0  0  0  0  0  0
   69.1882   72.8662   95.7967 O   0  0  0  0  0  0  0  0  0  0  0  0
   69.8379   73.1445   95.1814 H   0  0  0  0  0  0  0  0  0  0  0  0
 18 19  1  0  0  0
 19 20  1  0  0  0
 19 15  1  0  0  0
 15 16  2  0  0  0
 15 17  2  0  0  0
 15 13  1  0  0  0
 13  7  1  0  0  0
  7  8  2  0  0  0
  8  9  1  0  0  0
  9 10  2  0  0  0
 10 11  1  0  0  0
 11  1  1  0  0  0
  1  2  2  0  0  0
  2  3  1  0  0  0
  3  4  2  0  0  0
  4  5  1  0  0  0
  5 21  1  0  0  0
 21 22  1  0  0  0
 22 23  1  0  0  0
 23 24  2  0  0  0
 24 25  1  0  0  0
 25 26  2  0  0  0
 26 27  1  0  0  0
 25 29  1  0  0  0
 29 30  2  0  0  0
 29 31  1  0  0  0
  5  6  2  0  0  0
 11 12  2  0  0  0
 12  7  1  0  0  0
  6  1  1  0  0  0
 13 14  1  0  0  0
 27 28  1  0  0  0
 31 32  1  0  0  0
M  END
> <Activity>
8.6

> <minimizedAffinity>
-2.47647

> <CNNscore>
0.8433563709

> <CNNaffinity>
5.5228252411

> <CNN_VS>
4.6577100754

$$$$
HIPS6295


 36 39  0  0  0  0  0  0  0  0999 V2000
   69.7009   76.4228   94.5951 C   0  0  0  0  0  0  0  0  0  0  0  0
   68.3615   76.8393   94.6014 C   0  0  0  0  0  0  0  0  0  0  0  0
   67.9014   77.7470   93.6435 C   0  0  0  0  0  0  0  0  0  0  0  0
   66.2214   78.2509   93.6502 Cl  0  0  0  0  0  0  0  0  0  0  0  0
   68.7742   78.2390   92.6690 C   0  0  0  0  0  0  0  0  0  0  0  0
   70.1218   77.8422   92.6579 C   0  0  0  0  0  0  0  0  0  0  0  0
   70.5822   76.9454   93.6357 C   0  0  0  0  0  0  0  0  0  0  0  0
   71.0321   78.3054   91.5871 C   0  0  0  0  0  0  0  0  0  0  0  0
   71.8866   77.4037   90.9326 C   0  0  0  0  0  0  0  0  0  0  0  0
   72.7081   77.8430   89.8917 C   0  0  0  0  0  0  0  0  0  0  0  0
   72.6625   79.1763   89.4760 C   0  0  0  0  0  0  0  0  0  0  0  0
   71.7977   80.0839   90.0976 C   0  0  0  0  0  0  0  0  0  0  0  0
   71.0073   79.6484   91.1781 C   0  0  0  0  0  0  0  0  0  0  0  0
   71.7373   81.3967   89.6015 O   0  0  0  0  0  0  0  0  0  0  0  0
   72.5465   82.4840   90.0557 C   0  0  0  0  0  0  0  0  0  0  0  0
   72.4155   83.6708   89.1349 C   0  0  0  0  0  0  0  0  0  0  0  0
   71.5786   83.5985   88.0098 C   0  0  0  0  0  0  0  0  0  0  0  0
   71.4296   84.7068   87.1706 C   0  0  0  0  0  0  0  0  0  0  0  0
   72.1164   85.8923   87.4455 C   0  0  0  0  0  0  0  0  0  0  0  0
   72.9596   85.9709   88.5586 C   0  0  0  0  0  0  0  0  0  0  0  0
   73.8129   87.4630   88.9102 Cl  0  0  0  0  0  0  0  0  0  0  0  0
   73.1165   84.8609   89.3965 C   0  0  0  0  0  0  0  0  0  0  0  0
   70.1695   75.3922   95.5872 C   0  0  0  0  0  0  0  0  0  0  0  0
   69.0525   74.7471   96.2011 O   0  0  0  0  0  0  0  0  0  0  0  0
   66.9050   73.0503   93.6972 C   0  0  0  0  0  0  0  0  0  0  0  0
   68.0282   73.5152   94.4070 C   0  0  0  0  0  0  0  0  0  0  0  0
   67.8872   74.3293   95.5362 C   0  0  0  0  0  0  0  0  0  0  0  0
   66.5988   74.6985   95.9584 C   0  0  0  0  0  0  0  0  0  0  0  0
   65.4756   74.2501   95.2631 C   0  0  0  0  0  0  0  0  0  0  0  0
   65.6158   73.4318   94.1342 C   0  0  0  0  0  0  0  0  0  0  0  0
   64.4758   73.0062   93.4519 O   0  0  0  0  0  0  0  0  0  0  0  0
   63.6266   73.2656   93.7511 H   0  0  0  0  0  0  0  0  0  0  0  0
   68.0726   71.3688   92.4602 O   0  0  0  0  0  0  0  0  0  0  0  0
   67.1063   72.1763   92.5129 C   0  0  0  0  0  0  0  0  0  0  0  0
   66.2239   72.2438   91.4372 O   0  0  0  0  0  0  0  0  0  0  0  0
   65.5007   72.8391   91.4612 H   0  0  0  0  0  0  0  0  0  0  0  0
 33 34  2  0  0  0
 34 35  1  0  0  0
 34 25  1  0  0  0
 25 26  2  0  0  0
 26 27  1  0  0  0
 27 24  1  0  0  0
 24 23  1  0  0  0
 23  1  1  0  0  0
  1  2  2  0  0  0
  2  3  1  0  0  0
  3  4  1  0  0  0
  3  5  2  0  0  0
  5  6  1  0  0  0
  6  8  1  0  0  0
  8  9  2  0  0  0
  9 10  1  0  0  0
 10 11  2  0  0  0
 11 12  1  0  0  0
 12 14  1  0  0  0
 14 15  1  0  0  0
 15 16  1  0  0  0
 16 17  2  0  0  0
 17 18  1  0  0  0
 18 19  2  0  0  0
 19 20  1  0  0  0
 20 21  1  0  0  0
 20 22  2  0  0  0
 12 13  2  0  0  0
  6  7  2  0  0  0
 27 28  2  0  0  0
 28 29  1  0  0  0
 29 30  2  0  0  0
 30 31  1  0  0  0
 30 25  1  0  0  0
  7  1  1  0  0  0
 13  8  1  0  0  0
 22 16  1  0  0  0
 35 36  1  0  0  0
 31 32  1  0  0  0
M  END
> <Activity>
14.5

> <minimizedAffinity>
0.41276

> <CNNscore>
0.8773536086

> <CNNaffinity>
6.3697957993

> <CNN_VS>
5.5885634422

$$$$
HIPS6295


 36 39  0  0  0  0  0  0  0  0999 V2000
   66.9260   75.5076   93.9819 C   0  0  0  0  0  0  0  0  0  0  0  0
   65.8840   76.4383   94.1063 C   0  0  0  0  0  0  0  0  0  0  0  0
   66.1056   77.7872   93.8155 C   0  0  0  0  0  0  0  0  0  0  0  0
   64.7929   78.9415   93.9598 Cl  0  0  0  0  0  0  0  0  0  0  0  0
   67.3673   78.2139   93.3917 C   0  0  0  0  0  0  0  0  0  0  0  0
   68.4247   77.2963   93.2756 C   0  0  0  0  0  0  0  0  0  0  0  0
   68.2002   75.9458   93.5889 C   0  0  0  0  0  0  0  0  0  0  0  0
   69.7424   77.7303   92.7607 C   0  0  0  0  0  0  0  0  0  0  0  0
   70.9112   77.0311   93.1018 C   0  0  0  0  0  0  0  0  0  0  0  0
   72.1437   77.4216   92.5728 C   0  0  0  0  0  0  0  0  0  0  0  0
   72.2163   78.4921   91.6777 C   0  0  0  0  0  0  0  0  0  0  0  0
   71.0589   79.1842   91.3044 C   0  0  0  0  0  0  0  0  0  0  0  0
   69.8261   78.8185   91.8772 C   0  0  0  0  0  0  0  0  0  0  0  0
   71.1715   80.2092   90.3505 O   0  0  0  0  0  0  0  0  0  0  0  0
   70.6416   81.5288   90.4970 C   0  0  0  0  0  0  0  0  0  0  0  0
   71.5436   82.5443   89.8425 C   0  0  0  0  0  0  0  0  0  0  0  0
   72.9144   82.5657   90.1456 C   0  0  0  0  0  0  0  0  0  0  0  0
   73.7603   83.4849   89.5177 C   0  0  0  0  0  0  0  0  0  0  0  0
   73.2445   84.3906   88.5868 C   0  0  0  0  0  0  0  0  0  0  0  0
   71.8789   84.3832   88.2853 C   0  0  0  0  0  0  0  0  0  0  0  0
   71.2334   85.5126   87.1081 Cl  0  0  0  0  0  0  0  0  0  0  0  0
   71.0284   83.4691   88.9176 C   0  0  0  0  0  0  0  0  0  0  0  0
   66.6592   74.0470   94.2299 C   0  0  0  0  0  0  0  0  0  0  0  0
   67.6453   73.5023   95.1084 O   0  0  0  0  0  0  0  0  0  0  0  0
   69.8223   71.0693   93.3473 C   0  0  0  0  0  0  0  0  0  0  0  0
   68.6927   71.7753   93.8024 C   0  0  0  0  0  0  0  0  0  0  0  0
   68.8154   72.8364   94.7060 C   0  0  0  0  0  0  0  0  0  0  0  0
   70.0909   73.1922   95.1760 C   0  0  0  0  0  0  0  0  0  0  0  0
   71.2200   72.4995   94.7385 C   0  0  0  0  0  0  0  0  0  0  0  0
   71.0983   71.4389   93.8307 C   0  0  0  0  0  0  0  0  0  0  0  0
   72.2431   70.7570   93.4179 O   0  0  0  0  0  0  0  0  0  0  0  0
   73.0835   71.0112   93.7453 H   0  0  0  0  0  0  0  0  0  0  0  0
   69.0311   68.9060   92.7029 O   0  0  0  0  0  0  0  0  0  0  0  0
   69.6414   69.9594   92.3766 C   0  0  0  0  0  0  0  0  0  0  0  0
   70.1524   70.0707   91.0855 O   0  0  0  0  0  0  0  0  0  0  0  0
   70.6085   70.8475   90.8276 H   0  0  0  0  0  0  0  0  0  0  0  0
 33 34  2  0  0  0
 34 35  1  0  0  0
 34 25  1  0  0  0
 25 26  2  0  0  0
 26 27  1  0  0  0
 27 24  1  0  0  0
 24 23  1  0  0  0
 23  1  1  0  0  0
  1  2  2  0  0  0
  2  3  1  0  0  0
  3  4  1  0  0  0
  3  5  2  0  0  0
  5  6  1  0  0  0
  6  8  1  0  0  0
  8  9  2  0  0  0
  9 10  1  0  0  0
 10 11  2  0  0  0
 11 12  1  0  0  0
 12 14  1  0  0  0
 14 15  1  0  0  0
 15 16  1  0  0  0
 16 17  2  0  0  0
 17 18  1  0  0  0
 18 19  2  0  0  0
 19 20  1  0  0  0
 20 21  1  0  0  0
 20 22  2  0  0  0
 12 13  2  0  0  0
  6  7  2  0  0  0
 27 28  2  0  0  0
 28 29  1  0  0  0
 29 30  2  0  0  0
 30 31  1  0  0  0
 30 25  1  0  0  0
  7  1  1  0  0  0
 13  8  1  0  0  0
 22 16  1  0  0  0
 35 36  1  0  0  0
 31 32  1  0  0  0
M  END
> <Activity>
14.5

> <minimizedAffinity>
-0.37526

> <CNNscore>
0.8727127910

> <CNNaffinity>
6.3139734268

> <CNN_VS>
5.5102853775

$$$$
HIPS6295


 36 39  0  0  0  0  0  0  0  0999 V2000
   70.3858   84.3683   91.5667 C   0  0  0  0  0  0  0  0  0  0  0  0
   69.9845   85.6808   91.2769 C   0  0  0  0  0  0  0  0  0  0  0  0
   69.0372   86.3215   92.0801 C   0  0  0  0  0  0  0  0  0  0  0  0
   68.5523   87.9680   91.7188 Cl  0  0  0  0  0  0  0  0  0  0  0  0
   68.4900   85.6583   93.1820 C   0  0  0  0  0  0  0  0  0  0  0  0
   68.8713   84.3387   93.4772 C   0  0  0  0  0  0  0  0  0  0  0  0
   69.8086   83.6937   92.6539 C   0  0  0  0  0  0  0  0  0  0  0  0
   68.3478   83.6576   94.6821 C   0  0  0  0  0  0  0  0  0  0  0  0
   68.2094   84.3517   95.8948 C   0  0  0  0  0  0  0  0  0  0  0  0
   67.6707   83.7117   97.0135 C   0  0  0  0  0  0  0  0  0  0  0  0
   67.2390   82.3858   96.9240 C   0  0  0  0  0  0  0  0  0  0  0  0
   67.3434   81.6858   95.7169 C   0  0  0  0  0  0  0  0  0  0  0  0
   67.9315   82.3188   94.6055 C   0  0  0  0  0  0  0  0  0  0  0  0
   66.8346   80.3779   95.6565 O   0  0  0  0  0  0  0  0  0  0  0  0
   66.0931   79.8352   94.5614 C   0  0  0  0  0  0  0  0  0  0  0  0
   66.5314   78.4234   94.2645 C   0  0  0  0  0  0  0  0  0  0  0  0
   67.8061   78.1813   93.7278 C   0  0  0  0  0  0  0  0  0  0  0  0
   68.2289   76.8719   93.4802 C   0  0  0  0  0  0  0  0  0  0  0  0
   67.3827   75.7963   93.7625 C   0  0  0  0  0  0  0  0  0  0  0  0
   66.1077   76.0279   94.2885 C   0  0  0  0  0  0  0  0  0  0  0  0
   65.0497   74.6769   94.6538 Cl  0  0  0  0  0  0  0  0  0  0  0  0
   65.6788   77.3380   94.5307 C   0  0  0  0  0  0  0  0  0  0  0  0
   71.4573   83.7124   90.7375 C   0  0  0  0  0  0  0  0  0  0  0  0
   71.9311   82.5284   91.3814 O   0  0  0  0  0  0  0  0  0  0  0  0
   71.9258   78.8189   91.3792 C   0  0  0  0  0  0  0  0  0  0  0  0
   72.1272   80.1604   91.7551 C   0  0  0  0  0  0  0  0  0  0  0  0
   71.7064   81.2144   90.9368 C   0  0  0  0  0  0  0  0  0  0  0  0
   71.0835   80.9241   89.7112 C   0  0  0  0  0  0  0  0  0  0  0  0
   70.8808   79.5998   89.3219 C   0  0  0  0  0  0  0  0  0  0  0  0
   71.2987   78.5436   90.1425 C   0  0  0  0  0  0  0  0  0  0  0  0
   71.0926   77.2290   89.7236 O   0  0  0  0  0  0  0  0  0  0  0  0
   70.6758   77.0591   88.9018 H   0  0  0  0  0  0  0  0  0  0  0  0
   71.5461   77.0451   92.9382 O   0  0  0  0  0  0  0  0  0  0  0  0
   72.3776   77.7351   92.2892 C   0  0  0  0  0  0  0  0  0  0  0  0
   73.7370   77.4706   92.4393 O   0  0  0  0  0  0  0  0  0  0  0  0
   74.3676   77.9748   91.9637 H   0  0  0  0  0  0  0  0  0  0  0  0
 33 34  2  0  0  0
 34 35  1  0  0  0
 34 25  1  0  0  0
 25 26  2  0  0  0
 26 27  1  0  0  0
 27 24  1  0  0  0
 24 23  1  0  0  0
 23  1  1  0  0  0
  1  2  2  0  0  0
  2  3  1  0  0  0
  3  4  1  0  0  0
  3  5  2  0  0  0
  5  6  1  0  0  0
  6  8  1  0  0  0
  8  9  2  0  0  0
  9 10  1  0  0  0
 10 11  2  0  0  0
 11 12  1  0  0  0
 12 14  1  0  0  0
 14 15  1  0  0  0
 15 16  1  0  0  0
 16 17  2  0  0  0
 17 18  1  0  0  0
 18 19  2  0  0  0
 19 20  1  0  0  0
 20 21  1  0  0  0
 20 22  2  0  0  0
 12 13  2  0  0  0
  6  7  2  0  0  0
 27 28  2  0  0  0
 28 29  1  0  0  0
 29 30  2  0  0  0
 30 31  1  0  0  0
 30 25  1  0  0  0
  7  1  1  0  0  0
 13  8  1  0  0  0
 22 16  1  0  0  0
 35 36  1  0  0  0
 31 32  1  0  0  0
M  END
> <Activity>
14.5

> <minimizedAffinity>
2.18461

> <CNNscore>
0.8664159179

> <CNNaffinity>
6.8005752563

> <CNN_VS>
5.8921265602

$$$$
HIPS6774


 35 38  0  0  0  0  0  0  0  0999 V2000
   71.5145   80.1063   90.2527 C   0  0  0  0  0  0  0  0  0  0  0  0
   72.4545   79.2550   89.6552 C   0  0  0  0  0  0  0  0  0  0  0  0
   72.5556   77.9332   90.0844 C   0  0  0  0  0  0  0  0  0  0  0  0
   71.7498   77.4780   91.0780 N   0  0  0  0  0  0  0  0  0  0  0  0
   70.8175   78.2693   91.6860 C   0  0  0  0  0  0  0  0  0  0  0  0
   70.6979   79.6134   91.2822 C   0  0  0  0  0  0  0  0  0  0  0  0
   69.9899   77.6940   92.7774 C   0  0  0  0  0  0  0  0  0  0  0  0
   68.6908   78.1682   93.0483 C   0  0  0  0  0  0  0  0  0  0  0  0
   67.9167   77.5757   94.0514 C   0  0  0  0  0  0  0  0  0  0  0  0
   68.4218   76.5052   94.7883 C   0  0  0  0  0  0  0  0  0  0  0  0
   69.7091   76.0116   94.5389 C   0  0  0  0  0  0  0  0  0  0  0  0
   70.4911   76.6207   93.5380 C   0  0  0  0  0  0  0  0  0  0  0  0
   70.1711   74.9259   95.3040 O   0  0  0  0  0  0  0  0  0  0  0  0
   69.4851   73.6861   95.4652 C   0  0  0  0  0  0  0  0  0  0  0  0
   68.0126   73.8438   95.1797 C   0  0  0  0  0  0  0  0  0  0  0  0
   67.4461   73.3017   94.0129 C   0  0  0  0  0  0  0  0  0  0  0  0
   66.0814   73.4590   93.7529 C   0  0  0  0  0  0  0  0  0  0  0  0
   65.2680   74.1368   94.6692 C   0  0  0  0  0  0  0  0  0  0  0  0
   65.8198   74.6633   95.8438 C   0  0  0  0  0  0  0  0  0  0  0  0
   64.7928   75.5000   96.9980 Cl  0  0  0  0  0  0  0  0  0  0  0  0
   67.1885   74.5184   96.0989 C   0  0  0  0  0  0  0  0  0  0  0  0
   71.4695   81.5571   89.8574 C   0  0  0  0  0  0  0  0  0  0  0  0
   71.7417   82.4165   90.9623 O   0  0  0  0  0  0  0  0  0  0  0  0
   69.5243   84.4855   93.1007 C   0  0  0  0  0  0  0  0  0  0  0  0
   70.3188   83.4261   92.6282 C   0  0  0  0  0  0  0  0  0  0  0  0
   70.9057   83.4705   91.3543 C   0  0  0  0  0  0  0  0  0  0  0  0
   70.6581   84.5751   90.5243 C   0  0  0  0  0  0  0  0  0  0  0  0
   69.8351   85.6111   90.9587 C   0  0  0  0  0  0  0  0  0  0  0  0
   69.2661   85.5822   92.2404 C   0  0  0  0  0  0  0  0  0  0  0  0
   68.4525   86.6375   92.6527 O   0  0  0  0  0  0  0  0  0  0  0  0
   68.2894   87.3568   92.0748 H   0  0  0  0  0  0  0  0  0  0  0  0
   68.1376   83.5884   94.8338 O   0  0  0  0  0  0  0  0  0  0  0  0
   69.0012   84.4388   94.4934 C   0  0  0  0  0  0  0  0  0  0  0  0
   69.4471   85.3632   95.4351 O   0  0  0  0  0  0  0  0  0  0  0  0
   70.0895   86.0022   95.1965 H   0  0  0  0  0  0  0  0  0  0  0  0
 32 33  2  0  0  0
 33 34  1  0  0  0
 33 24  1  0  0  0
 24 25  2  0  0  0
 25 26  1  0  0  0
 26 23  1  0  0  0
 23 22  1  0  0  0
 22  1  1  0  0  0
  1  2  2  0  0  0
  2  3  1  0  0  0
  3  4  2  0  0  0
  4  5  2  0  0  0
  5  7  1  0  0  0
  7  8  2  0  0  0
  8  9  1  0  0  0
  9 10  2  0  0  0
 10 11  1  0  0  0
 11 13  1  0  0  0
 13 14  1  0  0  0
 14 15  1  0  0  0
 15 16  2  0  0  0
 16 17  1  0  0  0
 17 18  2  0  0  0
 18 19  1  0  0  0
 19 20  1  0  0  0
 19 21  2  0  0  0
 11 12  2  0  0  0
  5  6  2  0  0  0
 26 27  2  0  0  0
 27 28  1  0  0  0
 28 29  2  0  0  0
 29 30  1  0  0  0
 29 24  1  0  0  0
  6  1  1  0  0  0
 12  7  1  0  0  0
 21 15  1  0  0  0
 34 35  1  0  0  0
 30 31  1  0  0  0
M  END
> <Activity>
15.2

> <minimizedAffinity>
0.81079

> <CNNscore>
0.8646522760

> <CNNaffinity>
6.0293970108

> <CNN_VS>
5.2133316994

$$$$
HIPS6774


 35 38  0  0  0  0  0  0  0  0999 V2000
   71.2730   80.0961   90.3736 C   0  0  0  0  0  0  0  0  0  0  0  0
   72.2057   79.2349   89.7789 C   0  0  0  0  0  0  0  0  0  0  0  0
   72.2981   77.9147   90.2148 C   0  0  0  0  0  0  0  0  0  0  0  0
   71.4907   77.4705   91.2121 N   0  0  0  0  0  0  0  0  0  0  0  0
   70.5652   78.2716   91.8175 C   0  0  0  0  0  0  0  0  0  0  0  0
   70.4546   79.6144   91.4070 C   0  0  0  0  0  0  0  0  0  0  0  0
   69.7354   77.7079   92.9133 C   0  0  0  0  0  0  0  0  0  0  0  0
   68.3821   78.0665   93.0750 C   0  0  0  0  0  0  0  0  0  0  0  0
   67.6123   77.4839   94.0871 C   0  0  0  0  0  0  0  0  0  0  0  0
   68.1761   76.5372   94.9416 C   0  0  0  0  0  0  0  0  0  0  0  0
   69.5182   76.1599   94.8024 C   0  0  0  0  0  0  0  0  0  0  0  0
   70.2940   76.7600   93.7914 C   0  0  0  0  0  0  0  0  0  0  0  0
   70.0390   75.1961   95.6841 O   0  0  0  0  0  0  0  0  0  0  0  0
   69.5994   73.8422   95.7708 C   0  0  0  0  0  0  0  0  0  0  0  0
   68.2090   73.6898   95.2069 C   0  0  0  0  0  0  0  0  0  0  0  0
   67.0862   74.1020   95.9457 C   0  0  0  0  0  0  0  0  0  0  0  0
   65.8004   73.9503   95.4179 C   0  0  0  0  0  0  0  0  0  0  0  0
   65.6287   73.4095   94.1378 C   0  0  0  0  0  0  0  0  0  0  0  0
   66.7424   73.0141   93.3866 C   0  0  0  0  0  0  0  0  0  0  0  0
   66.5234   72.3498   91.7748 Cl  0  0  0  0  0  0  0  0  0  0  0  0
   68.0295   73.1528   93.9191 C   0  0  0  0  0  0  0  0  0  0  0  0
   71.2377   81.5451   89.9708 C   0  0  0  0  0  0  0  0  0  0  0  0
   71.5850   82.4052   91.0539 O   0  0  0  0  0  0  0  0  0  0  0  0
   69.9399   85.7239   90.8299 C   0  0  0  0  0  0  0  0  0  0  0  0
   70.7328   84.6012   90.5338 C   0  0  0  0  0  0  0  0  0  0  0  0
   70.8339   83.5264   91.4305 C   0  0  0  0  0  0  0  0  0  0  0  0
   70.1634   83.5965   92.6617 C   0  0  0  0  0  0  0  0  0  0  0  0
   69.4120   84.7220   92.9907 C   0  0  0  0  0  0  0  0  0  0  0  0
   69.2887   85.7878   92.0874 C   0  0  0  0  0  0  0  0  0  0  0  0
   68.5228   86.8992   92.4395 O   0  0  0  0  0  0  0  0  0  0  0  0
   68.0971   86.9295   93.2737 H   0  0  0  0  0  0  0  0  0  0  0  0
   69.9853   86.5633   88.5883 O   0  0  0  0  0  0  0  0  0  0  0  0
   69.7856   86.7963   89.8093 C   0  0  0  0  0  0  0  0  0  0  0  0
   69.4422   88.0873   90.2036 O   0  0  0  0  0  0  0  0  0  0  0  0
   69.2905   88.2760   91.1087 H   0  0  0  0  0  0  0  0  0  0  0  0
 32 33  2  0  0  0
 33 34  1  0  0  0
 33 24  1  0  0  0
 24 25  2  0  0  0
 25 26  1  0  0  0
 26 23  1  0  0  0
 23 22  1  0  0  0
 22  1  1  0  0  0
  1  2  2  0  0  0
  2  3  1  0  0  0
  3  4  2  0  0  0
  4  5  2  0  0  0
  5  7  1  0  0  0
  7  8  2  0  0  0
  8  9  1  0  0  0
  9 10  2  0  0  0
 10 11  1  0  0  0
 11 13  1  0  0  0
 13 14  1  0  0  0
 14 15  1  0  0  0
 15 16  2  0  0  0
 16 17  1  0  0  0
 17 18  2  0  0  0
 18 19  1  0  0  0
 19 20  1  0  0  0
 19 21  2  0  0  0
 11 12  2  0  0  0
  5  6  2  0  0  0
 26 27  2  0  0  0
 27 28  1  0  0  0
 28 29  2  0  0  0
 29 30  1  0  0  0
 29 24  1  0  0  0
  6  1  1  0  0  0
 12  7  1  0  0  0
 21 15  1  0  0  0
 34 35  1  0  0  0
 30 31  1  0  0  0
M  END
> <Activity>
15.2

> <minimizedAffinity>
0.87002

> <CNNscore>
0.8555769920

> <CNNaffinity>
5.9000797272

> <CNN_VS>
5.0479726791

$$$$
HIPS6774


 35 38  0  0  0  0  0  0  0  0999 V2000
   70.7923   83.3077   91.2302 C   0  0  0  0  0  0  0  0  0  0  0  0
   70.9075   82.7491   92.5108 C   0  0  0  0  0  0  0  0  0  0  0  0
   70.3695   83.4223   93.6057 C   0  0  0  0  0  0  0  0  0  0  0  0
   69.7420   84.6135   93.4294 N   0  0  0  0  0  0  0  0  0  0  0  0
   69.6023   85.1935   92.2010 C   0  0  0  0  0  0  0  0  0  0  0  0
   70.1448   84.5432   91.0755 C   0  0  0  0  0  0  0  0  0  0  0  0
   68.9169   86.5079   92.1019 C   0  0  0  0  0  0  0  0  0  0  0  0
   69.3098   87.4769   91.1571 C   0  0  0  0  0  0  0  0  0  0  0  0
   68.6157   88.6870   91.0549 C   0  0  0  0  0  0  0  0  0  0  0  0
   67.5236   88.9424   91.8834 C   0  0  0  0  0  0  0  0  0  0  0  0
   67.1094   87.9962   92.8300 C   0  0  0  0  0  0  0  0  0  0  0  0
   67.8203   86.7851   92.9399 C   0  0  0  0  0  0  0  0  0  0  0  0
   65.9983   88.2973   93.6377 O   0  0  0  0  0  0  0  0  0  0  0  0
   65.2479   87.3442   94.3875 C   0  0  0  0  0  0  0  0  0  0  0  0
   63.7900   87.3836   94.0034 C   0  0  0  0  0  0  0  0  0  0  0  0
   63.0406   88.5637   94.1522 C   0  0  0  0  0  0  0  0  0  0  0  0
   61.6877   88.5889   93.8003 C   0  0  0  0  0  0  0  0  0  0  0  0
   61.0803   87.4428   93.2730 C   0  0  0  0  0  0  0  0  0  0  0  0
   61.8237   86.2683   93.1028 C   0  0  0  0  0  0  0  0  0  0  0  0
   61.0613   84.8368   92.4269 Cl  0  0  0  0  0  0  0  0  0  0  0  0
   63.1748   86.2375   93.4674 C   0  0  0  0  0  0  0  0  0  0  0  0
   71.4549   82.6302   90.0619 C   0  0  0  0  0  0  0  0  0  0  0  0
   70.8209   81.3953   89.7356 O   0  0  0  0  0  0  0  0  0  0  0  0
   71.0165   78.2414   91.6810 C   0  0  0  0  0  0  0  0  0  0  0  0
   70.6391   79.5246   91.2477 C   0  0  0  0  0  0  0  0  0  0  0  0
   71.2830   80.1445   90.1658 C   0  0  0  0  0  0  0  0  0  0  0  0
   72.3498   79.4855   89.5350 C   0  0  0  0  0  0  0  0  0  0  0  0
   72.7672   78.2343   89.9820 C   0  0  0  0  0  0  0  0  0  0  0  0
   72.1108   77.6007   91.0474 C   0  0  0  0  0  0  0  0  0  0  0  0
   72.5445   76.3439   91.4691 O   0  0  0  0  0  0  0  0  0  0  0  0
   73.2690   75.9307   91.0421 H   0  0  0  0  0  0  0  0  0  0  0  0
   70.7701   76.7019   93.4978 O   0  0  0  0  0  0  0  0  0  0  0  0
   70.2433   77.5835   92.7695 C   0  0  0  0  0  0  0  0  0  0  0  0
   68.9080   77.9213   92.9762 O   0  0  0  0  0  0  0  0  0  0  0  0
   68.5022   78.5756   92.4421 H   0  0  0  0  0  0  0  0  0  0  0  0
 32 33  2  0  0  0
 33 34  1  0  0  0
 33 24  1  0  0  0
 24 25  2  0  0  0
 25 26  1  0  0  0
 26 23  1  0  0  0
 23 22  1  0  0  0
 22  1  1  0  0  0
  1  2  2  0  0  0
  2  3  1  0  0  0
  3  4  2  0  0  0
  4  5  2  0  0  0
  5  7  1  0  0  0
  7  8  2  0  0  0
  8  9  1  0  0  0
  9 10  2  0  0  0
 10 11  1  0  0  0
 11 13  1  0  0  0
 13 14  1  0  0  0
 14 15  1  0  0  0
 15 16  2  0  0  0
 16 17  1  0  0  0
 17 18  2  0  0  0
 18 19  1  0  0  0
 19 20  1  0  0  0
 19 21  2  0  0  0
 11 12  2  0  0  0
  5  6  2  0  0  0
 26 27  2  0  0  0
 27 28  1  0  0  0
 28 29  2  0  0  0
 29 30  1  0  0  0
 29 24  1  0  0  0
  6  1  1  0  0  0
 12  7  1  0  0  0
 21 15  1  0  0  0
 34 35  1  0  0  0
 30 31  1  0  0  0
M  END
> <Activity>
15.2

> <minimizedAffinity>
-0.61172

> <CNNscore>
0.8453533053

> <CNNaffinity>
6.0752067566

> <CNN_VS>
5.1356959343

$$$$
HIPS6066


 34 37  0  0  0  0  0  0  0  0999 V2000
   64.3436   79.0542   92.9629 C   0  0  0  0  0  0  0  0  0  0  0  0
   63.1195   79.6466   93.3023 C   0  0  0  0  0  0  0  0  0  0  0  0
   62.3649   80.3015   92.3292 C   0  0  0  0  0  0  0  0  0  0  0  0
   62.8268   80.3752   91.0128 C   0  0  0  0  0  0  0  0  0  0  0  0
   64.0567   79.7987   90.6574 C   0  0  0  0  0  0  0  0  0  0  0  0
   64.8121   79.1445   91.6436 C   0  0  0  0  0  0  0  0  0  0  0  0
   64.5461   79.8652   89.2587 C   0  0  0  0  0  0  0  0  0  0  0  0
   64.4773   81.0690   88.5374 C   0  0  0  0  0  0  0  0  0  0  0  0
   64.9154   81.1236   87.2126 C   0  0  0  0  0  0  0  0  0  0  0  0
   65.4314   79.9828   86.5952 C   0  0  0  0  0  0  0  0  0  0  0  0
   65.5286   78.7780   87.2995 C   0  0  0  0  0  0  0  0  0  0  0  0
   65.0749   78.7209   88.6327 C   0  0  0  0  0  0  0  0  0  0  0  0
   66.0907   77.6704   86.6438 O   0  0  0  0  0  0  0  0  0  0  0  0
   66.9782   77.7411   85.5248 C   0  0  0  0  0  0  0  0  0  0  0  0
   66.9136   76.4790   84.7001 C   0  0  0  0  0  0  0  0  0  0  0  0
   66.3063   76.4847   83.4311 C   0  0  0  0  0  0  0  0  0  0  0  0
   66.2683   75.3174   82.6632 C   0  0  0  0  0  0  0  0  0  0  0  0
   66.8295   74.1363   83.1573 C   0  0  0  0  0  0  0  0  0  0  0  0
   67.4090   74.1145   84.4297 C   0  0  0  0  0  0  0  0  0  0  0  0
   67.4494   75.2794   85.2018 C   0  0  0  0  0  0  0  0  0  0  0  0
   65.1416   78.2924   93.9879 C   0  0  0  0  0  0  0  0  0  0  0  0
   65.1811   76.9047   93.6522 O   0  0  0  0  0  0  0  0  0  0  0  0
   68.0664   74.9933   94.9929 C   0  0  0  0  0  0  0  0  0  0  0  0
   67.2937   75.9731   94.3394 C   0  0  0  0  0  0  0  0  0  0  0  0
   65.8952   75.9225   94.3592 C   0  0  0  0  0  0  0  0  0  0  0  0
   65.2559   74.8982   95.0765 C   0  0  0  0  0  0  0  0  0  0  0  0
   66.0104   73.9300   95.7402 C   0  0  0  0  0  0  0  0  0  0  0  0
   67.4094   73.9611   95.6976 C   0  0  0  0  0  0  0  0  0  0  0  0
   68.1374   72.9703   96.3598 O   0  0  0  0  0  0  0  0  0  0  0  0
   67.6892   72.2909   96.8240 H   0  0  0  0  0  0  0  0  0  0  0  0
   70.1299   76.1630   94.7819 O   0  0  0  0  0  0  0  0  0  0  0  0
   69.5458   75.0543   94.9151 C   0  0  0  0  0  0  0  0  0  0  0  0
   70.3097   73.8921   94.9772 O   0  0  0  0  0  0  0  0  0  0  0  0
   69.8900   73.0603   95.0762 H   0  0  0  0  0  0  0  0  0  0  0  0
 31 32  2  0  0  0
 32 33  1  0  0  0
 32 23  1  0  0  0
 23 24  2  0  0  0
 24 25  1  0  0  0
 25 22  1  0  0  0
 22 21  1  0  0  0
 21  1  1  0  0  0
  1  2  2  0  0  0
  2  3  1  0  0  0
  3  4  2  0  0  0
  4  5  1  0  0  0
  5  7  1  0  0  0
  7  8  2  0  0  0
  8  9  1  0  0  0
  9 10  2  0  0  0
 10 11  1  0  0  0
 11 13  1  0  0  0
 13 14  1  0  0  0
 14 15  1  0  0  0
 15 16  2  0  0  0
 16 17  1  0  0  0
 17 18  2  0  0  0
 18 19  1  0  0  0
 19 20  2  0  0  0
 11 12  2  0  0  0
  5  6  2  0  0  0
 25 26  2  0  0  0
 26 27  1  0  0  0
 27 28  2  0  0  0
 28 29  1  0  0  0
 28 23  1  0  0  0
  6  1  1  0  0  0
 12  7  1  0  0  0
 20 15  1  0  0  0
 33 34  1  0  0  0
 29 30  1  0  0  0
M  END
> <Activity>
15.4

> <minimizedAffinity>
12.77035

> <CNNscore>
0.9335851669

> <CNNaffinity>
6.5218935013

> <CNN_VS>
6.0887432098

$$$$
HIPS6066


 34 37  0  0  0  0  0  0  0  0999 V2000
   64.6476   79.1814   93.5658 C   0  0  0  0  0  0  0  0  0  0  0  0
   63.3328   79.1670   94.0511 C   0  0  0  0  0  0  0  0  0  0  0  0
   62.2753   79.5357   93.2197 C   0  0  0  0  0  0  0  0  0  0  0  0
   62.5209   79.9261   91.9010 C   0  0  0  0  0  0  0  0  0  0  0  0
   63.8328   79.9588   91.4016 C   0  0  0  0  0  0  0  0  0  0  0  0
   64.8920   79.5898   92.2460 C   0  0  0  0  0  0  0  0  0  0  0  0
   64.0973   80.3623   89.9990 C   0  0  0  0  0  0  0  0  0  0  0  0
   63.5545   81.5529   89.4868 C   0  0  0  0  0  0  0  0  0  0  0  0
   63.7838   81.9187   88.1587 C   0  0  0  0  0  0  0  0  0  0  0  0
   64.5601   81.1066   87.3299 C   0  0  0  0  0  0  0  0  0  0  0  0
   65.1277   79.9270   87.8231 C   0  0  0  0  0  0  0  0  0  0  0  0
   64.8856   79.5525   89.1601 C   0  0  0  0  0  0  0  0  0  0  0  0
   65.9318   79.1663   86.9584 O   0  0  0  0  0  0  0  0  0  0  0  0
   65.6069   77.8630   86.4680 C   0  0  0  0  0  0  0  0  0  0  0  0
   66.8146   77.1966   85.8560 C   0  0  0  0  0  0  0  0  0  0  0  0
   66.7044   75.9285   85.2568 C   0  0  0  0  0  0  0  0  0  0  0  0
   67.8223   75.3258   84.6731 C   0  0  0  0  0  0  0  0  0  0  0  0
   69.0576   75.9798   84.6881 C   0  0  0  0  0  0  0  0  0  0  0  0
   69.1826   77.2272   85.3073 C   0  0  0  0  0  0  0  0  0  0  0  0
   68.0675   77.8343   85.8928 C   0  0  0  0  0  0  0  0  0  0  0  0
   65.7938   78.7295   94.4317 C   0  0  0  0  0  0  0  0  0  0  0  0
   66.7499   78.0108   93.6511 O   0  0  0  0  0  0  0  0  0  0  0  0
   68.3224   74.7653   94.5279 C   0  0  0  0  0  0  0  0  0  0  0  0
   68.0341   76.1426   94.4656 C   0  0  0  0  0  0  0  0  0  0  0  0
   66.9597   76.6227   93.7080 C   0  0  0  0  0  0  0  0  0  0  0  0
   66.1346   75.7090   93.0321 C   0  0  0  0  0  0  0  0  0  0  0  0
   66.4011   74.3409   93.0979 C   0  0  0  0  0  0  0  0  0  0  0  0
   67.4926   73.8600   93.8309 C   0  0  0  0  0  0  0  0  0  0  0  0
   67.7426   72.4866   93.8667 O   0  0  0  0  0  0  0  0  0  0  0  0
   67.1843   71.8965   93.3997 H   0  0  0  0  0  0  0  0  0  0  0  0
   69.6592   73.0665   95.5270 O   0  0  0  0  0  0  0  0  0  0  0  0
   69.4942   74.2961   95.3058 C   0  0  0  0  0  0  0  0  0  0  0  0
   70.4215   75.2032   95.8114 O   0  0  0  0  0  0  0  0  0  0  0  0
   70.3125   76.1207   95.6554 H   0  0  0  0  0  0  0  0  0  0  0  0
 31 32  2  0  0  0
 32 33  1  0  0  0
 32 23  1  0  0  0
 23 24  2  0  0  0
 24 25  1  0  0  0
 25 22  1  0  0  0
 22 21  1  0  0  0
 21  1  1  0  0  0
  1  2  2  0  0  0
  2  3  1  0  0  0
  3  4  2  0  0  0
  4  5  1  0  0  0
  5  7  1  0  0  0
  7  8  2  0  0  0
  8  9  1  0  0  0
  9 10  2  0  0  0
 10 11  1  0  0  0
 11 13  1  0  0  0
 13 14  1  0  0  0
 14 15  1  0  0  0
 15 16  2  0  0  0
 16 17  1  0  0  0
 17 18  2  0  0  0
 18 19  1  0  0  0
 19 20  2  0  0  0
 11 12  2  0  0  0
  5  6  2  0  0  0
 25 26  2  0  0  0
 26 27  1  0  0  0
 27 28  2  0  0  0
 28 29  1  0  0  0
 28 23  1  0  0  0
  6  1  1  0  0  0
 12  7  1  0  0  0
 20 15  1  0  0  0
 33 34  1  0  0  0
 29 30  1  0  0  0
M  END
> <Activity>
15.4

> <minimizedAffinity>
14.63624

> <CNNscore>
0.9229440689

> <CNNaffinity>
6.6046943665

> <CNN_VS>
6.0957636833

$$$$
HIPS6066


 34 37  0  0  0  0  0  0  0  0999 V2000
   64.2666   80.4502   88.9413 C   0  0  0  0  0  0  0  0  0  0  0  0
   63.2231   81.3723   89.1004 C   0  0  0  0  0  0  0  0  0  0  0  0
   62.6511   81.5725   90.3567 C   0  0  0  0  0  0  0  0  0  0  0  0
   63.1111   80.8520   91.4616 C   0  0  0  0  0  0  0  0  0  0  0  0
   64.1469   79.9149   91.3184 C   0  0  0  0  0  0  0  0  0  0  0  0
   64.7148   79.7165   90.0499 C   0  0  0  0  0  0  0  0  0  0  0  0
   64.6458   79.1554   92.4908 C   0  0  0  0  0  0  0  0  0  0  0  0
   64.1974   79.4691   93.7849 C   0  0  0  0  0  0  0  0  0  0  0  0
   64.6870   78.7697   94.8900 C   0  0  0  0  0  0  0  0  0  0  0  0
   65.6224   77.7478   94.7172 C   0  0  0  0  0  0  0  0  0  0  0  0
   66.0684   77.4040   93.4366 C   0  0  0  0  0  0  0  0  0  0  0  0
   65.5828   78.1186   92.3231 C   0  0  0  0  0  0  0  0  0  0  0  0
   66.9807   76.3431   93.3151 O   0  0  0  0  0  0  0  0  0  0  0  0
   68.2106   76.2301   94.0360 C   0  0  0  0  0  0  0  0  0  0  0  0
   68.1960   75.0291   94.9496 C   0  0  0  0  0  0  0  0  0  0  0  0
   67.0262   74.6755   95.6467 C   0  0  0  0  0  0  0  0  0  0  0  0
   67.0131   73.5498   96.4750 C   0  0  0  0  0  0  0  0  0  0  0  0
   68.1665   72.7733   96.6187 C   0  0  0  0  0  0  0  0  0  0  0  0
   69.3418   73.1344   95.9527 C   0  0  0  0  0  0  0  0  0  0  0  0
   69.3602   74.2596   95.1230 C   0  0  0  0  0  0  0  0  0  0  0  0
   64.9348   80.2656   87.6044 C   0  0  0  0  0  0  0  0  0  0  0  0
   65.1759   78.8793   87.3593 O   0  0  0  0  0  0  0  0  0  0  0  0
   67.1634   76.6467   85.1592 C   0  0  0  0  0  0  0  0  0  0  0  0
   66.0880   77.2371   85.8513 C   0  0  0  0  0  0  0  0  0  0  0  0
   66.2801   78.3626   86.6606 C   0  0  0  0  0  0  0  0  0  0  0  0
   67.5605   78.9326   86.7502 C   0  0  0  0  0  0  0  0  0  0  0  0
   68.6311   78.3656   86.0577 C   0  0  0  0  0  0  0  0  0  0  0  0
   68.4479   77.2223   85.2708 C   0  0  0  0  0  0  0  0  0  0  0  0
   69.5411   76.6691   84.6007 O   0  0  0  0  0  0  0  0  0  0  0  0
   70.3883   77.0608   84.6832 H   0  0  0  0  0  0  0  0  0  0  0  0
   66.1924   75.4788   83.3250 O   0  0  0  0  0  0  0  0  0  0  0  0
   66.9311   75.4296   84.3448 C   0  0  0  0  0  0  0  0  0  0  0  0
   67.5143   74.2157   84.6978 O   0  0  0  0  0  0  0  0  0  0  0  0
   68.0660   74.1632   85.4533 H   0  0  0  0  0  0  0  0  0  0  0  0
 31 32  2  0  0  0
 32 33  1  0  0  0
 32 23  1  0  0  0
 23 24  2  0  0  0
 24 25  1  0  0  0
 25 22  1  0  0  0
 22 21  1  0  0  0
 21  1  1  0  0  0
  1  2  2  0  0  0
  2  3  1  0  0  0
  3  4  2  0  0  0
  4  5  1  0  0  0
  5  7  1  0  0  0
  7  8  2  0  0  0
  8  9  1  0  0  0
  9 10  2  0  0  0
 10 11  1  0  0  0
 11 13  1  0  0  0
 13 14  1  0  0  0
 14 15  1  0  0  0
 15 16  2  0  0  0
 16 17  1  0  0  0
 17 18  2  0  0  0
 18 19  1  0  0  0
 19 20  2  0  0  0
 11 12  2  0  0  0
  5  6  2  0  0  0
 25 26  2  0  0  0
 26 27  1  0  0  0
 27 28  2  0  0  0
 28 29  1  0  0  0
 28 23  1  0  0  0
  6  1  1  0  0  0
 12  7  1  0  0  0
 20 15  1  0  0  0
 33 34  1  0  0  0
 29 30  1  0  0  0
M  END
> <Activity>
15.4

> <minimizedAffinity>
10.75530

> <CNNscore>
0.8995264769

> <CNNaffinity>
6.4179000854

> <CNN_VS>
5.7730712891

$$$$
HIPS6134


 35 38  0  0  0  0  0  0  0  0999 V2000
   71.2940   80.2155   90.2971 C   0  0  0  0  0  0  0  0  0  0  0  0
   72.3335   79.4627   89.7326 C   0  0  0  0  0  0  0  0  0  0  0  0
   72.5644   78.1534   90.1593 C   0  0  0  0  0  0  0  0  0  0  0  0
   71.7653   77.5860   91.1554 C   0  0  0  0  0  0  0  0  0  0  0  0
   70.7256   78.3291   91.7398 C   0  0  0  0  0  0  0  0  0  0  0  0
   70.4877   79.6393   91.2921 C   0  0  0  0  0  0  0  0  0  0  0  0
   69.8804   77.7423   92.8078 C   0  0  0  0  0  0  0  0  0  0  0  0
   68.5181   78.0764   92.8969 C   0  0  0  0  0  0  0  0  0  0  0  0
   67.7162   77.5086   93.8894 C   0  0  0  0  0  0  0  0  0  0  0  0
   68.2590   76.5905   94.7900 C   0  0  0  0  0  0  0  0  0  0  0  0
   69.6103   76.2361   94.7146 C   0  0  0  0  0  0  0  0  0  0  0  0
   70.4236   76.8310   93.7297 C   0  0  0  0  0  0  0  0  0  0  0  0
   70.0983   75.2909   95.6309 O   0  0  0  0  0  0  0  0  0  0  0  0
   69.6426   73.9425   95.7531 C   0  0  0  0  0  0  0  0  0  0  0  0
   68.2540   73.7902   95.1914 C   0  0  0  0  0  0  0  0  0  0  0  0
   67.1433   74.2117   95.9398 C   0  0  0  0  0  0  0  0  0  0  0  0
   65.8510   74.0684   95.4253 C   0  0  0  0  0  0  0  0  0  0  0  0
   65.6577   73.5016   94.1634 C   0  0  0  0  0  0  0  0  0  0  0  0
   66.7576   73.0721   93.4132 C   0  0  0  0  0  0  0  0  0  0  0  0
   66.5157   72.3626   91.8268 Cl  0  0  0  0  0  0  0  0  0  0  0  0
   68.0521   73.2101   93.9271 C   0  0  0  0  0  0  0  0  0  0  0  0
   71.0112   81.6093   89.8024 C   0  0  0  0  0  0  0  0  0  0  0  0
   71.5242   82.5958   90.7012 O   0  0  0  0  0  0  0  0  0  0  0  0
   69.4189   85.4723   91.8489 C   0  0  0  0  0  0  0  0  0  0  0  0
   70.1570   84.6276   91.0019 C   0  0  0  0  0  0  0  0  0  0  0  0
   70.7456   83.4487   91.4985 C   0  0  0  0  0  0  0  0  0  0  0  0
   70.5705   83.1150   92.8447 C   0  0  0  0  0  0  0  0  0  0  0  0
   69.8486   83.9541   93.6955 C   0  0  0  0  0  0  0  0  0  0  0  0
   69.2627   85.1264   93.2064 C   0  0  0  0  0  0  0  0  0  0  0  0
   68.5167   85.9110   94.0900 O   0  0  0  0  0  0  0  0  0  0  0  0
   68.4315   85.6541   94.9870 H   0  0  0  0  0  0  0  0  0  0  0  0
   69.4520   87.4557   90.5421 O   0  0  0  0  0  0  0  0  0  0  0  0
   68.7922   86.6784   91.2831 C   0  0  0  0  0  0  0  0  0  0  0  0
   67.4752   86.9790   91.6067 O   0  0  0  0  0  0  0  0  0  0  0  0
   66.9845   86.4012   92.1576 H   0  0  0  0  0  0  0  0  0  0  0  0
 32 33  2  0  0  0
 33 34  1  0  0  0
 33 24  1  0  0  0
 24 25  2  0  0  0
 25 26  1  0  0  0
 26 23  1  0  0  0
 23 22  1  0  0  0
 22  1  1  0  0  0
  1  2  2  0  0  0
  2  3  1  0  0  0
  3  4  2  0  0  0
  4  5  1  0  0  0
  5  7  1  0  0  0
  7  8  2  0  0  0
  8  9  1  0  0  0
  9 10  2  0  0  0
 10 11  1  0  0  0
 11 13  1  0  0  0
 13 14  1  0  0  0
 14 15  1  0  0  0
 15 16  2  0  0  0
 16 17  1  0  0  0
 17 18  2  0  0  0
 18 19  1  0  0  0
 19 20  1  0  0  0
 19 21  2  0  0  0
 11 12  2  0  0  0
  5  6  2  0  0  0
 26 27  2  0  0  0
 27 28  1  0  0  0
 28 29  2  0  0  0
 29 30  1  0  0  0
 29 24  1  0  0  0
  6  1  1  0  0  0
 12  7  1  0  0  0
 21 15  1  0  0  0
 34 35  1  0  0  0
 30 31  1  0  0  0
M  END
> <Activity>
16.0

> <minimizedAffinity>
0.00588

> <CNNscore>
0.9092459083

> <CNNaffinity>
6.1458292007

> <CNN_VS>
5.5880699158

$$$$
HIPS6134


 35 38  0  0  0  0  0  0  0  0999 V2000
   67.7967   77.6916   93.6446 C   0  0  0  0  0  0  0  0  0  0  0  0
   68.3118   76.9073   94.6865 C   0  0  0  0  0  0  0  0  0  0  0  0
   69.6720   76.5939   94.7234 C   0  0  0  0  0  0  0  0  0  0  0  0
   70.5284   77.0546   93.7199 C   0  0  0  0  0  0  0  0  0  0  0  0
   70.0279   77.8332   92.6625 C   0  0  0  0  0  0  0  0  0  0  0  0
   68.6617   78.1598   92.6423 C   0  0  0  0  0  0  0  0  0  0  0  0
   70.9248   78.3156   91.5844 C   0  0  0  0  0  0  0  0  0  0  0  0
   71.8820   77.4544   91.0208 C   0  0  0  0  0  0  0  0  0  0  0  0
   72.7131   77.9011   89.9912 C   0  0  0  0  0  0  0  0  0  0  0  0
   72.5868   79.2023   89.5020 C   0  0  0  0  0  0  0  0  0  0  0  0
   71.6349   80.0742   90.0415 C   0  0  0  0  0  0  0  0  0  0  0  0
   70.8162   79.6301   91.0987 C   0  0  0  0  0  0  0  0  0  0  0  0
   71.5355   81.3642   89.4963 O   0  0  0  0  0  0  0  0  0  0  0  0
   72.1994   82.5276   89.9927 C   0  0  0  0  0  0  0  0  0  0  0  0
   71.2803   83.3419   90.8640 C   0  0  0  0  0  0  0  0  0  0  0  0
   70.9654   82.8998   92.1589 C   0  0  0  0  0  0  0  0  0  0  0  0
   70.1086   83.6493   92.9710 C   0  0  0  0  0  0  0  0  0  0  0  0
   69.5581   84.8421   92.4963 C   0  0  0  0  0  0  0  0  0  0  0  0
   69.8602   85.2871   91.2049 C   0  0  0  0  0  0  0  0  0  0  0  0
   69.1715   86.7869   90.6091 Cl  0  0  0  0  0  0  0  0  0  0  0  0
   70.7140   84.5371   90.3880 C   0  0  0  0  0  0  0  0  0  0  0  0
   66.3402   78.0730   93.6307 C   0  0  0  0  0  0  0  0  0  0  0  0
   65.5145   76.9948   94.0778 O   0  0  0  0  0  0  0  0  0  0  0  0
   67.1493   73.6959   94.7621 C   0  0  0  0  0  0  0  0  0  0  0  0
   66.7472   74.8574   94.0803 C   0  0  0  0  0  0  0  0  0  0  0  0
   65.9729   75.8390   94.7283 C   0  0  0  0  0  0  0  0  0  0  0  0
   65.6235   75.6549   96.0693 C   0  0  0  0  0  0  0  0  0  0  0  0
   66.0089   74.4988   96.7506 C   0  0  0  0  0  0  0  0  0  0  0  0
   66.7776   73.5211   96.1104 C   0  0  0  0  0  0  0  0  0  0  0  0
   67.1713   72.4017   96.8485 O   0  0  0  0  0  0  0  0  0  0  0  0
   66.9080   72.3143   97.7435 H   0  0  0  0  0  0  0  0  0  0  0  0
   67.5505   72.1131   93.0368 O   0  0  0  0  0  0  0  0  0  0  0  0
   67.9856   72.7096   94.0582 C   0  0  0  0  0  0  0  0  0  0  0  0
   69.2477   72.4074   94.5539 O   0  0  0  0  0  0  0  0  0  0  0  0
   69.5713   72.8507   95.3132 H   0  0  0  0  0  0  0  0  0  0  0  0
 32 33  2  0  0  0
 33 34  1  0  0  0
 33 24  1  0  0  0
 24 25  2  0  0  0
 25 26  1  0  0  0
 26 23  1  0  0  0
 23 22  1  0  0  0
 22  1  1  0  0  0
  1  2  2  0  0  0
  2  3  1  0  0  0
  3  4  2  0  0  0
  4  5  1  0  0  0
  5  7  1  0  0  0
  7  8  2  0  0  0
  8  9  1  0  0  0
  9 10  2  0  0  0
 10 11  1  0  0  0
 11 13  1  0  0  0
 13 14  1  0  0  0
 14 15  1  0  0  0
 15 16  2  0  0  0
 16 17  1  0  0  0
 17 18  2  0  0  0
 18 19  1  0  0  0
 19 20  1  0  0  0
 19 21  2  0  0  0
 11 12  2  0  0  0
  5  6  2  0  0  0
 26 27  2  0  0  0
 27 28  1  0  0  0
 28 29  2  0  0  0
 29 30  1  0  0  0
 29 24  1  0  0  0
  6  1  1  0  0  0
 12  7  1  0  0  0
 21 15  1  0  0  0
 34 35  1  0  0  0
 30 31  1  0  0  0
M  END
> <Activity>
16.0

> <minimizedAffinity>
0.23622

> <CNNscore>
0.9003864527

> <CNNaffinity>
6.3542461395

> <CNN_VS>
5.7212772369

$$$$
HIPS6134


 35 38  0  0  0  0  0  0  0  0999 V2000
   71.4802   80.3201   90.3012 C   0  0  0  0  0  0  0  0  0  0  0  0
   72.4523   79.5368   89.6627 C   0  0  0  0  0  0  0  0  0  0  0  0
   72.6174   78.1962   90.0162 C   0  0  0  0  0  0  0  0  0  0  0  0
   71.8194   77.6270   91.0122 C   0  0  0  0  0  0  0  0  0  0  0  0
   70.8472   78.3996   91.6700 C   0  0  0  0  0  0  0  0  0  0  0  0
   70.6745   79.7426   91.2958 C   0  0  0  0  0  0  0  0  0  0  0  0
   70.0044   77.8101   92.7384 C   0  0  0  0  0  0  0  0  0  0  0  0
   68.6854   78.2571   92.9280 C   0  0  0  0  0  0  0  0  0  0  0  0
   67.8838   77.6885   93.9202 C   0  0  0  0  0  0  0  0  0  0  0  0
   68.3819   76.6586   94.7200 C   0  0  0  0  0  0  0  0  0  0  0  0
   69.6888   76.1913   94.5433 C   0  0  0  0  0  0  0  0  0  0  0  0
   70.5046   76.7852   93.5600 C   0  0  0  0  0  0  0  0  0  0  0  0
   70.1307   75.1382   95.3598 O   0  0  0  0  0  0  0  0  0  0  0  0
   69.5259   73.8470   95.4474 C   0  0  0  0  0  0  0  0  0  0  0  0
   68.0489   73.9237   95.1647 C   0  0  0  0  0  0  0  0  0  0  0  0
   67.5297   73.3673   93.9848 C   0  0  0  0  0  0  0  0  0  0  0  0
   66.1597   73.4396   93.7146 C   0  0  0  0  0  0  0  0  0  0  0  0
   65.2995   74.0696   94.6170 C   0  0  0  0  0  0  0  0  0  0  0  0
   65.8084   74.6332   95.7918 C   0  0  0  0  0  0  0  0  0  0  0  0
   64.7280   75.4221   96.9273 Cl  0  0  0  0  0  0  0  0  0  0  0  0
   67.1798   74.5663   96.0632 C   0  0  0  0  0  0  0  0  0  0  0  0
   71.2662   81.7515   89.8858 C   0  0  0  0  0  0  0  0  0  0  0  0
   71.6400   82.6580   90.9264 O   0  0  0  0  0  0  0  0  0  0  0  0
   69.4366   84.5142   93.3187 C   0  0  0  0  0  0  0  0  0  0  0  0
   70.3061   83.5352   92.8077 C   0  0  0  0  0  0  0  0  0  0  0  0
   70.8024   83.6307   91.4934 C   0  0  0  0  0  0  0  0  0  0  0  0
   70.4357   84.7253   90.7049 C   0  0  0  0  0  0  0  0  0  0  0  0
   69.5634   85.6962   91.2006 C   0  0  0  0  0  0  0  0  0  0  0  0
   69.0677   85.6048   92.5055 C   0  0  0  0  0  0  0  0  0  0  0  0
   68.2299   86.6235   92.9672 O   0  0  0  0  0  0  0  0  0  0  0  0
   68.0029   87.3356   92.4021 H   0  0  0  0  0  0  0  0  0  0  0  0
   68.1692   83.4757   95.0385 O   0  0  0  0  0  0  0  0  0  0  0  0
   68.9663   84.3945   94.7087 C   0  0  0  0  0  0  0  0  0  0  0  0
   69.3749   85.3304   95.6504 O   0  0  0  0  0  0  0  0  0  0  0  0
   69.9675   86.0136   95.4054 H   0  0  0  0  0  0  0  0  0  0  0  0
 32 33  2  0  0  0
 33 34  1  0  0  0
 33 24  1  0  0  0
 24 25  2  0  0  0
 25 26  1  0  0  0
 26 23  1  0  0  0
 23 22  1  0  0  0
 22  1  1  0  0  0
  1  2  2  0  0  0
  2  3  1  0  0  0
  3  4  2  0  0  0
  4  5  1  0  0  0
  5  7  1  0  0  0
  7  8  2  0  0  0
  8  9  1  0  0  0
  9 10  2  0  0  0
 10 11  1  0  0  0
 11 13  1  0  0  0
 13 14  1  0  0  0
 14 15  1  0  0  0
 15 16  2  0  0  0
 16 17  1  0  0  0
 17 18  2  0  0  0
 18 19  1  0  0  0
 19 20  1  0  0  0
 19 21  2  0  0  0
 11 12  2  0  0  0
  5  6  2  0  0  0
 26 27  2  0  0  0
 27 28  1  0  0  0
 28 29  2  0  0  0
 29 30  1  0  0  0
 29 24  1  0  0  0
  6  1  1  0  0  0
 12  7  1  0  0  0
 21 15  1  0  0  0
 34 35  1  0  0  0
 30 31  1  0  0  0
M  END
> <Activity>
16.0

> <minimizedAffinity>
0.63070

> <CNNscore>
0.8872297406

> <CNNaffinity>
6.1407613754

> <CNN_VS>
5.4482660294

$$$$
HIPS6546


 35 37  0  0  0  0  0  0  0  0999 V2000
   71.6664   80.0605   90.4221 C   0  0  0  0  0  0  0  0  0  0  0  0
   72.4409   79.3413   89.4947 C   0  0  0  0  0  0  0  0  0  0  0  0
   72.6993   77.9829   89.6917 C   0  0  0  0  0  0  0  0  0  0  0  0
   72.1871   77.3253   90.8114 C   0  0  0  0  0  0  0  0  0  0  0  0
   71.4020   78.0219   91.7421 C   0  0  0  0  0  0  0  0  0  0  0  0
   71.1572   79.3913   91.5501 C   0  0  0  0  0  0  0  0  0  0  0  0
   70.8585   84.2419   89.8196 C   0  0  0  0  0  0  0  0  0  0  0  0
   71.3129   83.4522   88.7557 C   0  0  0  0  0  0  0  0  0  0  0  0
   71.5763   82.0934   88.9505 C   0  0  0  0  0  0  0  0  0  0  0  0
   71.3879   81.5037   90.2135 C   0  0  0  0  0  0  0  0  0  0  0  0
   70.9268   82.3027   91.2756 C   0  0  0  0  0  0  0  0  0  0  0  0
   70.6617   83.6605   91.0773 C   0  0  0  0  0  0  0  0  0  0  0  0
   70.4949   85.9499   89.5806 S   0  0  0  0  0  0  0  0  0  0  0  0
   69.3333   86.3681   90.4404 O   0  0  0  0  0  0  0  0  0  0  0  0
   70.1149   86.1613   88.1423 O   0  0  0  0  0  0  0  0  0  0  0  0
   71.8531   86.9007   89.9326 O   0  0  0  0  0  0  0  0  0  0  0  0
   71.9900   87.8855   88.9328 C   0  0  0  0  0  0  0  0  0  0  0  0
   74.4871   87.8755   89.3502 C   0  0  0  0  0  0  0  0  0  0  0  0
   73.3862   87.7917   88.2733 C   0  0  0  0  0  0  0  0  0  0  0  0
   73.5691   88.9390   87.2589 C   0  0  0  0  0  0  0  0  0  0  0  0
   73.5059   86.4437   87.5351 C   0  0  0  0  0  0  0  0  0  0  0  0
   70.8602   77.3187   92.9597 C   0  0  0  0  0  0  0  0  0  0  0  0
   69.5262   77.7425   93.2453 O   0  0  0  0  0  0  0  0  0  0  0  0
   68.4785   76.9037   93.6606 C   0  0  0  0  0  0  0  0  0  0  0  0
   67.1744   77.2534   93.3046 C   0  0  0  0  0  0  0  0  0  0  0  0
   66.0988   76.4445   93.6704 C   0  0  0  0  0  0  0  0  0  0  0  0
   66.3054   75.2683   94.3983 C   0  0  0  0  0  0  0  0  0  0  0  0
   65.1940   74.4639   94.6601 O   0  0  0  0  0  0  0  0  0  0  0  0
   67.6168   74.9203   94.8085 C   0  0  0  0  0  0  0  0  0  0  0  0
   68.6935   75.7376   94.4185 C   0  0  0  0  0  0  0  0  0  0  0  0
   64.3437   74.7311   94.3710 H   0  0  0  0  0  0  0  0  0  0  0  0
   67.9028   73.7437   95.6590 C   0  0  0  0  0  0  0  0  0  0  0  0
   67.0285   73.2870   96.4430 O   0  0  0  0  0  0  0  0  0  0  0  0
   69.1705   73.1678   95.6405 O   0  0  0  0  0  0  0  0  0  0  0  0
   69.8276   73.5001   95.0612 H   0  0  0  0  0  0  0  0  0  0  0  0
 18 19  1  0  0  0
 19 20  1  0  0  0
 19 21  1  0  0  0
 19 17  1  0  0  0
 17 16  1  0  0  0
 16 13  1  0  0  0
 13 14  2  0  0  0
 13 15  2  0  0  0
 13  7  1  0  0  0
  7  8  2  0  0  0
  8  9  1  0  0  0
  9 10  2  0  0  0
 10  1  1  0  0  0
  1  2  2  0  0  0
  2  3  1  0  0  0
  3  4  2  0  0  0
  4  5  1  0  0  0
  5 22  1  0  0  0
 22 23  1  0  0  0
 23 24  1  0  0  0
 24 25  2  0  0  0
 25 26  1  0  0  0
 26 27  2  0  0  0
 27 28  1  0  0  0
 27 29  1  0  0  0
 29 32  1  0  0  0
 32 33  2  0  0  0
 32 34  1  0  0  0
 29 30  2  0  0  0
  5  6  2  0  0  0
 10 11  1  0  0  0
 11 12  2  0  0  0
 12  7  1  0  0  0
  6  1  1  0  0  0
 30 24  1  0  0  0
 28 31  1  0  0  0
 34 35  1  0  0  0
M  END
> <Activity>
17.1

> <minimizedAffinity>
-1.27484

> <CNNscore>
0.8814246058

> <CNNaffinity>
6.0971860886

> <CNN_VS>
5.3742098808

$$$$
HIPS6546


 35 37  0  0  0  0  0  0  0  0999 V2000
   71.5997   80.0441   90.3820 C   0  0  0  0  0  0  0  0  0  0  0  0
   72.3195   79.1989   89.5189 C   0  0  0  0  0  0  0  0  0  0  0  0
   72.4508   77.8388   89.8080 C   0  0  0  0  0  0  0  0  0  0  0  0
   71.8644   77.3047   90.9567 C   0  0  0  0  0  0  0  0  0  0  0  0
   71.1320   78.1286   91.8244 C   0  0  0  0  0  0  0  0  0  0  0  0
   71.0152   79.4988   91.5397 C   0  0  0  0  0  0  0  0  0  0  0  0
   71.1852   84.2316   89.4921 C   0  0  0  0  0  0  0  0  0  0  0  0
   70.9040   83.7540   90.7784 C   0  0  0  0  0  0  0  0  0  0  0  0
   71.0378   82.3933   91.0686 C   0  0  0  0  0  0  0  0  0  0  0  0
   71.4564   81.4895   90.0754 C   0  0  0  0  0  0  0  0  0  0  0  0
   71.7413   81.9779   88.7874 C   0  0  0  0  0  0  0  0  0  0  0  0
   71.6092   83.3394   88.5007 C   0  0  0  0  0  0  0  0  0  0  0  0
   71.0486   85.9492   89.1206 S   0  0  0  0  0  0  0  0  0  0  0  0
   70.2363   86.1564   87.8713 O   0  0  0  0  0  0  0  0  0  0  0  0
   72.4267   86.4979   88.8815 O   0  0  0  0  0  0  0  0  0  0  0  0
   70.3456   86.7828   90.4181 O   0  0  0  0  0  0  0  0  0  0  0  0
   68.9431   86.6724   90.3229 C   0  0  0  0  0  0  0  0  0  0  0  0
   68.9644   86.1308   92.7960 C   0  0  0  0  0  0  0  0  0  0  0  0
   68.2863   86.9676   91.6921 C   0  0  0  0  0  0  0  0  0  0  0  0
   66.7823   86.6300   91.6399 C   0  0  0  0  0  0  0  0  0  0  0  0
   68.4548   88.4644   92.0200 C   0  0  0  0  0  0  0  0  0  0  0  0
   70.5105   77.5584   93.0730 C   0  0  0  0  0  0  0  0  0  0  0  0
   69.1006   77.7870   93.0945 O   0  0  0  0  0  0  0  0  0  0  0  0
   68.1385   76.8852   93.5791 C   0  0  0  0  0  0  0  0  0  0  0  0
   66.7953   77.1397   93.2950 C   0  0  0  0  0  0  0  0  0  0  0  0
   65.8005   76.2652   93.7316 C   0  0  0  0  0  0  0  0  0  0  0  0
   66.1287   75.1172   94.4598 C   0  0  0  0  0  0  0  0  0  0  0  0
   65.0921   74.2430   94.7946 O   0  0  0  0  0  0  0  0  0  0  0  0
   67.4822   74.8657   94.7976 C   0  0  0  0  0  0  0  0  0  0  0  0
   68.4761   75.7484   94.3367 C   0  0  0  0  0  0  0  0  0  0  0  0
   64.2103   74.4471   94.5520 H   0  0  0  0  0  0  0  0  0  0  0  0
   67.8964   73.7246   95.6437 C   0  0  0  0  0  0  0  0  0  0  0  0
   69.0052   73.1550   95.4603 O   0  0  0  0  0  0  0  0  0  0  0  0
   67.0289   73.2326   96.6155 O   0  0  0  0  0  0  0  0  0  0  0  0
   66.2020   73.6491   96.7596 H   0  0  0  0  0  0  0  0  0  0  0  0
 18 19  1  0  0  0
 19 20  1  0  0  0
 19 21  1  0  0  0
 19 17  1  0  0  0
 17 16  1  0  0  0
 16 13  1  0  0  0
 13 14  2  0  0  0
 13 15  2  0  0  0
 13  7  1  0  0  0
  7  8  2  0  0  0
  8  9  1  0  0  0
  9 10  2  0  0  0
 10  1  1  0  0  0
  1  2  2  0  0  0
  2  3  1  0  0  0
  3  4  2  0  0  0
  4  5  1  0  0  0
  5 22  1  0  0  0
 22 23  1  0  0  0
 23 24  1  0  0  0
 24 25  2  0  0  0
 25 26  1  0  0  0
 26 27  2  0  0  0
 27 28  1  0  0  0
 27 29  1  0  0  0
 29 32  1  0  0  0
 32 33  2  0  0  0
 32 34  1  0  0  0
 29 30  2  0  0  0
  5  6  2  0  0  0
 10 11  1  0  0  0
 11 12  2  0  0  0
 12  7  1  0  0  0
  6  1  1  0  0  0
 30 24  1  0  0  0
 28 31  1  0  0  0
 34 35  1  0  0  0
M  END
> <Activity>
17.1

> <minimizedAffinity>
-3.04984

> <CNNscore>
0.8711818457

> <CNNaffinity>
6.2037630081

> <CNN_VS>
5.4046058655

$$$$
HIPS6546


 35 37  0  0  0  0  0  0  0  0999 V2000
   65.3678   78.1127   92.4966 C   0  0  0  0  0  0  0  0  0  0  0  0
   64.5621   78.9625   93.2750 C   0  0  0  0  0  0  0  0  0  0  0  0
   63.7608   79.9309   92.6660 C   0  0  0  0  0  0  0  0  0  0  0  0
   63.7503   80.0617   91.2763 C   0  0  0  0  0  0  0  0  0  0  0  0
   64.5377   79.2157   90.4811 C   0  0  0  0  0  0  0  0  0  0  0  0
   65.3545   78.2537   91.0968 C   0  0  0  0  0  0  0  0  0  0  0  0
   67.8329   75.1236   94.3644 C   0  0  0  0  0  0  0  0  0  0  0  0
   66.5208   74.8161   93.9825 C   0  0  0  0  0  0  0  0  0  0  0  0
   65.7186   75.7868   93.3760 C   0  0  0  0  0  0  0  0  0  0  0  0
   66.2180   77.0806   93.1413 C   0  0  0  0  0  0  0  0  0  0  0  0
   67.5384   77.3800   93.5235 C   0  0  0  0  0  0  0  0  0  0  0  0
   68.3391   76.4066   94.1274 C   0  0  0  0  0  0  0  0  0  0  0  0
   68.8645   73.9006   95.1036 S   0  0  0  0  0  0  0  0  0  0  0  0
   68.1956   73.3060   96.3129 O   0  0  0  0  0  0  0  0  0  0  0  0
   70.1412   74.5567   95.5478 O   0  0  0  0  0  0  0  0  0  0  0  0
   69.2362   72.6828   93.9849 O   0  0  0  0  0  0  0  0  0  0  0  0
   70.1834   71.8110   94.5602 C   0  0  0  0  0  0  0  0  0  0  0  0
   70.7222   69.3464   94.3469 C   0  0  0  0  0  0  0  0  0  0  0  0
   70.5298   70.6685   93.5763 C   0  0  0  0  0  0  0  0  0  0  0  0
   71.8218   71.0088   92.8058 C   0  0  0  0  0  0  0  0  0  0  0  0
   69.3736   70.5011   92.5705 C   0  0  0  0  0  0  0  0  0  0  0  0
   64.5401   79.3642   88.9816 C   0  0  0  0  0  0  0  0  0  0  0  0
   64.9329   78.1465   88.3464 O   0  0  0  0  0  0  0  0  0  0  0  0
   65.8510   78.0414   87.2882 C   0  0  0  0  0  0  0  0  0  0  0  0
   66.7200   79.1106   87.0617 C   0  0  0  0  0  0  0  0  0  0  0  0
   67.6669   79.0500   86.0396 C   0  0  0  0  0  0  0  0  0  0  0  0
   67.7655   77.9181   85.2241 C   0  0  0  0  0  0  0  0  0  0  0  0
   68.7889   77.8903   84.2741 O   0  0  0  0  0  0  0  0  0  0  0  0
   66.8620   76.8416   85.4087 C   0  0  0  0  0  0  0  0  0  0  0  0
   65.9227   76.9104   86.4539 C   0  0  0  0  0  0  0  0  0  0  0  0
   69.3650   78.6238   84.1844 H   0  0  0  0  0  0  0  0  0  0  0  0
   66.8430   75.6535   84.5270 C   0  0  0  0  0  0  0  0  0  0  0  0
   66.2335   75.6783   83.4245 O   0  0  0  0  0  0  0  0  0  0  0  0
   67.4535   74.4730   84.9429 O   0  0  0  0  0  0  0  0  0  0  0  0
   67.9092   74.4443   85.7611 H   0  0  0  0  0  0  0  0  0  0  0  0
 18 19  1  0  0  0
 19 20  1  0  0  0
 19 21  1  0  0  0
 19 17  1  0  0  0
 17 16  1  0  0  0
 16 13  1  0  0  0
 13 14  2  0  0  0
 13 15  2  0  0  0
 13  7  1  0  0  0
  7  8  2  0  0  0
  8  9  1  0  0  0
  9 10  2  0  0  0
 10  1  1  0  0  0
  1  2  2  0  0  0
  2  3  1  0  0  0
  3  4  2  0  0  0
  4  5  1  0  0  0
  5 22  1  0  0  0
 22 23  1  0  0  0
 23 24  1  0  0  0
 24 25  2  0  0  0
 25 26  1  0  0  0
 26 27  2  0  0  0
 27 28  1  0  0  0
 27 29  1  0  0  0
 29 32  1  0  0  0
 32 33  2  0  0  0
 32 34  1  0  0  0
 29 30  2  0  0  0
  5  6  2  0  0  0
 10 11  1  0  0  0
 11 12  2  0  0  0
 12  7  1  0  0  0
  6  1  1  0  0  0
 30 24  1  0  0  0
 28 31  1  0  0  0
 34 35  1  0  0  0
M  END
> <Activity>
17.1

> <minimizedAffinity>
9.10821

> <CNNscore>
0.8489490151

> <CNNaffinity>
6.2764806747

> <CNN_VS>
5.3284120560

$$$$
HIPS6710


 34 37  0  0  0  0  0  0  0  0999 V2000
   71.0136   79.5769   90.7853 C   0  0  0  0  0  0  0  0  0  0  0  0
   72.0489   78.7232   90.4164 C   0  0  0  0  0  0  0  0  0  0  0  0
   71.9739   77.3739   91.4149 S   0  0  0  0  0  0  0  0  0  0  0  0
   70.6314   77.9274   92.2726 C   0  0  0  0  0  0  0  0  0  0  0  0
   70.2328   79.1322   91.8069 N   0  0  0  0  0  0  0  0  0  0  0  0
   69.9341   77.2024   93.3593 C   0  0  0  0  0  0  0  0  0  0  0  0
   70.6595   76.7187   94.4617 C   0  0  0  0  0  0  0  0  0  0  0  0
   70.0072   76.0469   95.4973 C   0  0  0  0  0  0  0  0  0  0  0  0
   68.6257   75.8548   95.4485 C   0  0  0  0  0  0  0  0  0  0  0  0
   67.8806   76.3314   94.3650 C   0  0  0  0  0  0  0  0  0  0  0  0
   68.5428   76.9972   93.3146 C   0  0  0  0  0  0  0  0  0  0  0  0
   66.4911   76.1251   94.3742 O   0  0  0  0  0  0  0  0  0  0  0  0
   65.8055   75.0874   93.6713 C   0  0  0  0  0  0  0  0  0  0  0  0
   66.7029   73.8953   93.4643 C   0  0  0  0  0  0  0  0  0  0  0  0
   66.4309   72.9642   92.4479 C   0  0  0  0  0  0  0  0  0  0  0  0
   67.2666   71.8589   92.2635 C   0  0  0  0  0  0  0  0  0  0  0  0
   68.3837   71.6798   93.0836 C   0  0  0  0  0  0  0  0  0  0  0  0
   68.6700   72.6090   94.0891 C   0  0  0  0  0  0  0  0  0  0  0  0
   70.0747   72.3859   95.1155 Cl  0  0  0  0  0  0  0  0  0  0  0  0
   67.8349   73.7163   94.2765 C   0  0  0  0  0  0  0  0  0  0  0  0
   70.7248   80.8623   90.0722 C   0  0  0  0  0  0  0  0  0  0  0  0
   71.9129   81.3769   89.4702 O   0  0  0  0  0  0  0  0  0  0  0  0
   71.6983   84.8338   88.0327 C   0  0  0  0  0  0  0  0  0  0  0  0
   71.3981   83.4835   88.2905 C   0  0  0  0  0  0  0  0  0  0  0  0
   72.1670   82.7321   89.1990 C   0  0  0  0  0  0  0  0  0  0  0  0
   73.2250   83.3506   89.8682 C   0  0  0  0  0  0  0  0  0  0  0  0
   73.5409   84.6855   89.6145 C   0  0  0  0  0  0  0  0  0  0  0  0
   72.8058   85.4285   88.6849 C   0  0  0  0  0  0  0  0  0  0  0  0
   73.2269   86.7319   88.4139 O   0  0  0  0  0  0  0  0  0  0  0  0
   73.9649   87.0896   88.8671 H   0  0  0  0  0  0  0  0  0  0  0  0
   70.6991   85.2219   85.9130 O   0  0  0  0  0  0  0  0  0  0  0  0
   70.8214   85.5907   87.1126 C   0  0  0  0  0  0  0  0  0  0  0  0
   70.0805   86.6757   87.5719 O   0  0  0  0  0  0  0  0  0  0  0  0
   70.1645   86.9573   88.4617 H   0  0  0  0  0  0  0  0  0  0  0  0
 31 32  2  0  0  0
 32 33  1  0  0  0
 32 23  1  0  0  0
 23 24  2  0  0  0
 24 25  1  0  0  0
 25 22  1  0  0  0
 22 21  1  0  0  0
 21  1  1  0  0  0
  1  2  2  0  0  0
  2  3  1  0  0  0
  3  4  1  0  0  0
  4  6  1  0  0  0
  6  7  2  0  0  0
  7  8  1  0  0  0
  8  9  2  0  0  0
  9 10  1  0  0  0
 10 12  1  0  0  0
 12 13  1  0  0  0
 13 14  1  0  0  0
 14 15  2  0  0  0
 15 16  1  0  0  0
 16 17  2  0  0  0
 17 18  1  0  0  0
 18 19  1  0  0  0
 18 20  2  0  0  0
 10 11  2  0  0  0
  4  5  2  0  0  0
 25 26  2  0  0  0
 26 27  1  0  0  0
 27 28  2  0  0  0
 28 29  1  0  0  0
 28 23  1  0  0  0
  5  1  2  0  0  0
 11  6  1  0  0  0
 20 14  1  0  0  0
 33 34  1  0  0  0
 29 30  1  0  0  0
M  END
> <Activity>
17.9

> <minimizedAffinity>
1.44321

> <CNNscore>
0.7887709141

> <CNNaffinity>
5.7340946198

> <CNN_VS>
4.5228872299

$$$$
HIPS6710


 34 37  0  0  0  0  0  0  0  0999 V2000
   71.0951   79.5259   91.0137 C   0  0  0  0  0  0  0  0  0  0  0  0
   72.2528   78.7878   90.7869 C   0  0  0  0  0  0  0  0  0  0  0  0
   72.1662   77.4040   91.7362 S   0  0  0  0  0  0  0  0  0  0  0  0
   70.6641   77.7976   92.3944 C   0  0  0  0  0  0  0  0  0  0  0  0
   70.2207   78.9742   91.8982 N   0  0  0  0  0  0  0  0  0  0  0  0
   69.8903   76.9728   93.3502 C   0  0  0  0  0  0  0  0  0  0  0  0
   70.3833   76.7490   94.6472 C   0  0  0  0  0  0  0  0  0  0  0  0
   69.6528   75.9845   95.5590 C   0  0  0  0  0  0  0  0  0  0  0  0
   68.4216   75.4400   95.1904 C   0  0  0  0  0  0  0  0  0  0  0  0
   67.9068   75.6529   93.9075 C   0  0  0  0  0  0  0  0  0  0  0  0
   68.6520   76.4134   92.9848 C   0  0  0  0  0  0  0  0  0  0  0  0
   66.6560   75.0956   93.5944 O   0  0  0  0  0  0  0  0  0  0  0  0
   65.4359   75.3624   94.2880 C   0  0  0  0  0  0  0  0  0  0  0  0
   65.1753   76.8440   94.3662 C   0  0  0  0  0  0  0  0  0  0  0  0
   65.2273   77.5144   95.5999 C   0  0  0  0  0  0  0  0  0  0  0  0
   64.9818   78.8890   95.6651 C   0  0  0  0  0  0  0  0  0  0  0  0
   64.6931   79.6058   94.5008 C   0  0  0  0  0  0  0  0  0  0  0  0
   64.6529   78.9492   93.2665 C   0  0  0  0  0  0  0  0  0  0  0  0
   64.2947   79.8502   91.8049 Cl  0  0  0  0  0  0  0  0  0  0  0  0
   64.8977   77.5729   93.1980 C   0  0  0  0  0  0  0  0  0  0  0  0
   70.7879   80.8016   90.2909 C   0  0  0  0  0  0  0  0  0  0  0  0
   71.4499   81.9014   90.9164 O   0  0  0  0  0  0  0  0  0  0  0  0
   69.6072   84.3166   93.1148 C   0  0  0  0  0  0  0  0  0  0  0  0
   70.2440   83.1402   92.6787 C   0  0  0  0  0  0  0  0  0  0  0  0
   70.8220   83.0628   91.3976 C   0  0  0  0  0  0  0  0  0  0  0  0
   70.7801   84.1824   90.5642 C   0  0  0  0  0  0  0  0  0  0  0  0
   70.1426   85.3518   90.9792 C   0  0  0  0  0  0  0  0  0  0  0  0
   69.5325   85.4244   92.2358 C   0  0  0  0  0  0  0  0  0  0  0  0
   68.8376   86.5926   92.5556 O   0  0  0  0  0  0  0  0  0  0  0  0
   68.8117   87.3040   91.9464 H   0  0  0  0  0  0  0  0  0  0  0  0
   68.2116   83.5125   94.8608 O   0  0  0  0  0  0  0  0  0  0  0  0
   69.0683   84.3610   94.4919 C   0  0  0  0  0  0  0  0  0  0  0  0
   69.5410   85.2962   95.4079 O   0  0  0  0  0  0  0  0  0  0  0  0
   70.1776   85.9308   95.1434 H   0  0  0  0  0  0  0  0  0  0  0  0
 31 32  2  0  0  0
 32 33  1  0  0  0
 32 23  1  0  0  0
 23 24  2  0  0  0
 24 25  1  0  0  0
 25 22  1  0  0  0
 22 21  1  0  0  0
 21  1  1  0  0  0
  1  2  2  0  0  0
  2  3  1  0  0  0
  3  4  1  0  0  0
  4  6  1  0  0  0
  6  7  2  0  0  0
  7  8  1  0  0  0
  8  9  2  0  0  0
  9 10  1  0  0  0
 10 12  1  0  0  0
 12 13  1  0  0  0
 13 14  1  0  0  0
 14 15  2  0  0  0
 15 16  1  0  0  0
 16 17  2  0  0  0
 17 18  1  0  0  0
 18 19  1  0  0  0
 18 20  2  0  0  0
 10 11  2  0  0  0
  4  5  2  0  0  0
 25 26  2  0  0  0
 26 27  1  0  0  0
 27 28  2  0  0  0
 28 29  1  0  0  0
 28 23  1  0  0  0
  5  1  2  0  0  0
 11  6  1  0  0  0
 20 14  1  0  0  0
 33 34  1  0  0  0
 29 30  1  0  0  0
M  END
> <Activity>
17.9

> <minimizedAffinity>
6.27523

> <CNNscore>
0.7840678096

> <CNNaffinity>
6.1633586884

> <CNN_VS>
4.8324909210

$$$$
HIPS6710


 34 37  0  0  0  0  0  0  0  0999 V2000
   71.4794   77.7755   91.7600 C   0  0  0  0  0  0  0  0  0  0  0  0
   72.1659   77.3567   90.6242 C   0  0  0  0  0  0  0  0  0  0  0  0
   72.3887   78.7014   89.6416 S   0  0  0  0  0  0  0  0  0  0  0  0
   71.6068   79.7589   90.6974 C   0  0  0  0  0  0  0  0  0  0  0  0
   71.1764   79.1014   91.7974 N   0  0  0  0  0  0  0  0  0  0  0  0
   71.4361   81.2166   90.5005 C   0  0  0  0  0  0  0  0  0  0  0  0
   70.8385   81.9976   91.5047 C   0  0  0  0  0  0  0  0  0  0  0  0
   70.6871   83.3749   91.3326 C   0  0  0  0  0  0  0  0  0  0  0  0
   71.1342   83.9890   90.1617 C   0  0  0  0  0  0  0  0  0  0  0  0
   71.7371   83.2346   89.1501 C   0  0  0  0  0  0  0  0  0  0  0  0
   71.8766   81.8430   89.3201 C   0  0  0  0  0  0  0  0  0  0  0  0
   72.1834   83.9055   87.9994 O   0  0  0  0  0  0  0  0  0  0  0  0
   71.3965   84.7934   87.2035 C   0  0  0  0  0  0  0  0  0  0  0  0
   71.3425   86.1653   87.8234 C   0  0  0  0  0  0  0  0  0  0  0  0
   70.1078   86.7814   88.0883 C   0  0  0  0  0  0  0  0  0  0  0  0
   70.0655   88.0558   88.6612 C   0  0  0  0  0  0  0  0  0  0  0  0
   71.2522   88.7198   88.9829 C   0  0  0  0  0  0  0  0  0  0  0  0
   72.4856   88.1084   88.7354 C   0  0  0  0  0  0  0  0  0  0  0  0
   73.9747   88.9407   89.1433 Cl  0  0  0  0  0  0  0  0  0  0  0  0
   72.5312   86.8328   88.1614 C   0  0  0  0  0  0  0  0  0  0  0  0
   71.1533   76.8584   92.8988 C   0  0  0  0  0  0  0  0  0  0  0  0
   70.0223   77.3442   93.6225 O   0  0  0  0  0  0  0  0  0  0  0  0
   67.7946   74.6792   95.0360 C   0  0  0  0  0  0  0  0  0  0  0  0
   68.9546   75.4172   94.7367 C   0  0  0  0  0  0  0  0  0  0  0  0
   68.8862   76.5891   93.9601 C   0  0  0  0  0  0  0  0  0  0  0  0
   67.6422   77.0320   93.5058 C   0  0  0  0  0  0  0  0  0  0  0  0
   66.4852   76.3046   93.7857 C   0  0  0  0  0  0  0  0  0  0  0  0
   66.5493   75.1184   94.5244 C   0  0  0  0  0  0  0  0  0  0  0  0
   65.3681   74.3936   94.6957 O   0  0  0  0  0  0  0  0  0  0  0  0
   64.5637   74.7182   94.3417 H   0  0  0  0  0  0  0  0  0  0  0  0
   66.9232   73.0855   96.5667 O   0  0  0  0  0  0  0  0  0  0  0  0
   67.9179   73.4880   95.9044 C   0  0  0  0  0  0  0  0  0  0  0  0
   69.1077   72.7677   95.9545 O   0  0  0  0  0  0  0  0  0  0  0  0
   69.8524   73.0586   95.4658 H   0  0  0  0  0  0  0  0  0  0  0  0
 31 32  2  0  0  0
 32 33  1  0  0  0
 32 23  1  0  0  0
 23 24  2  0  0  0
 24 25  1  0  0  0
 25 22  1  0  0  0
 22 21  1  0  0  0
 21  1  1  0  0  0
  1  2  2  0  0  0
  2  3  1  0  0  0
  3  4  1  0  0  0
  4  6  1  0  0  0
  6  7  2  0  0  0
  7  8  1  0  0  0
  8  9  2  0  0  0
  9 10  1  0  0  0
 10 12  1  0  0  0
 12 13  1  0  0  0
 13 14  1  0  0  0
 14 15  2  0  0  0
 15 16  1  0  0  0
 16 17  2  0  0  0
 17 18  1  0  0  0
 18 19  1  0  0  0
 18 20  2  0  0  0
 10 11  2  0  0  0
  4  5  2  0  0  0
 25 26  2  0  0  0
 26 27  1  0  0  0
 27 28  2  0  0  0
 28 29  1  0  0  0
 28 23  1  0  0  0
  5  1  2  0  0  0
 11  6  1  0  0  0
 20 14  1  0  0  0
 33 34  1  0  0  0
 29 30  1  0  0  0
M  END
> <Activity>
17.9

> <minimizedAffinity>
-5.43705

> <CNNscore>
0.7811087370

> <CNNaffinity>
6.0623817444

> <CNN_VS>
4.7353792191

$$$$
HIPS6135


 40 43  0  0  0  0  0  0  0  0999 V2000
   68.9193   77.6790   92.8403 C   0  0  0  0  0  0  0  0  0  0  0  0
   68.9612   76.4935   93.5801 C   0  0  0  0  0  0  0  0  0  0  0  0
   67.9199   76.1537   94.4599 C   0  0  0  0  0  0  0  0  0  0  0  0
   66.8295   77.0291   94.5981 C   0  0  0  0  0  0  0  0  0  0  0  0
   66.7808   78.2354   93.8802 C   0  0  0  0  0  0  0  0  0  0  0  0
   67.8158   78.5400   92.9813 C   0  0  0  0  0  0  0  0  0  0  0  0
   67.9711   74.8858   95.2312 C   0  0  0  0  0  0  0  0  0  0  0  0
   66.8128   74.3756   95.8442 C   0  0  0  0  0  0  0  0  0  0  0  0
   66.8647   73.1865   96.5749 C   0  0  0  0  0  0  0  0  0  0  0  0
   68.0702   72.4951   96.7068 C   0  0  0  0  0  0  0  0  0  0  0  0
   69.2383   72.9911   96.1096 C   0  0  0  0  0  0  0  0  0  0  0  0
   69.1808   74.1796   95.3636 C   0  0  0  0  0  0  0  0  0  0  0  0
   70.5350   72.2397   96.2557 C   0  0  0  0  0  0  0  0  0  0  0  0
   70.8423   71.5243   95.0585 O   0  0  0  0  0  0  0  0  0  0  0  0
   71.9612   70.6959   94.8710 C   0  0  0  0  0  0  0  0  0  0  0  0
   72.0539   69.4088   95.4270 C   0  0  0  0  0  0  0  0  0  0  0  0
   73.1909   68.6299   95.2099 C   0  0  0  0  0  0  0  0  0  0  0  0
   74.2563   69.1170   94.4457 C   0  0  0  0  0  0  0  0  0  0  0  0
   75.3957   68.3175   94.3332 O   0  0  0  0  0  0  0  0  0  0  0  0
   74.1627   70.3990   93.8517 C   0  0  0  0  0  0  0  0  0  0  0  0
   73.0186   71.1809   94.0943 C   0  0  0  0  0  0  0  0  0  0  0  0
   75.4186   67.4743   94.7413 H   0  0  0  0  0  0  0  0  0  0  0  0
   75.2086   70.9337   92.9527 C   0  0  0  0  0  0  0  0  0  0  0  0
   76.0816   71.7247   93.4020 O   0  0  0  0  0  0  0  0  0  0  0  0
   75.2050   70.6206   91.5966 O   0  0  0  0  0  0  0  0  0  0  0  0
   74.5603   70.0338   91.2530 H   0  0  0  0  0  0  0  0  0  0  0  0
   65.5816   79.1438   93.9957 C   0  0  0  0  0  0  0  0  0  0  0  0
   65.7416   79.9715   95.0912 F   0  0  0  0  0  0  0  0  0  0  0  0
   64.4218   78.4044   94.1541 F   0  0  0  0  0  0  0  0  0  0  0  0
   65.4449   79.9216   92.8588 F   0  0  0  0  0  0  0  0  0  0  0  0
   69.9934   77.9592   91.9793 O   0  0  0  0  0  0  0  0  0  0  0  0
   71.1849   78.6573   92.3439 C   0  0  0  0  0  0  0  0  0  0  0  0
   71.5881   82.3242   90.0891 C   0  0  0  0  0  0  0  0  0  0  0  0
   71.0342   81.1783   89.4870 C   0  0  0  0  0  0  0  0  0  0  0  0
   70.9073   79.9912   90.2144 C   0  0  0  0  0  0  0  0  0  0  0  0
   71.3213   79.9324   91.5541 C   0  0  0  0  0  0  0  0  0  0  0  0
   71.8857   81.0709   92.1488 C   0  0  0  0  0  0  0  0  0  0  0  0
   72.0133   82.2572   91.4209 C   0  0  0  0  0  0  0  0  0  0  0  0
   71.5230   83.7025   88.0045 C   0  0  0  0  0  0  0  0  0  0  0  0
   71.7333   83.5392   89.4034 O   0  0  0  0  0  0  0  0  0  0  0  0
 39 40  1  0  0  0
 40 33  1  0  0  0
 33 34  2  0  0  0
 34 35  1  0  0  0
 35 36  2  0  0  0
 36 32  1  0  0  0
 32 31  1  0  0  0
 31  1  1  0  0  0
  1  2  2  0  0  0
  2  3  1  0  0  0
  3  7  1  0  0  0
  7  8  2  0  0  0
  8  9  1  0  0  0
  9 10  2  0  0  0
 10 11  1  0  0  0
 11 13  1  0  0  0
 13 14  1  0  0  0
 14 15  1  0  0  0
 15 16  2  0  0  0
 16 17  1  0  0  0
 17 18  2  0  0  0
 18 19  1  0  0  0
 18 20  1  0  0  0
 20 23  1  0  0  0
 23 24  2  0  0  0
 23 25  1  0  0  0
 20 21  2  0  0  0
 11 12  2  0  0  0
  3  4  2  0  0  0
  4  5  1  0  0  0
  5 27  1  0  0  0
 27 28  1  0  0  0
 27 29  1  0  0  0
 27 30  1  0  0  0
  5  6  2  0  0  0
 36 37  1  0  0  0
 37 38  2  0  0  0
 38 33  1  0  0  0
  6  1  1  0  0  0
 12  7  1  0  0  0
 21 15  1  0  0  0
 19 22  1  0  0  0
 25 26  1  0  0  0
M  END
> <Activity>
19.4

> <minimizedAffinity>
1.87067

> <CNNscore>
0.8811685443

> <CNNaffinity>
6.2571897507

> <CNN_VS>
5.5136389732

$$$$
HIPS6135


 40 43  0  0  0  0  0  0  0  0999 V2000
   70.3959   79.1106   89.0833 C   0  0  0  0  0  0  0  0  0  0  0  0
   69.8913   78.4244   90.1920 C   0  0  0  0  0  0  0  0  0  0  0  0
   70.0600   78.9292   91.4922 C   0  0  0  0  0  0  0  0  0  0  0  0
   70.7551   80.1373   91.6711 C   0  0  0  0  0  0  0  0  0  0  0  0
   71.2886   80.8291   90.5713 C   0  0  0  0  0  0  0  0  0  0  0  0
   71.0800   80.3243   89.2775 C   0  0  0  0  0  0  0  0  0  0  0  0
   69.5092   78.1965   92.6603 C   0  0  0  0  0  0  0  0  0  0  0  0
   68.1966   78.4405   93.1023 C   0  0  0  0  0  0  0  0  0  0  0  0
   67.6829   77.7550   94.2055 C   0  0  0  0  0  0  0  0  0  0  0  0
   68.4712   76.8232   94.8829 C   0  0  0  0  0  0  0  0  0  0  0  0
   69.7853   76.5709   94.4627 C   0  0  0  0  0  0  0  0  0  0  0  0
   70.2949   77.2510   93.3447 C   0  0  0  0  0  0  0  0  0  0  0  0
   70.6296   75.5639   95.1980 C   0  0  0  0  0  0  0  0  0  0  0  0
   69.8237   74.4939   95.6931 O   0  0  0  0  0  0  0  0  0  0  0  0
   68.5293   74.1779   95.2481 C   0  0  0  0  0  0  0  0  0  0  0  0
   67.3708   74.6421   95.8936 C   0  0  0  0  0  0  0  0  0  0  0  0
   66.1095   74.2948   95.4090 C   0  0  0  0  0  0  0  0  0  0  0  0
   65.9765   73.4762   94.2826 C   0  0  0  0  0  0  0  0  0  0  0  0
   64.6871   73.1031   93.8976 O   0  0  0  0  0  0  0  0  0  0  0  0
   67.1350   73.0285   93.6024 C   0  0  0  0  0  0  0  0  0  0  0  0
   68.4004   73.3708   94.1130 C   0  0  0  0  0  0  0  0  0  0  0  0
   63.9455   73.4210   94.3740 H   0  0  0  0  0  0  0  0  0  0  0  0
   67.0647   72.2435   92.3507 C   0  0  0  0  0  0  0  0  0  0  0  0
   66.1189   72.4348   91.5392 O   0  0  0  0  0  0  0  0  0  0  0  0
   68.0009   71.2486   92.0849 O   0  0  0  0  0  0  0  0  0  0  0  0
   68.7074   71.0986   92.6817 H   0  0  0  0  0  0  0  0  0  0  0  0
   71.9878   82.1516   90.7683 C   0  0  0  0  0  0  0  0  0  0  0  0
   72.3693   82.2718   92.0915 F   0  0  0  0  0  0  0  0  0  0  0  0
   71.1466   83.2023   90.4437 F   0  0  0  0  0  0  0  0  0  0  0  0
   73.1122   82.2357   89.9652 F   0  0  0  0  0  0  0  0  0  0  0  0
   70.1934   78.5505   87.8110 O   0  0  0  0  0  0  0  0  0  0  0  0
   69.2167   78.9836   86.8629 C   0  0  0  0  0  0  0  0  0  0  0  0
   67.5624   75.6067   84.7292 C   0  0  0  0  0  0  0  0  0  0  0  0
   66.7124   76.5139   85.3903 C   0  0  0  0  0  0  0  0  0  0  0  0
   67.2470   77.6038   86.0837 C   0  0  0  0  0  0  0  0  0  0  0  0
   68.6347   77.8101   86.1198 C   0  0  0  0  0  0  0  0  0  0  0  0
   69.4814   76.8978   85.4723 C   0  0  0  0  0  0  0  0  0  0  0  0
   68.9466   75.8078   84.7800 C   0  0  0  0  0  0  0  0  0  0  0  0
   67.6289   73.1908   84.0904 C   0  0  0  0  0  0  0  0  0  0  0  0
   67.0753   74.5007   84.0173 O   0  0  0  0  0  0  0  0  0  0  0  0
 39 40  1  0  0  0
 40 33  1  0  0  0
 33 34  2  0  0  0
 34 35  1  0  0  0
 35 36  2  0  0  0
 36 32  1  0  0  0
 32 31  1  0  0  0
 31  1  1  0  0  0
  1  2  2  0  0  0
  2  3  1  0  0  0
  3  7  1  0  0  0
  7  8  2  0  0  0
  8  9  1  0  0  0
  9 10  2  0  0  0
 10 11  1  0  0  0
 11 13  1  0  0  0
 13 14  1  0  0  0
 14 15  1  0  0  0
 15 16  2  0  0  0
 16 17  1  0  0  0
 17 18  2  0  0  0
 18 19  1  0  0  0
 18 20  1  0  0  0
 20 23  1  0  0  0
 23 24  2  0  0  0
 23 25  1  0  0  0
 20 21  2  0  0  0
 11 12  2  0  0  0
  3  4  2  0  0  0
  4  5  1  0  0  0
  5 27  1  0  0  0
 27 28  1  0  0  0
 27 29  1  0  0  0
 27 30  1  0  0  0
  5  6  2  0  0  0
 36 37  1  0  0  0
 37 38  2  0  0  0
 38 33  1  0  0  0
  6  1  1  0  0  0
 12  7  1  0  0  0
 21 15  1  0  0  0
 19 22  1  0  0  0
 25 26  1  0  0  0
M  END
> <Activity>
19.4

> <minimizedAffinity>
13.10789

> <CNNscore>
0.8795603514

> <CNNaffinity>
6.6637315750

> <CNN_VS>
5.8611540794

$$$$
HIPS6135


 40 43  0  0  0  0  0  0  0  0999 V2000
   70.6409   78.6078   88.9155 C   0  0  0  0  0  0  0  0  0  0  0  0
   70.5201   79.9754   89.1792 C   0  0  0  0  0  0  0  0  0  0  0  0
   71.0142   80.5275   90.3729 C   0  0  0  0  0  0  0  0  0  0  0  0
   71.6289   79.6830   91.3129 C   0  0  0  0  0  0  0  0  0  0  0  0
   71.7391   78.3030   91.0755 C   0  0  0  0  0  0  0  0  0  0  0  0
   71.2685   77.7770   89.8614 C   0  0  0  0  0  0  0  0  0  0  0  0
   70.8899   81.9836   90.6357 C   0  0  0  0  0  0  0  0  0  0  0  0
   71.2644   82.9206   89.6562 C   0  0  0  0  0  0  0  0  0  0  0  0
   71.1530   84.2899   89.9080 C   0  0  0  0  0  0  0  0  0  0  0  0
   70.6721   84.7409   91.1385 C   0  0  0  0  0  0  0  0  0  0  0  0
   70.3005   83.8228   92.1315 C   0  0  0  0  0  0  0  0  0  0  0  0
   70.4001   82.4465   91.8709 C   0  0  0  0  0  0  0  0  0  0  0  0
   69.7821   84.3167   93.4562 C   0  0  0  0  0  0  0  0  0  0  0  0
   69.3078   85.6591   93.3446 O   0  0  0  0  0  0  0  0  0  0  0  0
   67.9579   86.0407   93.2694 C   0  0  0  0  0  0  0  0  0  0  0  0
   67.3844   86.5750   92.1032 C   0  0  0  0  0  0  0  0  0  0  0  0
   66.0378   86.9394   92.0859 C   0  0  0  0  0  0  0  0  0  0  0  0
   65.2410   86.7875   93.2255 C   0  0  0  0  0  0  0  0  0  0  0  0
   63.9229   87.2446   93.1638 O   0  0  0  0  0  0  0  0  0  0  0  0
   65.7970   86.2195   94.3974 C   0  0  0  0  0  0  0  0  0  0  0  0
   67.1607   85.8740   94.4066 C   0  0  0  0  0  0  0  0  0  0  0  0
   63.5920   87.6145   92.3690 H   0  0  0  0  0  0  0  0  0  0  0  0
   64.9872   85.9403   95.6033 C   0  0  0  0  0  0  0  0  0  0  0  0
   65.5520   85.7859   96.7198 O   0  0  0  0  0  0  0  0  0  0  0  0
   63.6073   85.7848   95.5095 O   0  0  0  0  0  0  0  0  0  0  0  0
   63.1781   85.8975   94.6842 H   0  0  0  0  0  0  0  0  0  0  0  0
   72.4469   77.4126   92.0668 C   0  0  0  0  0  0  0  0  0  0  0  0
   71.5267   76.9177   92.9718 F   0  0  0  0  0  0  0  0  0  0  0  0
   73.4189   78.1209   92.7528 F   0  0  0  0  0  0  0  0  0  0  0  0
   73.0607   76.3525   91.4221 F   0  0  0  0  0  0  0  0  0  0  0  0
   70.1248   78.1203   87.7033 O   0  0  0  0  0  0  0  0  0  0  0  0
   69.0540   78.7096   86.9641 C   0  0  0  0  0  0  0  0  0  0  0  0
   67.2056   75.8170   84.3356 C   0  0  0  0  0  0  0  0  0  0  0  0
   68.6057   75.8497   84.4822 C   0  0  0  0  0  0  0  0  0  0  0  0
   69.2041   76.7875   85.3289 C   0  0  0  0  0  0  0  0  0  0  0  0
   68.4156   77.6986   86.0484 C   0  0  0  0  0  0  0  0  0  0  0  0
   67.0217   77.6740   85.8910 C   0  0  0  0  0  0  0  0  0  0  0  0
   66.4238   76.7370   85.0437 C   0  0  0  0  0  0  0  0  0  0  0  0
   65.8701   75.2379   82.3032 C   0  0  0  0  0  0  0  0  0  0  0  0
   66.5574   74.8937   83.5020 O   0  0  0  0  0  0  0  0  0  0  0  0
 39 40  1  0  0  0
 40 33  1  0  0  0
 33 34  2  0  0  0
 34 35  1  0  0  0
 35 36  2  0  0  0
 36 32  1  0  0  0
 32 31  1  0  0  0
 31  1  1  0  0  0
  1  2  2  0  0  0
  2  3  1  0  0  0
  3  7  1  0  0  0
  7  8  2  0  0  0
  8  9  1  0  0  0
  9 10  2  0  0  0
 10 11  1  0  0  0
 11 13  1  0  0  0
 13 14  1  0  0  0
 14 15  1  0  0  0
 15 16  2  0  0  0
 16 17  1  0  0  0
 17 18  2  0  0  0
 18 19  1  0  0  0
 18 20  1  0  0  0
 20 23  1  0  0  0
 23 24  2  0  0  0
 23 25  1  0  0  0
 20 21  2  0  0  0
 11 12  2  0  0  0
  3  4  2  0  0  0
  4  5  1  0  0  0
  5 27  1  0  0  0
 27 28  1  0  0  0
 27 29  1  0  0  0
 27 30  1  0  0  0
  5  6  2  0  0  0
 36 37  1  0  0  0
 37 38  2  0  0  0
 38 33  1  0  0  0
  6  1  1  0  0  0
 12  7  1  0  0  0
 21 15  1  0  0  0
 19 22  1  0  0  0
 25 26  1  0  0  0
M  END
> <Activity>
19.4

> <minimizedAffinity>
3.31109

> <CNNscore>
0.8718836308

> <CNNaffinity>
6.4456710815

> <CNN_VS>
5.6198749542

$$$$
HIPS6920


 35 38  0  0  0  0  0  0  0  0999 V2000
   68.5574   76.3483   94.8826 C   0  0  0  0  0  0  0  0  0  0  0  0
   67.9778   77.0558   93.8242 C   0  0  0  0  0  0  0  0  0  0  0  0
   68.7609   77.5778   92.8457 N   0  0  0  0  0  0  0  0  0  0  0  0
   70.1135   77.4228   92.8624 C   0  0  0  0  0  0  0  0  0  0  0  0
   70.6910   76.7252   93.8791 N   0  0  0  0  0  0  0  0  0  0  0  0
   69.9469   76.1858   94.8786 C   0  0  0  0  0  0  0  0  0  0  0  0
   70.9490   78.0052   91.7827 C   0  0  0  0  0  0  0  0  0  0  0  0
   72.0288   77.2821   91.2441 C   0  0  0  0  0  0  0  0  0  0  0  0
   72.8140   77.8332   90.2296 C   0  0  0  0  0  0  0  0  0  0  0  0
   72.5343   79.1087   89.7370 C   0  0  0  0  0  0  0  0  0  0  0  0
   71.4563   79.8476   90.2577 C   0  0  0  0  0  0  0  0  0  0  0  0
   70.6754   79.2914   91.2787 C   0  0  0  0  0  0  0  0  0  0  0  0
   71.1260   81.1325   89.7966 O   0  0  0  0  0  0  0  0  0  0  0  0
   71.3265   82.3467   90.5211 C   0  0  0  0  0  0  0  0  0  0  0  0
   71.5545   83.4999   89.5799 C   0  0  0  0  0  0  0  0  0  0  0  0
   72.4634   83.3712   88.5169 C   0  0  0  0  0  0  0  0  0  0  0  0
   72.6729   84.4363   87.6360 C   0  0  0  0  0  0  0  0  0  0  0  0
   71.9719   85.6334   87.8045 C   0  0  0  0  0  0  0  0  0  0  0  0
   71.0559   85.7664   88.8530 C   0  0  0  0  0  0  0  0  0  0  0  0
   70.1729   87.2677   89.0607 Cl  0  0  0  0  0  0  0  0  0  0  0  0
   70.8432   84.7015   89.7360 C   0  0  0  0  0  0  0  0  0  0  0  0
   67.7046   75.7521   95.9700 C   0  0  0  0  0  0  0  0  0  0  0  0
   66.8936   74.6943   95.4570 O   0  0  0  0  0  0  0  0  0  0  0  0
   69.0852   72.1545   93.8780 C   0  0  0  0  0  0  0  0  0  0  0  0
   68.5930   73.1511   94.7398 C   0  0  0  0  0  0  0  0  0  0  0  0
   67.3224   73.7062   94.5556 C   0  0  0  0  0  0  0  0  0  0  0  0
   66.5250   73.2539   93.4911 C   0  0  0  0  0  0  0  0  0  0  0  0
   67.0082   72.2811   92.6158 C   0  0  0  0  0  0  0  0  0  0  0  0
   68.2878   71.7409   92.7816 C   0  0  0  0  0  0  0  0  0  0  0  0
   68.7367   70.8296   91.8231 O   0  0  0  0  0  0  0  0  0  0  0  0
   68.1772   70.5825   91.1133 H   0  0  0  0  0  0  0  0  0  0  0  0
   70.5803   70.8596   95.2097 O   0  0  0  0  0  0  0  0  0  0  0  0
   70.4068   71.5598   94.1767 C   0  0  0  0  0  0  0  0  0  0  0  0
   71.4898   71.8244   93.3424 O   0  0  0  0  0  0  0  0  0  0  0  0
   71.3715   72.3440   92.5717 H   0  0  0  0  0  0  0  0  0  0  0  0
 32 33  2  0  0  0
 33 34  1  0  0  0
 33 24  1  0  0  0
 24 25  2  0  0  0
 25 26  1  0  0  0
 26 23  1  0  0  0
 23 22  1  0  0  0
 22  1  1  0  0  0
  1  2  2  0  0  0
  2  3  2  0  0  0
  3  4  2  0  0  0
  4  7  1  0  0  0
  7  8  2  0  0  0
  8  9  1  0  0  0
  9 10  2  0  0  0
 10 11  1  0  0  0
 11 13  1  0  0  0
 13 14  1  0  0  0
 14 15  1  0  0  0
 15 16  2  0  0  0
 16 17  1  0  0  0
 17 18  2  0  0  0
 18 19  1  0  0  0
 19 20  1  0  0  0
 19 21  2  0  0  0
 11 12  2  0  0  0
  4  5  2  0  0  0
  5  6  2  0  0  0
 26 27  2  0  0  0
 27 28  1  0  0  0
 28 29  2  0  0  0
 29 30  1  0  0  0
 29 24  1  0  0  0
  6  1  1  0  0  0
 12  7  1  0  0  0
 21 15  1  0  0  0
 34 35  1  0  0  0
 30 31  1  0  0  0
M  END
> <Activity>
21.3

> <minimizedAffinity>
-1.73362

> <CNNscore>
0.7883183956

> <CNNaffinity>
6.0753669739

> <CNN_VS>
4.7893233299

$$$$
HIPS6920


 35 38  0  0  0  0  0  0  0  0999 V2000
   66.3029   77.8910   93.3867 C   0  0  0  0  0  0  0  0  0  0  0  0
   67.6240   78.3449   93.4607 C   0  0  0  0  0  0  0  0  0  0  0  0
   67.9181   79.4699   94.1614 N   0  0  0  0  0  0  0  0  0  0  0  0
   66.9500   80.1743   94.8097 C   0  0  0  0  0  0  0  0  0  0  0  0
   65.6614   79.7374   94.7579 N   0  0  0  0  0  0  0  0  0  0  0  0
   65.3216   78.6177   94.0694 C   0  0  0  0  0  0  0  0  0  0  0  0
   67.2958   81.4030   95.5672 C   0  0  0  0  0  0  0  0  0  0  0  0
   67.3472   81.3867   96.9729 C   0  0  0  0  0  0  0  0  0  0  0  0
   67.6712   82.5445   97.6828 C   0  0  0  0  0  0  0  0  0  0  0  0
   67.9498   83.7318   97.0041 C   0  0  0  0  0  0  0  0  0  0  0  0
   67.9090   83.7695   95.5984 C   0  0  0  0  0  0  0  0  0  0  0  0
   67.5785   82.6061   94.8921 C   0  0  0  0  0  0  0  0  0  0  0  0
   68.1853   84.9342   94.8637 O   0  0  0  0  0  0  0  0  0  0  0  0
   67.5328   86.1930   95.0352 C   0  0  0  0  0  0  0  0  0  0  0  0
   66.0963   86.1160   94.5901 C   0  0  0  0  0  0  0  0  0  0  0  0
   65.7848   86.0834   93.2210 C   0  0  0  0  0  0  0  0  0  0  0  0
   64.4532   86.0043   92.8030 C   0  0  0  0  0  0  0  0  0  0  0  0
   63.4243   85.9493   93.7471 C   0  0  0  0  0  0  0  0  0  0  0  0
   63.7257   85.9691   95.1127 C   0  0  0  0  0  0  0  0  0  0  0  0
   62.4339   85.8951   96.2969 Cl  0  0  0  0  0  0  0  0  0  0  0  0
   65.0580   86.0472   95.5343 C   0  0  0  0  0  0  0  0  0  0  0  0
   65.9592   76.6394   92.6248 C   0  0  0  0  0  0  0  0  0  0  0  0
   65.4287   75.6422   93.4988 O   0  0  0  0  0  0  0  0  0  0  0  0
   68.0737   73.4628   94.9134 C   0  0  0  0  0  0  0  0  0  0  0  0
   67.2858   74.2037   94.0143 C   0  0  0  0  0  0  0  0  0  0  0  0
   66.1673   74.9209   94.4513 C   0  0  0  0  0  0  0  0  0  0  0  0
   65.8308   74.9013   95.8151 C   0  0  0  0  0  0  0  0  0  0  0  0
   66.5907   74.1540   96.7151 C   0  0  0  0  0  0  0  0  0  0  0  0
   67.6955   73.4155   96.2786 C   0  0  0  0  0  0  0  0  0  0  0  0
   68.3628   72.6282   97.2198 O   0  0  0  0  0  0  0  0  0  0  0  0
   68.0804   72.6257   98.1132 H   0  0  0  0  0  0  0  0  0  0  0  0
   70.4345   73.1990   94.7062 O   0  0  0  0  0  0  0  0  0  0  0  0
   69.2846   72.7894   94.3939 C   0  0  0  0  0  0  0  0  0  0  0  0
   69.1578   71.7290   93.5004 O   0  0  0  0  0  0  0  0  0  0  0  0
   68.3072   71.4168   93.2615 H   0  0  0  0  0  0  0  0  0  0  0  0
 32 33  2  0  0  0
 33 34  1  0  0  0
 33 24  1  0  0  0
 24 25  2  0  0  0
 25 26  1  0  0  0
 26 23  1  0  0  0
 23 22  1  0  0  0
 22  1  1  0  0  0
  1  2  2  0  0  0
  2  3  2  0  0  0
  3  4  2  0  0  0
  4  7  1  0  0  0
  7  8  2  0  0  0
  8  9  1  0  0  0
  9 10  2  0  0  0
 10 11  1  0  0  0
 11 13  1  0  0  0
 13 14  1  0  0  0
 14 15  1  0  0  0
 15 16  2  0  0  0
 16 17  1  0  0  0
 17 18  2  0  0  0
 18 19  1  0  0  0
 19 20  1  0  0  0
 19 21  2  0  0  0
 11 12  2  0  0  0
  4  5  2  0  0  0
  5  6  2  0  0  0
 26 27  2  0  0  0
 27 28  1  0  0  0
 28 29  2  0  0  0
 29 30  1  0  0  0
 29 24  1  0  0  0
  6  1  1  0  0  0
 12  7  1  0  0  0
 21 15  1  0  0  0
 34 35  1  0  0  0
 30 31  1  0  0  0
M  END
> <Activity>
21.3

> <minimizedAffinity>
-4.21592

> <CNNscore>
0.6874087453

> <CNNaffinity>
6.4324922562

> <CNN_VS>
4.4217514992

$$$$
HIPS6920


 35 38  0  0  0  0  0  0  0  0999 V2000
   66.2874   78.0322   93.4476 C   0  0  0  0  0  0  0  0  0  0  0  0
   67.6103   78.4826   93.5096 C   0  0  0  0  0  0  0  0  0  0  0  0
   67.9194   79.5858   94.2381 N   0  0  0  0  0  0  0  0  0  0  0  0
   66.9649   80.2711   94.9259 C   0  0  0  0  0  0  0  0  0  0  0  0
   65.6750   79.8371   94.8859 N   0  0  0  0  0  0  0  0  0  0  0  0
   65.3204   78.7388   94.1706 C   0  0  0  0  0  0  0  0  0  0  0  0
   67.3270   81.4762   95.7131 C   0  0  0  0  0  0  0  0  0  0  0  0
   67.3250   81.4398   97.1194 C   0  0  0  0  0  0  0  0  0  0  0  0
   67.6645   82.5755   97.8573 C   0  0  0  0  0  0  0  0  0  0  0  0
   68.0117   83.7602   97.2064 C   0  0  0  0  0  0  0  0  0  0  0  0
   68.0251   83.8176   95.8008 C   0  0  0  0  0  0  0  0  0  0  0  0
   67.6789   82.6765   95.0663 C   0  0  0  0  0  0  0  0  0  0  0  0
   68.3714   84.9806   95.0936 O   0  0  0  0  0  0  0  0  0  0  0  0
   68.8995   85.0141   93.7671 C   0  0  0  0  0  0  0  0  0  0  0  0
   68.5896   86.3286   93.1010 C   0  0  0  0  0  0  0  0  0  0  0  0
   67.7643   87.2657   93.7439 C   0  0  0  0  0  0  0  0  0  0  0  0
   67.4799   88.4905   93.1329 C   0  0  0  0  0  0  0  0  0  0  0  0
   68.0227   88.7920   91.8810 C   0  0  0  0  0  0  0  0  0  0  0  0
   68.8553   87.8698   91.2387 C   0  0  0  0  0  0  0  0  0  0  0  0
   69.5401   88.2512   89.6695 Cl  0  0  0  0  0  0  0  0  0  0  0  0
   69.1428   86.6432   91.8483 C   0  0  0  0  0  0  0  0  0  0  0  0
   65.9273   76.8043   92.6551 C   0  0  0  0  0  0  0  0  0  0  0  0
   65.3866   75.7919   93.5050 O   0  0  0  0  0  0  0  0  0  0  0  0
   67.9902   73.5386   94.8802 C   0  0  0  0  0  0  0  0  0  0  0  0
   67.2124   74.3046   93.9934 C   0  0  0  0  0  0  0  0  0  0  0  0
   66.1161   75.0463   94.4457 C   0  0  0  0  0  0  0  0  0  0  0  0
   65.7921   75.0260   95.8125 C   0  0  0  0  0  0  0  0  0  0  0  0
   66.5418   74.2542   96.7004 C   0  0  0  0  0  0  0  0  0  0  0  0
   67.6238   73.4916   96.2486 C   0  0  0  0  0  0  0  0  0  0  0  0
   68.2803   72.6819   97.1784 O   0  0  0  0  0  0  0  0  0  0  0  0
   68.0063   72.6804   98.0744 H   0  0  0  0  0  0  0  0  0  0  0  0
   70.3416   73.2349   94.6267 O   0  0  0  0  0  0  0  0  0  0  0  0
   69.1791   72.8391   94.3448 C   0  0  0  0  0  0  0  0  0  0  0  0
   69.0169   71.7683   93.4697 O   0  0  0  0  0  0  0  0  0  0  0  0
   68.1567   71.4661   93.2535 H   0  0  0  0  0  0  0  0  0  0  0  0
 32 33  2  0  0  0
 33 34  1  0  0  0
 33 24  1  0  0  0
 24 25  2  0  0  0
 25 26  1  0  0  0
 26 23  1  0  0  0
 23 22  1  0  0  0
 22  1  1  0  0  0
  1  2  2  0  0  0
  2  3  2  0  0  0
  3  4  2  0  0  0
  4  7  1  0  0  0
  7  8  2  0  0  0
  8  9  1  0  0  0
  9 10  2  0  0  0
 10 11  1  0  0  0
 11 13  1  0  0  0
 13 14  1  0  0  0
 14 15  1  0  0  0
 15 16  2  0  0  0
 16 17  1  0  0  0
 17 18  2  0  0  0
 18 19  1  0  0  0
 19 20  1  0  0  0
 19 21  2  0  0  0
 11 12  2  0  0  0
  4  5  2  0  0  0
  5  6  2  0  0  0
 26 27  2  0  0  0
 27 28  1  0  0  0
 28 29  2  0  0  0
 29 30  1  0  0  0
 29 24  1  0  0  0
  6  1  1  0  0  0
 12  7  1  0  0  0
 21 15  1  0  0  0
 34 35  1  0  0  0
 30 31  1  0  0  0
M  END
> <Activity>
21.3

> <minimizedAffinity>
-3.95860

> <CNNscore>
0.6701322198

> <CNNaffinity>
6.2043619156

> <CNN_VS>
4.1577429771

$$$$
HIPS6276


 31 32  0  0  0  0  0  0  0  0999 V2000
   70.3900   78.5014   91.4215 O   0  0  0  0  0  0  0  0  0  0  0  0
   72.0104   82.2111   90.2196 C   0  0  0  0  0  0  0  0  0  0  0  0
   72.3898   81.0123   89.6023 C   0  0  0  0  0  0  0  0  0  0  0  0
   71.8485   79.7961   90.0179 C   0  0  0  0  0  0  0  0  0  0  0  0
   70.9119   79.7525   91.0523 C   0  0  0  0  0  0  0  0  0  0  0  0
   70.5203   80.9524   91.6743 C   0  0  0  0  0  0  0  0  0  0  0  0
   71.0367   82.1908   91.2492 C   0  0  0  0  0  0  0  0  0  0  0  0
   72.9914   85.3543   88.1890 C   0  0  0  0  0  0  0  0  0  0  0  0
   72.3255   84.0689   88.5568 C   0  0  0  0  0  0  0  0  0  0  0  0
   71.4498   83.5807   87.7917 O   0  0  0  0  0  0  0  0  0  0  0  0
   72.6473   83.4260   89.7985 N   0  0  0  0  0  0  0  0  0  0  0  0
   73.3285   83.8325   90.3816 H   0  0  0  0  0  0  0  0  0  0  0  0
   70.5001   83.4360   91.8512 C   0  0  0  0  0  0  0  0  0  0  0  0
   70.3382   84.4650   91.1407 O   0  0  0  0  0  0  0  0  0  0  0  0
   70.2052   83.4970   93.2104 O   0  0  0  0  0  0  0  0  0  0  0  0
   70.3211   82.7394   93.7495 H   0  0  0  0  0  0  0  0  0  0  0  0
   70.5938   77.8608   92.6824 C   0  0  0  0  0  0  0  0  0  0  0  0
   69.2797   77.4034   93.2641 C   0  0  0  0  0  0  0  0  0  0  0  0
   69.1151   76.0806   93.6911 C   0  0  0  0  0  0  0  0  0  0  0  0
   67.9127   75.6542   94.2922 C   0  0  0  0  0  0  0  0  0  0  0  0
   66.8709   76.5974   94.4245 C   0  0  0  0  0  0  0  0  0  0  0  0
   66.9995   77.9300   93.9769 C   0  0  0  0  0  0  0  0  0  0  0  0
   68.2256   78.3140   93.3952 C   0  0  0  0  0  0  0  0  0  0  0  0
   67.7113   74.2183   94.8234 C   0  0  0  0  0  0  0  0  0  0  0  0
   66.7980   74.1519   96.0718 C   0  0  0  0  0  0  0  0  0  0  0  0
   69.0786   73.6142   95.2130 C   0  0  0  0  0  0  0  0  0  0  0  0
   67.0606   73.3515   93.7230 C   0  0  0  0  0  0  0  0  0  0  0  0
   65.8204   78.9106   94.1575 C   0  0  0  0  0  0  0  0  0  0  0  0
   66.3576   80.2753   94.6410 C   0  0  0  0  0  0  0  0  0  0  0  0
   65.0254   79.1550   92.8517 C   0  0  0  0  0  0  0  0  0  0  0  0
   64.8337   78.3466   95.2043 C   0  0  0  0  0  0  0  0  0  0  0  0
  8  9  1  0  0  0
  9 10  2  0  0  0
  9 11  1  0  0  0
 11  2  1  0  0  0
  2  3  2  0  0  0
  3  4  1  0  0  0
  4  5  2  0  0  0
  5  1  1  0  0  0
  1 17  1  0  0  0
 17 18  1  0  0  0
 18 19  2  0  0  0
 19 20  1  0  0  0
 20 24  1  0  0  0
 24 25  1  0  0  0
 24 26  1  0  0  0
 24 27  1  0  0  0
 20 21  2  0  0  0
 21 22  1  0  0  0
 22 28  1  0  0  0
 28 29  1  0  0  0
 28 30  1  0  0  0
 28 31  1  0  0  0
 22 23  2  0  0  0
  5  6  1  0  0  0
  6  7  2  0  0  0
  7 13  1  0  0  0
 13 14  2  0  0  0
 13 15  1  0  0  0
  7  2  1  0  0  0
 23 18  1  0  0  0
 11 12  1  0  0  0
 15 16  1  0  0  0
M  END
> <Activity>
29.4

> <minimizedAffinity>
1.37247

> <CNNscore>
0.9103049040

> <CNNaffinity>
6.3461780548

> <CNN_VS>
5.7769570351

$$$$
HIPS6276


 31 32  0  0  0  0  0  0  0  0999 V2000
   70.3313   78.5378   91.4126 O   0  0  0  0  0  0  0  0  0  0  0  0
   71.9870   82.2396   90.2347 C   0  0  0  0  0  0  0  0  0  0  0  0
   72.3569   81.0410   89.6114 C   0  0  0  0  0  0  0  0  0  0  0  0
   71.8041   79.8273   90.0191 C   0  0  0  0  0  0  0  0  0  0  0  0
   70.8651   79.7862   91.0514 C   0  0  0  0  0  0  0  0  0  0  0  0
   70.4829   80.9861   91.6795 C   0  0  0  0  0  0  0  0  0  0  0  0
   71.0111   82.2222   91.2623 C   0  0  0  0  0  0  0  0  0  0  0  0
   73.0000   85.3853   88.2238 C   0  0  0  0  0  0  0  0  0  0  0  0
   72.3219   84.1038   88.5830 C   0  0  0  0  0  0  0  0  0  0  0  0
   71.4434   83.6278   87.8136 O   0  0  0  0  0  0  0  0  0  0  0  0
   72.6355   83.4512   89.8217 N   0  0  0  0  0  0  0  0  0  0  0  0
   73.3192   83.8482   90.4084 H   0  0  0  0  0  0  0  0  0  0  0  0
   70.4844   83.4687   91.8702 C   0  0  0  0  0  0  0  0  0  0  0  0
   70.3355   84.5038   91.1658 O   0  0  0  0  0  0  0  0  0  0  0  0
   70.1847   83.5238   93.2287 O   0  0  0  0  0  0  0  0  0  0  0  0
   70.2910   82.7617   93.7632 H   0  0  0  0  0  0  0  0  0  0  0  0
   70.6024   77.8451   92.6326 C   0  0  0  0  0  0  0  0  0  0  0  0
   69.3181   77.4107   93.2932 C   0  0  0  0  0  0  0  0  0  0  0  0
   68.2576   78.3119   93.4433 C   0  0  0  0  0  0  0  0  0  0  0  0
   67.0296   77.9038   94.0041 C   0  0  0  0  0  0  0  0  0  0  0  0
   66.9139   76.5643   94.4342 C   0  0  0  0  0  0  0  0  0  0  0  0
   67.9765   75.6420   94.3210 C   0  0  0  0  0  0  0  0  0  0  0  0
   69.1805   76.0922   93.7405 C   0  0  0  0  0  0  0  0  0  0  0  0
   65.8195   78.8536   94.1384 C   0  0  0  0  0  0  0  0  0  0  0  0
   65.0526   79.0567   92.8089 C   0  0  0  0  0  0  0  0  0  0  0  0
   66.3015   80.2414   94.6157 C   0  0  0  0  0  0  0  0  0  0  0  0
   64.8241   78.2729   95.1668 C   0  0  0  0  0  0  0  0  0  0  0  0
   67.7790   74.1900   94.8080 C   0  0  0  0  0  0  0  0  0  0  0  0
   69.1472   73.5886   95.1964 C   0  0  0  0  0  0  0  0  0  0  0  0
   66.8513   74.0822   96.0428 C   0  0  0  0  0  0  0  0  0  0  0  0
   67.1489   73.3459   93.6775 C   0  0  0  0  0  0  0  0  0  0  0  0
  8  9  1  0  0  0
  9 10  2  0  0  0
  9 11  1  0  0  0
 11  2  1  0  0  0
  2  3  2  0  0  0
  3  4  1  0  0  0
  4  5  2  0  0  0
  5  1  1  0  0  0
  1 17  1  0  0  0
 17 18  1  0  0  0
 18 19  2  0  0  0
 19 20  1  0  0  0
 20 24  1  0  0  0
 24 25  1  0  0  0
 24 26  1  0  0  0
 24 27  1  0  0  0
 20 21  2  0  0  0
 21 22  1  0  0  0
 22 28  1  0  0  0
 28 29  1  0  0  0
 28 30  1  0  0  0
 28 31  1  0  0  0
 22 23  2  0  0  0
  5  6  1  0  0  0
  6  7  2  0  0  0
  7 13  1  0  0  0
 13 14  2  0  0  0
 13 15  1  0  0  0
  7  2  1  0  0  0
 23 18  1  0  0  0
 11 12  1  0  0  0
 15 16  1  0  0  0
M  END
> <Activity>
29.4

> <minimizedAffinity>
1.37069

> <CNNscore>
0.9096141458

> <CNNaffinity>
6.3400106430

> <CNN_VS>
5.7669634819

$$$$
HIPS6276


 31 32  0  0  0  0  0  0  0  0999 V2000
   70.8912   78.8787   92.0758 O   0  0  0  0  0  0  0  0  0  0  0  0
   67.9018   76.6461   94.0536 C   0  0  0  0  0  0  0  0  0  0  0  0
   67.5810   77.7456   93.2472 C   0  0  0  0  0  0  0  0  0  0  0  0
   68.5830   78.4748   92.6076 C   0  0  0  0  0  0  0  0  0  0  0  0
   69.9245   78.1167   92.7532 C   0  0  0  0  0  0  0  0  0  0  0  0
   70.2559   77.0100   93.5565 C   0  0  0  0  0  0  0  0  0  0  0  0
   69.2552   76.2472   94.1874 C   0  0  0  0  0  0  0  0  0  0  0  0
   65.0804   74.1580   94.9557 C   0  0  0  0  0  0  0  0  0  0  0  0
   66.1526   74.8459   94.1759 C   0  0  0  0  0  0  0  0  0  0  0  0
   66.4789   74.4022   93.0414 O   0  0  0  0  0  0  0  0  0  0  0  0
   66.8383   75.9720   94.7418 N   0  0  0  0  0  0  0  0  0  0  0  0
   66.5700   76.2933   95.6329 H   0  0  0  0  0  0  0  0  0  0  0  0
   69.6458   75.0180   94.9203 C   0  0  0  0  0  0  0  0  0  0  0  0
   69.2286   73.8917   94.5367 O   0  0  0  0  0  0  0  0  0  0  0  0
   70.4435   75.0941   96.0588 O   0  0  0  0  0  0  0  0  0  0  0  0
   70.7601   75.9250   96.3544 H   0  0  0  0  0  0  0  0  0  0  0  0
   70.7171   79.4819   90.7923 C   0  0  0  0  0  0  0  0  0  0  0  0
   70.7953   80.9844   90.8968 C   0  0  0  0  0  0  0  0  0  0  0  0
   71.3265   81.7418   89.8463 C   0  0  0  0  0  0  0  0  0  0  0  0
   71.3507   83.1507   89.9046 C   0  0  0  0  0  0  0  0  0  0  0  0
   70.8468   83.7712   91.0680 C   0  0  0  0  0  0  0  0  0  0  0  0
   70.3315   83.0311   92.1540 C   0  0  0  0  0  0  0  0  0  0  0  0
   70.3148   81.6251   92.0440 C   0  0  0  0  0  0  0  0  0  0  0  0
   71.8800   84.0226   88.7453 C   0  0  0  0  0  0  0  0  0  0  0  0
   71.6270   83.4015   87.3499 C   0  0  0  0  0  0  0  0  0  0  0  0
   73.4044   84.2186   88.8994 C   0  0  0  0  0  0  0  0  0  0  0  0
   71.1785   85.3983   88.7773 C   0  0  0  0  0  0  0  0  0  0  0  0
   69.7920   83.7756   93.3946 C   0  0  0  0  0  0  0  0  0  0  0  0
   69.3976   85.2149   92.9979 C   0  0  0  0  0  0  0  0  0  0  0  0
   68.5442   83.1012   94.0154 C   0  0  0  0  0  0  0  0  0  0  0  0
   70.8855   83.8244   94.4852 C   0  0  0  0  0  0  0  0  0  0  0  0
  8  9  1  0  0  0
  9 10  2  0  0  0
  9 11  1  0  0  0
 11  2  1  0  0  0
  2  3  2  0  0  0
  3  4  1  0  0  0
  4  5  2  0  0  0
  5  1  1  0  0  0
  1 17  1  0  0  0
 17 18  1  0  0  0
 18 19  2  0  0  0
 19 20  1  0  0  0
 20 24  1  0  0  0
 24 25  1  0  0  0
 24 26  1  0  0  0
 24 27  1  0  0  0
 20 21  2  0  0  0
 21 22  1  0  0  0
 22 28  1  0  0  0
 28 29  1  0  0  0
 28 30  1  0  0  0
 28 31  1  0  0  0
 22 23  2  0  0  0
  5  6  1  0  0  0
  6  7  2  0  0  0
  7 13  1  0  0  0
 13 14  2  0  0  0
 13 15  1  0  0  0
  7  2  1  0  0  0
 23 18  1  0  0  0
 11 12  1  0  0  0
 15 16  1  0  0  0
M  END
> <Activity>
29.4

> <minimizedAffinity>
2.90441

> <CNNscore>
0.8816466928

> <CNNaffinity>
6.1160240173

> <CNN_VS>
5.3921723366

$$$$
HIPS7022


 39 41  0  0  0  0  0  0  0  0999 V2000
   69.6121   77.9023   92.7561 C   0  0  0  0  0  0  0  0  0  0  0  0
   68.2674   78.1165   92.7537 N   0  0  0  0  0  0  0  0  0  0  0  0
   67.4465   77.4689   93.6195 C   0  0  0  0  0  0  0  0  0  0  0  0
   67.9782   76.5666   94.5461 C   0  0  0  0  0  0  0  0  0  0  0  0
   69.3589   76.3420   94.5230 C   0  0  0  0  0  0  0  0  0  0  0  0
   70.1422   77.0132   93.6400 N   0  0  0  0  0  0  0  0  0  0  0  0
   71.1828   80.7356   90.7535 C   0  0  0  0  0  0  0  0  0  0  0  0
   72.1407   80.0249   90.0074 C   0  0  0  0  0  0  0  0  0  0  0  0
   72.2668   78.6433   90.1532 C   0  0  0  0  0  0  0  0  0  0  0  0
   71.4495   77.9526   91.0482 C   0  0  0  0  0  0  0  0  0  0  0  0
   70.4898   78.6391   91.8132 C   0  0  0  0  0  0  0  0  0  0  0  0
   70.3683   80.0340   91.6578 C   0  0  0  0  0  0  0  0  0  0  0  0
   71.0161   82.1595   90.6191 N   0  0  0  0  0  0  0  0  0  0  0  0
   70.4094   82.6139   91.2474 H   0  0  0  0  0  0  0  0  0  0  0  0
   71.8167   83.1261   89.4199 S   0  0  0  0  0  0  0  0  0  0  0  0
   73.2794   83.2244   89.7483 O   0  0  0  0  0  0  0  0  0  0  0  0
   71.2303   84.5093   89.4438 O   0  0  0  0  0  0  0  0  0  0  0  0
   71.5324   82.4158   87.7990 C   0  0  0  0  0  0  0  0  0  0  0  0
   71.4583   83.4731   86.6843 C   0  0  0  0  0  0  0  0  0  0  0  0
   70.4894   83.1384   85.5302 C   0  0  0  0  0  0  0  0  0  0  0  0
   70.6079   81.7159   84.9493 C   0  0  0  0  0  0  0  0  0  0  0  0
   69.2910   80.9236   85.0097 C   0  0  0  0  0  0  0  0  0  0  0  0
   69.3437   79.6459   84.1550 C   0  0  0  0  0  0  0  0  0  0  0  0
   67.8116   78.7754   85.9698 C   0  0  0  0  0  0  0  0  0  0  0  0
   68.8768   78.4084   84.9386 C   0  0  0  0  0  0  0  0  0  0  0  0
   67.0841   75.8506   95.5229 C   0  0  0  0  0  0  0  0  0  0  0  0
   67.7505   74.7180   96.0839 O   0  0  0  0  0  0  0  0  0  0  0  0
   68.4344   73.7321   95.3523 C   0  0  0  0  0  0  0  0  0  0  0  0
   69.7269   73.3906   95.7568 C   0  0  0  0  0  0  0  0  0  0  0  0
   70.4563   72.4268   95.0615 C   0  0  0  0  0  0  0  0  0  0  0  0
   69.9026   71.7821   93.9472 C   0  0  0  0  0  0  0  0  0  0  0  0
   70.6542   70.8215   93.2717 O   0  0  0  0  0  0  0  0  0  0  0  0
   68.5935   72.1075   93.5239 C   0  0  0  0  0  0  0  0  0  0  0  0
   67.8690   73.0823   94.2388 C   0  0  0  0  0  0  0  0  0  0  0  0
   71.5207   70.6150   93.5624 H   0  0  0  0  0  0  0  0  0  0  0  0
   67.9702   71.4496   92.3463 C   0  0  0  0  0  0  0  0  0  0  0  0
   66.9395   71.9439   91.8146 O   0  0  0  0  0  0  0  0  0  0  0  0
   68.5128   70.2859   91.8084 O   0  0  0  0  0  0  0  0  0  0  0  0
   69.2786   69.9055   92.1915 H   0  0  0  0  0  0  0  0  0  0  0  0
 24 25  1  0  0  0
 25 23  1  0  0  0
 23 22  1  0  0  0
 22 21  1  0  0  0
 21 20  1  0  0  0
 20 19  1  0  0  0
 19 18  1  0  0  0
 18 15  1  0  0  0
 15 16  2  0  0  0
 15 17  2  0  0  0
 15 13  1  0  0  0
 13  7  1  0  0  0
  7  8  2  0  0  0
  8  9  1  0  0  0
  9 10  2  0  0  0
 10 11  1  0  0  0
 11  1  1  0  0  0
  1  2  2  0  0  0
  2  3  2  0  0  0
  3  4  2  0  0  0
  4 26  1  0  0  0
 26 27  1  0  0  0
 27 28  1  0  0  0
 28 29  2  0  0  0
 29 30  1  0  0  0
 30 31  2  0  0  0
 31 32  1  0  0  0
 31 33  1  0  0  0
 33 36  1  0  0  0
 36 37  2  0  0  0
 36 38  1  0  0  0
 33 34  2  0  0  0
  4  5  1  0  0  0
  5  6  2  0  0  0
 11 12  2  0  0  0
 12  7  1  0  0  0
  6  1  2  0  0  0
 34 28  1  0  0  0
 13 14  1  0  0  0
 32 35  1  0  0  0
 38 39  1  0  0  0
M  END
> <Activity>
30.7

> <minimizedAffinity>
8.30329

> <CNNscore>
0.9175264835

> <CNNaffinity>
6.5094633102

> <CNN_VS>
5.9726047516

$$$$
HIPS7022


 39 41  0  0  0  0  0  0  0  0999 V2000
   70.0121   77.4395   92.8961 C   0  0  0  0  0  0  0  0  0  0  0  0
   68.6612   77.6016   92.8447 N   0  0  0  0  0  0  0  0  0  0  0  0
   67.8500   77.0858   93.8033 C   0  0  0  0  0  0  0  0  0  0  0  0
   68.3983   76.3785   94.8778 C   0  0  0  0  0  0  0  0  0  0  0  0
   69.7860   76.2031   94.9061 C   0  0  0  0  0  0  0  0  0  0  0  0
   70.5590   76.7377   93.9262 N   0  0  0  0  0  0  0  0  0  0  0  0
   71.3514   79.8227   90.2442 C   0  0  0  0  0  0  0  0  0  0  0  0
   72.5116   79.1362   89.8418 C   0  0  0  0  0  0  0  0  0  0  0  0
   72.8467   77.9135   90.4238 C   0  0  0  0  0  0  0  0  0  0  0  0
   72.0387   77.3627   91.4186 C   0  0  0  0  0  0  0  0  0  0  0  0
   70.8782   78.0317   91.8465 C   0  0  0  0  0  0  0  0  0  0  0  0
   70.5466   79.2650   91.2515 C   0  0  0  0  0  0  0  0  0  0  0  0
   70.9680   81.0800   89.6563 N   0  0  0  0  0  0  0  0  0  0  0  0
   70.2462   81.0746   88.9868 H   0  0  0  0  0  0  0  0  0  0  0  0
   71.6972   82.6045   90.0529 S   0  0  0  0  0  0  0  0  0  0  0  0
   73.0836   82.3753   90.5844 O   0  0  0  0  0  0  0  0  0  0  0  0
   70.8802   83.2664   91.1262 O   0  0  0  0  0  0  0  0  0  0  0  0
   71.6930   83.6590   88.6034 C   0  0  0  0  0  0  0  0  0  0  0  0
   72.6794   84.8342   88.7125 C   0  0  0  0  0  0  0  0  0  0  0  0
   72.1443   86.1861   88.1944 C   0  0  0  0  0  0  0  0  0  0  0  0
   70.7727   86.1378   87.4935 C   0  0  0  0  0  0  0  0  0  0  0  0
   69.8061   87.2334   87.9738 C   0  0  0  0  0  0  0  0  0  0  0  0
   70.4983   88.2551   88.8918 C   0  0  0  0  0  0  0  0  0  0  0  0
   69.0009   87.1533   90.6071 C   0  0  0  0  0  0  0  0  0  0  0  0
   69.7570   88.4250   90.2279 C   0  0  0  0  0  0  0  0  0  0  0  0
   67.5147   75.8120   95.9569 C   0  0  0  0  0  0  0  0  0  0  0  0
   66.8370   74.6419   95.4951 O   0  0  0  0  0  0  0  0  0  0  0  0
   67.3811   73.6737   94.6340 C   0  0  0  0  0  0  0  0  0  0  0  0
   66.6284   73.2825   93.5244 C   0  0  0  0  0  0  0  0  0  0  0  0
   67.1140   72.3180   92.6423 C   0  0  0  0  0  0  0  0  0  0  0  0
   68.3675   71.7278   92.8528 C   0  0  0  0  0  0  0  0  0  0  0  0
   68.8287   70.7670   91.9539 O   0  0  0  0  0  0  0  0  0  0  0  0
   69.1493   72.1133   93.9660 C   0  0  0  0  0  0  0  0  0  0  0  0
   68.6448   73.0910   94.8467 C   0  0  0  0  0  0  0  0  0  0  0  0
   68.3008   70.5203   91.2201 H   0  0  0  0  0  0  0  0  0  0  0  0
   70.4822   71.5107   94.2270 C   0  0  0  0  0  0  0  0  0  0  0  0
   70.6788   70.8326   95.2714 O   0  0  0  0  0  0  0  0  0  0  0  0
   71.5302   71.6781   93.3261 O   0  0  0  0  0  0  0  0  0  0  0  0
   71.4010   72.1791   92.5449 H   0  0  0  0  0  0  0  0  0  0  0  0
 24 25  1  0  0  0
 25 23  1  0  0  0
 23 22  1  0  0  0
 22 21  1  0  0  0
 21 20  1  0  0  0
 20 19  1  0  0  0
 19 18  1  0  0  0
 18 15  1  0  0  0
 15 16  2  0  0  0
 15 17  2  0  0  0
 15 13  1  0  0  0
 13  7  1  0  0  0
  7  8  2  0  0  0
  8  9  1  0  0  0
  9 10  2  0  0  0
 10 11  1  0  0  0
 11  1  1  0  0  0
  1  2  2  0  0  0
  2  3  2  0  0  0
  3  4  2  0  0  0
  4 26  1  0  0  0
 26 27  1  0  0  0
 27 28  1  0  0  0
 28 29  2  0  0  0
 29 30  1  0  0  0
 30 31  2  0  0  0
 31 32  1  0  0  0
 31 33  1  0  0  0
 33 36  1  0  0  0
 36 37  2  0  0  0
 36 38  1  0  0  0
 33 34  2  0  0  0
  4  5  1  0  0  0
  5  6  2  0  0  0
 11 12  2  0  0  0
 12  7  1  0  0  0
  6  1  2  0  0  0
 34 28  1  0  0  0
 13 14  1  0  0  0
 32 35  1  0  0  0
 38 39  1  0  0  0
M  END
> <Activity>
30.7

> <minimizedAffinity>
-2.46662

> <CNNscore>
0.7669364214

> <CNNaffinity>
6.3049268723

> <CNN_VS>
4.8354778290

$$$$
HIPS7022


 39 41  0  0  0  0  0  0  0  0999 V2000
   69.8558   77.4634   92.9478 C   0  0  0  0  0  0  0  0  0  0  0  0
   68.5192   77.6997   92.8402 N   0  0  0  0  0  0  0  0  0  0  0  0
   67.6413   77.2302   93.7632 C   0  0  0  0  0  0  0  0  0  0  0  0
   68.1043   76.4947   94.8587 C   0  0  0  0  0  0  0  0  0  0  0  0
   69.4778   76.2431   94.9448 C   0  0  0  0  0  0  0  0  0  0  0  0
   70.3195   76.7334   93.9990 N   0  0  0  0  0  0  0  0  0  0  0  0
   71.4350   79.7674   90.3588 C   0  0  0  0  0  0  0  0  0  0  0  0
   72.5707   79.0170   90.0033 C   0  0  0  0  0  0  0  0  0  0  0  0
   72.8125   77.7776   90.5961 C   0  0  0  0  0  0  0  0  0  0  0  0
   71.9344   77.2730   91.5554 C   0  0  0  0  0  0  0  0  0  0  0  0
   70.7963   78.0060   91.9362 C   0  0  0  0  0  0  0  0  0  0  0  0
   70.5592   79.2558   91.3307 C   0  0  0  0  0  0  0  0  0  0  0  0
   71.1471   81.0441   89.7582 N   0  0  0  0  0  0  0  0  0  0  0  0
   70.5287   81.0642   88.9925 H   0  0  0  0  0  0  0  0  0  0  0  0
   71.8212   82.5499   90.2983 S   0  0  0  0  0  0  0  0  0  0  0  0
   71.2953   83.6700   89.4463 O   0  0  0  0  0  0  0  0  0  0  0  0
   73.3145   82.4945   90.1420 O   0  0  0  0  0  0  0  0  0  0  0  0
   71.4393   82.7820   92.0341 C   0  0  0  0  0  0  0  0  0  0  0  0
   70.0819   83.4678   92.2642 C   0  0  0  0  0  0  0  0  0  0  0  0
   69.9213   84.1537   93.6377 C   0  0  0  0  0  0  0  0  0  0  0  0
   68.9565   85.3549   93.6762 C   0  0  0  0  0  0  0  0  0  0  0  0
   68.7041   85.8858   95.0975 C   0  0  0  0  0  0  0  0  0  0  0  0
   69.0541   84.8459   96.1753 C   0  0  0  0  0  0  0  0  0  0  0  0
   66.6040   85.2123   96.6866 C   0  0  0  0  0  0  0  0  0  0  0  0
   67.7989   84.2762   96.8561 C   0  0  0  0  0  0  0  0  0  0  0  0
   67.1464   75.9788   95.8991 C   0  0  0  0  0  0  0  0  0  0  0  0
   67.4850   74.6447   96.2829 O   0  0  0  0  0  0  0  0  0  0  0  0
   68.2169   73.7347   95.5012 C   0  0  0  0  0  0  0  0  0  0  0  0
   69.5155   73.4162   95.9047 C   0  0  0  0  0  0  0  0  0  0  0  0
   70.2915   72.5276   95.1615 C   0  0  0  0  0  0  0  0  0  0  0  0
   69.7793   71.9363   93.9988 C   0  0  0  0  0  0  0  0  0  0  0  0
   70.5769   71.0503   93.2758 O   0  0  0  0  0  0  0  0  0  0  0  0
   68.4648   72.2392   93.5751 C   0  0  0  0  0  0  0  0  0  0  0  0
   67.6931   73.1377   94.3388 C   0  0  0  0  0  0  0  0  0  0  0  0
   71.4464   70.8579   93.5674 H   0  0  0  0  0  0  0  0  0  0  0  0
   67.8846   71.6362   92.3472 C   0  0  0  0  0  0  0  0  0  0  0  0
   66.8265   72.1062   91.8482 O   0  0  0  0  0  0  0  0  0  0  0  0
   68.4977   70.5517   91.7261 O   0  0  0  0  0  0  0  0  0  0  0  0
   69.2846   70.1903   92.0839 H   0  0  0  0  0  0  0  0  0  0  0  0
 24 25  1  0  0  0
 25 23  1  0  0  0
 23 22  1  0  0  0
 22 21  1  0  0  0
 21 20  1  0  0  0
 20 19  1  0  0  0
 19 18  1  0  0  0
 18 15  1  0  0  0
 15 16  2  0  0  0
 15 17  2  0  0  0
 15 13  1  0  0  0
 13  7  1  0  0  0
  7  8  2  0  0  0
  8  9  1  0  0  0
  9 10  2  0  0  0
 10 11  1  0  0  0
 11  1  1  0  0  0
  1  2  2  0  0  0
  2  3  2  0  0  0
  3  4  2  0  0  0
  4 26  1  0  0  0
 26 27  1  0  0  0
 27 28  1  0  0  0
 28 29  2  0  0  0
 29 30  1  0  0  0
 30 31  2  0  0  0
 31 32  1  0  0  0
 31 33  1  0  0  0
 33 36  1  0  0  0
 36 37  2  0  0  0
 36 38  1  0  0  0
 33 34  2  0  0  0
  4  5  1  0  0  0
  5  6  2  0  0  0
 11 12  2  0  0  0
 12  7  1  0  0  0
  6  1  2  0  0  0
 34 28  1  0  0  0
 13 14  1  0  0  0
 32 35  1  0  0  0
 38 39  1  0  0  0
M  END
> <Activity>
30.7

> <minimizedAffinity>
-0.26327

> <CNNscore>
0.7662767172

> <CNNaffinity>
6.3614692688

> <CNN_VS>
4.8746457100

$$$$
HIPS6101


 33 36  0  0  0  0  0  0  0  0999 V2000
   71.5106   77.7412   91.7561 C   0  0  0  0  0  0  0  0  0  0  0  0
   72.1932   77.1562   90.6799 C   0  0  0  0  0  0  0  0  0  0  0  0
   72.5885   77.9335   89.5897 C   0  0  0  0  0  0  0  0  0  0  0  0
   72.3041   79.3001   89.5611 C   0  0  0  0  0  0  0  0  0  0  0  0
   71.6088   79.9036   90.6227 C   0  0  0  0  0  0  0  0  0  0  0  0
   71.1972   79.1106   91.7084 C   0  0  0  0  0  0  0  0  0  0  0  0
   71.3296   81.3607   90.6091 C   0  0  0  0  0  0  0  0  0  0  0  0
   70.8014   81.9936   91.7487 C   0  0  0  0  0  0  0  0  0  0  0  0
   70.5725   83.3712   91.7491 C   0  0  0  0  0  0  0  0  0  0  0  0
   70.8562   84.1302   90.6119 C   0  0  0  0  0  0  0  0  0  0  0  0
   71.3563   83.5167   89.4592 C   0  0  0  0  0  0  0  0  0  0  0  0
   71.6076   82.1326   89.4662 C   0  0  0  0  0  0  0  0  0  0  0  0
   71.6372   84.3124   88.3392 O   0  0  0  0  0  0  0  0  0  0  0  0
   71.8008   85.7052   88.3568 C   0  0  0  0  0  0  0  0  0  0  0  0
   73.0986   86.2310   88.3831 C   0  0  0  0  0  0  0  0  0  0  0  0
   73.2996   87.6143   88.4243 C   0  0  0  0  0  0  0  0  0  0  0  0
   72.2030   88.4813   88.4546 C   0  0  0  0  0  0  0  0  0  0  0  0
   70.9044   87.9659   88.4403 C   0  0  0  0  0  0  0  0  0  0  0  0
   70.7006   86.5831   88.3969 C   0  0  0  0  0  0  0  0  0  0  0  0
   71.0787   76.8879   92.9235 C   0  0  0  0  0  0  0  0  0  0  0  0
   69.9292   77.4272   93.5790 O   0  0  0  0  0  0  0  0  0  0  0  0
   67.7890   74.7715   95.0402 C   0  0  0  0  0  0  0  0  0  0  0  0
   68.9062   75.5584   94.6975 C   0  0  0  0  0  0  0  0  0  0  0  0
   68.7704   76.7037   93.9065 C   0  0  0  0  0  0  0  0  0  0  0  0
   67.4935   77.0860   93.4645 C   0  0  0  0  0  0  0  0  0  0  0  0
   66.3765   76.3223   93.8011 C   0  0  0  0  0  0  0  0  0  0  0  0
   66.5117   75.1663   94.5820 C   0  0  0  0  0  0  0  0  0  0  0  0
   65.3762   74.4205   94.8996 O   0  0  0  0  0  0  0  0  0  0  0  0
   64.5349   74.6929   94.5897 H   0  0  0  0  0  0  0  0  0  0  0  0
   67.0662   73.1643   96.6455 O   0  0  0  0  0  0  0  0  0  0  0  0
   67.9794   73.5516   95.8670 C   0  0  0  0  0  0  0  0  0  0  0  0
   69.1617   72.8200   95.8011 O   0  0  0  0  0  0  0  0  0  0  0  0
   69.8506   73.0937   95.2280 H   0  0  0  0  0  0  0  0  0  0  0  0
 30 31  2  0  0  0
 31 32  1  0  0  0
 31 22  1  0  0  0
 22 23  2  0  0  0
 23 24  1  0  0  0
 24 21  1  0  0  0
 21 20  1  0  0  0
 20  1  1  0  0  0
  1  2  2  0  0  0
  2  3  1  0  0  0
  3  4  2  0  0  0
  4  5  1  0  0  0
  5  7  1  0  0  0
  7  8  2  0  0  0
  8  9  1  0  0  0
  9 10  2  0  0  0
 10 11  1  0  0  0
 11 13  1  0  0  0
 13 14  1  0  0  0
 14 15  2  0  0  0
 15 16  1  0  0  0
 16 17  2  0  0  0
 17 18  1  0  0  0
 18 19  2  0  0  0
 11 12  2  0  0  0
  5  6  2  0  0  0
 24 25  2  0  0  0
 25 26  1  0  0  0
 26 27  2  0  0  0
 27 28  1  0  0  0
 27 22  1  0  0  0
  6  1  1  0  0  0
 12  7  1  0  0  0
 19 14  1  0  0  0
 32 33  1  0  0  0
 28 29  1  0  0  0
M  END
> <Activity>
39.1

> <minimizedAffinity>
-5.69232

> <CNNscore>
0.8711547852

> <CNNaffinity>
6.0717754364

> <CNN_VS>
5.2894563675

$$$$
HIPS6101


 33 36  0  0  0  0  0  0  0  0999 V2000
   71.5119   77.7316   91.7734 C   0  0  0  0  0  0  0  0  0  0  0  0
   72.1196   77.1566   90.6480 C   0  0  0  0  0  0  0  0  0  0  0  0
   72.4655   77.9490   89.5517 C   0  0  0  0  0  0  0  0  0  0  0  0
   72.2058   79.3207   89.5663 C   0  0  0  0  0  0  0  0  0  0  0  0
   71.5850   79.9146   90.6782 C   0  0  0  0  0  0  0  0  0  0  0  0
   71.2221   79.1071   91.7705 C   0  0  0  0  0  0  0  0  0  0  0  0
   71.3330   81.3764   90.7092 C   0  0  0  0  0  0  0  0  0  0  0  0
   71.4328   82.1397   89.5322 C   0  0  0  0  0  0  0  0  0  0  0  0
   71.1601   83.5093   89.5534 C   0  0  0  0  0  0  0  0  0  0  0  0
   70.7970   84.1342   90.7480 C   0  0  0  0  0  0  0  0  0  0  0  0
   70.7183   83.3991   91.9349 C   0  0  0  0  0  0  0  0  0  0  0  0
   70.9714   82.0155   91.9092 C   0  0  0  0  0  0  0  0  0  0  0  0
   70.3423   84.0591   93.1136 O   0  0  0  0  0  0  0  0  0  0  0  0
   69.1398   84.7558   93.3024 C   0  0  0  0  0  0  0  0  0  0  0  0
   68.8527   85.8433   92.4679 C   0  0  0  0  0  0  0  0  0  0  0  0
   67.6740   86.5753   92.6420 C   0  0  0  0  0  0  0  0  0  0  0  0
   66.7809   86.2336   93.6620 C   0  0  0  0  0  0  0  0  0  0  0  0
   67.0640   85.1574   94.5069 C   0  0  0  0  0  0  0  0  0  0  0  0
   68.2409   84.4223   94.3337 C   0  0  0  0  0  0  0  0  0  0  0  0
   71.1325   76.8624   92.9473 C   0  0  0  0  0  0  0  0  0  0  0  0
   70.0099   77.3892   93.6573 O   0  0  0  0  0  0  0  0  0  0  0  0
   67.7753   74.7642   95.0299 C   0  0  0  0  0  0  0  0  0  0  0  0
   68.9169   75.5333   94.7301 C   0  0  0  0  0  0  0  0  0  0  0  0
   68.8282   76.6842   93.9408 C   0  0  0  0  0  0  0  0  0  0  0  0
   67.5741   77.0904   93.4567 C   0  0  0  0  0  0  0  0  0  0  0  0
   66.4333   76.3446   93.7505 C   0  0  0  0  0  0  0  0  0  0  0  0
   66.5215   75.1830   94.5298 C   0  0  0  0  0  0  0  0  0  0  0  0
   65.3631   74.4553   94.8041 O   0  0  0  0  0  0  0  0  0  0  0  0
   64.5379   74.7436   94.4667 H   0  0  0  0  0  0  0  0  0  0  0  0
   66.9590   73.1459   96.5783 O   0  0  0  0  0  0  0  0  0  0  0  0
   67.9160   73.5375   95.8566 C   0  0  0  0  0  0  0  0  0  0  0  0
   69.0991   72.8041   95.8529 O   0  0  0  0  0  0  0  0  0  0  0  0
   69.8202   73.0809   95.3225 H   0  0  0  0  0  0  0  0  0  0  0  0
 30 31  2  0  0  0
 31 32  1  0  0  0
 31 22  1  0  0  0
 22 23  2  0  0  0
 23 24  1  0  0  0
 24 21  1  0  0  0
 21 20  1  0  0  0
 20  1  1  0  0  0
  1  2  2  0  0  0
  2  3  1  0  0  0
  3  4  2  0  0  0
  4  5  1  0  0  0
  5  7  1  0  0  0
  7  8  2  0  0  0
  8  9  1  0  0  0
  9 10  2  0  0  0
 10 11  1  0  0  0
 11 13  1  0  0  0
 13 14  1  0  0  0
 14 15  2  0  0  0
 15 16  1  0  0  0
 16 17  2  0  0  0
 17 18  1  0  0  0
 18 19  2  0  0  0
 11 12  2  0  0  0
  5  6  2  0  0  0
 24 25  2  0  0  0
 25 26  1  0  0  0
 26 27  2  0  0  0
 27 28  1  0  0  0
 27 22  1  0  0  0
  6  1  1  0  0  0
 12  7  1  0  0  0
 19 14  1  0  0  0
 32 33  1  0  0  0
 28 29  1  0  0  0
M  END
> <Activity>
39.1

> <minimizedAffinity>
-4.46591

> <CNNscore>
0.8545280695

> <CNNaffinity>
6.0470848083

> <CNN_VS>
5.1674036980

$$$$
HIPS6101


 33 36  0  0  0  0  0  0  0  0999 V2000
   71.1428   80.1533   90.6046 C   0  0  0  0  0  0  0  0  0  0  0  0
   72.1228   79.5301   89.8186 C   0  0  0  0  0  0  0  0  0  0  0  0
   72.4835   78.2036   90.0626 C   0  0  0  0  0  0  0  0  0  0  0  0
   71.8730   77.4877   91.0942 C   0  0  0  0  0  0  0  0  0  0  0  0
   70.8988   78.0975   91.9026 C   0  0  0  0  0  0  0  0  0  0  0  0
   70.5545   79.4396   91.6631 C   0  0  0  0  0  0  0  0  0  0  0  0
   70.2275   77.3316   92.9815 C   0  0  0  0  0  0  0  0  0  0  0  0
   70.9860   76.7143   93.9922 C   0  0  0  0  0  0  0  0  0  0  0  0
   70.3531   76.0240   95.0283 C   0  0  0  0  0  0  0  0  0  0  0  0
   68.9603   75.9318   95.0620 C   0  0  0  0  0  0  0  0  0  0  0  0
   68.1884   76.5151   94.0524 C   0  0  0  0  0  0  0  0  0  0  0  0
   68.8250   77.2291   93.0209 C   0  0  0  0  0  0  0  0  0  0  0  0
   66.7921   76.4090   94.1242 O   0  0  0  0  0  0  0  0  0  0  0  0
   65.8913   77.4744   93.9814 C   0  0  0  0  0  0  0  0  0  0  0  0
   65.2730   77.9924   95.1263 C   0  0  0  0  0  0  0  0  0  0  0  0
   64.3521   79.0393   95.0195 C   0  0  0  0  0  0  0  0  0  0  0  0
   64.0320   79.5658   93.7643 C   0  0  0  0  0  0  0  0  0  0  0  0
   64.6349   79.0480   92.6152 C   0  0  0  0  0  0  0  0  0  0  0  0
   65.5577   78.0025   92.7194 C   0  0  0  0  0  0  0  0  0  0  0  0
   70.7699   81.5912   90.3380 C   0  0  0  0  0  0  0  0  0  0  0  0
   71.2803   82.4676   91.3446 O   0  0  0  0  0  0  0  0  0  0  0  0
   69.3502   85.5821   91.9296 C   0  0  0  0  0  0  0  0  0  0  0  0
   70.0826   84.5541   91.3039 C   0  0  0  0  0  0  0  0  0  0  0  0
   70.5314   83.4427   92.0242 C   0  0  0  0  0  0  0  0  0  0  0  0
   70.2271   83.3414   93.3914 C   0  0  0  0  0  0  0  0  0  0  0  0
   69.4967   84.3464   94.0242 C   0  0  0  0  0  0  0  0  0  0  0  0
   69.0578   85.4682   93.3076 C   0  0  0  0  0  0  0  0  0  0  0  0
   68.3320   86.4595   93.9688 O   0  0  0  0  0  0  0  0  0  0  0  0
   68.1446   86.3721   94.8827 H   0  0  0  0  0  0  0  0  0  0  0  0
   69.4957   87.0479   90.0553 O   0  0  0  0  0  0  0  0  0  0  0  0
   68.9081   86.7552   91.1319 C   0  0  0  0  0  0  0  0  0  0  0  0
   67.8469   87.5498   91.5559 O   0  0  0  0  0  0  0  0  0  0  0  0
   67.3990   87.3467   92.3535 H   0  0  0  0  0  0  0  0  0  0  0  0
 30 31  2  0  0  0
 31 32  1  0  0  0
 31 22  1  0  0  0
 22 23  2  0  0  0
 23 24  1  0  0  0
 24 21  1  0  0  0
 21 20  1  0  0  0
 20  1  1  0  0  0
  1  2  2  0  0  0
  2  3  1  0  0  0
  3  4  2  0  0  0
  4  5  1  0  0  0
  5  7  1  0  0  0
  7  8  2  0  0  0
  8  9  1  0  0  0
  9 10  2  0  0  0
 10 11  1  0  0  0
 11 13  1  0  0  0
 13 14  1  0  0  0
 14 15  2  0  0  0
 15 16  1  0  0  0
 16 17  2  0  0  0
 17 18  1  0  0  0
 18 19  2  0  0  0
 11 12  2  0  0  0
  5  6  2  0  0  0
 24 25  2  0  0  0
 25 26  1  0  0  0
 26 27  2  0  0  0
 27 28  1  0  0  0
 27 22  1  0  0  0
  6  1  1  0  0  0
 12  7  1  0  0  0
 19 14  1  0  0  0
 32 33  1  0  0  0
 28 29  1  0  0  0
M  END
> <Activity>
39.1

> <minimizedAffinity>
3.12167

> <CNNscore>
0.8506836295

> <CNNaffinity>
5.9766035080

> <CNN_VS>
5.0841989517

$$$$
HIPS6124


 26 29  0  0  0  0  0  0  0  0999 V2000
   68.4022   78.0090   93.0908 O   0  0  0  0  0  0  0  0  0  0  0  0
   67.2805   74.8879   94.6944 C   0  0  0  0  0  0  0  0  0  0  0  0
   68.0958   75.9176   94.2357 C   0  0  0  0  0  0  0  0  0  0  0  0
   67.5875   76.9916   93.5425 C   0  0  0  0  0  0  0  0  0  0  0  0
   66.2404   77.0964   93.2700 C   0  0  0  0  0  0  0  0  0  0  0  0
   65.4301   76.0714   93.7267 C   0  0  0  0  0  0  0  0  0  0  0  0
   65.9320   74.9815   94.4279 C   0  0  0  0  0  0  0  0  0  0  0  0
   65.0871   73.9607   94.8768 O   0  0  0  0  0  0  0  0  0  0  0  0
   64.1669   74.0052   94.7061 H   0  0  0  0  0  0  0  0  0  0  0  0
   67.2369   73.3226   96.4424 O   0  0  0  0  0  0  0  0  0  0  0  0
   67.8441   73.7558   95.4293 C   0  0  0  0  0  0  0  0  0  0  0  0
   69.0159   73.1409   95.0587 O   0  0  0  0  0  0  0  0  0  0  0  0
   69.4872   73.4445   94.3080 H   0  0  0  0  0  0  0  0  0  0  0  0
   69.7895   77.7493   93.0247 C   0  0  0  0  0  0  0  0  0  0  0  0
   70.4726   78.4698   91.9480 C   0  0  0  0  0  0  0  0  0  0  0  0
   71.3327   77.7655   91.1283 C   0  0  0  0  0  0  0  0  0  0  0  0
   72.0031   78.3959   90.0972 C   0  0  0  0  0  0  0  0  0  0  0  0
   71.7807   79.7532   89.9182 C   0  0  0  0  0  0  0  0  0  0  0  0
   70.9300   80.4823   90.7180 C   0  0  0  0  0  0  0  0  0  0  0  0
   70.2762   79.8187   91.7399 C   0  0  0  0  0  0  0  0  0  0  0  0
   72.9089   77.6180   89.2461 C   0  0  0  0  0  0  0  0  0  0  0  0
   73.9828   76.7974   89.8978 C   0  0  0  0  0  0  0  0  0  0  0  0
   74.3350   78.0507   89.2058 C   0  0  0  0  0  0  0  0  0  0  0  0
   70.7066   81.9300   90.5102 C   0  0  0  0  0  0  0  0  0  0  0  0
   71.8746   82.8358   90.6133 C   0  0  0  0  0  0  0  0  0  0  0  0
   71.2547   82.5631   89.2876 C   0  0  0  0  0  0  0  0  0  0  0  0
 10 11  2  0  0  0
 11 12  1  0  0  0
 11  2  1  0  0  0
  2  3  2  0  0  0
  3  4  1  0  0  0
  4  1  1  0  0  0
  1 14  1  0  0  0
 14 15  1  0  0  0
 15 16  2  0  0  0
 16 17  1  0  0  0
 17 21  1  0  0  0
 21 22  1  0  0  0
 22 23  1  0  0  0
 17 18  2  0  0  0
 18 19  1  0  0  0
 19 24  1  0  0  0
 24 25  1  0  0  0
 25 26  1  0  0  0
 19 20  2  0  0  0
  4  5  2  0  0  0
  5  6  1  0  0  0
  6  7  2  0  0  0
  7  8  1  0  0  0
  7  2  1  0  0  0
 20 15  1  0  0  0
 23 21  1  0  0  0
 26 24  1  0  0  0
 12 13  1  0  0  0
  8  9  1  0  0  0
M  END
> <Activity>
59.9

> <minimizedAffinity>
-0.23100

> <CNNscore>
0.9001434445

> <CNNaffinity>
5.5637598038

> <CNN_VS>
5.0081820488

$$$$
HIPS6124


 26 29  0  0  0  0  0  0  0  0999 V2000
   68.3853   77.9889   93.0659 O   0  0  0  0  0  0  0  0  0  0  0  0
   67.3866   74.8100   94.6370 C   0  0  0  0  0  0  0  0  0  0  0  0
   68.1656   75.8549   94.1507 C   0  0  0  0  0  0  0  0  0  0  0  0
   67.6062   76.9565   93.5458 C   0  0  0  0  0  0  0  0  0  0  0  0
   66.2414   77.0752   93.3938 C   0  0  0  0  0  0  0  0  0  0  0  0
   65.4671   76.0350   93.8779 C   0  0  0  0  0  0  0  0  0  0  0  0
   66.0208   74.9172   94.4908 C   0  0  0  0  0  0  0  0  0  0  0  0
   65.2115   73.8817   94.9703 O   0  0  0  0  0  0  0  0  0  0  0  0
   64.2803   73.9351   94.8808 H   0  0  0  0  0  0  0  0  0  0  0  0
   68.9913   73.0997   94.7225 O   0  0  0  0  0  0  0  0  0  0  0  0
   68.0043   73.6486   95.2766 C   0  0  0  0  0  0  0  0  0  0  0  0
   67.5500   73.1276   96.4643 O   0  0  0  0  0  0  0  0  0  0  0  0
   66.8164   73.5182   96.8971 H   0  0  0  0  0  0  0  0  0  0  0  0
   69.7869   77.8141   93.0985 C   0  0  0  0  0  0  0  0  0  0  0  0
   70.4850   78.4436   91.9753 C   0  0  0  0  0  0  0  0  0  0  0  0
   70.2477   79.7799   91.7196 C   0  0  0  0  0  0  0  0  0  0  0  0
   70.8796   80.4234   90.6724 C   0  0  0  0  0  0  0  0  0  0  0  0
   71.7552   79.6812   89.8937 C   0  0  0  0  0  0  0  0  0  0  0  0
   72.0125   78.3485   90.1233 C   0  0  0  0  0  0  0  0  0  0  0  0
   71.3623   77.7374   91.1796 C   0  0  0  0  0  0  0  0  0  0  0  0
   70.6045   81.8429   90.4290 C   0  0  0  0  0  0  0  0  0  0  0  0
   71.7620   82.7875   90.2893 C   0  0  0  0  0  0  0  0  0  0  0  0
   70.9533   82.7950   91.5221 C   0  0  0  0  0  0  0  0  0  0  0  0
   72.9504   77.5745   89.2805 C   0  0  0  0  0  0  0  0  0  0  0  0
   74.3515   78.0467   89.1851 C   0  0  0  0  0  0  0  0  0  0  0  0
   74.0305   76.8068   89.9437 C   0  0  0  0  0  0  0  0  0  0  0  0
 10 11  2  0  0  0
 11 12  1  0  0  0
 11  2  1  0  0  0
  2  3  2  0  0  0
  3  4  1  0  0  0
  4  1  1  0  0  0
  1 14  1  0  0  0
 14 15  1  0  0  0
 15 16  2  0  0  0
 16 17  1  0  0  0
 17 21  1  0  0  0
 21 22  1  0  0  0
 22 23  1  0  0  0
 17 18  2  0  0  0
 18 19  1  0  0  0
 19 24  1  0  0  0
 24 25  1  0  0  0
 25 26  1  0  0  0
 19 20  2  0  0  0
  4  5  2  0  0  0
  5  6  1  0  0  0
  6  7  2  0  0  0
  7  8  1  0  0  0
  7  2  1  0  0  0
 20 15  1  0  0  0
 23 21  1  0  0  0
 26 24  1  0  0  0
 12 13  1  0  0  0
  8  9  1  0  0  0
M  END
> <Activity>
59.9

> <minimizedAffinity>
0.00003

> <CNNscore>
0.8930749893

> <CNNaffinity>
5.5313940048

> <CNN_VS>
4.9399495125

$$$$
HIPS6124


 26 29  0  0  0  0  0  0  0  0999 V2000
   70.9152   78.6873   92.1155 O   0  0  0  0  0  0  0  0  0  0  0  0
   69.1605   76.1936   94.1827 C   0  0  0  0  0  0  0  0  0  0  0  0
   70.1695   76.8828   93.5179 C   0  0  0  0  0  0  0  0  0  0  0  0
   69.9092   78.0090   92.7720 C   0  0  0  0  0  0  0  0  0  0  0  0
   68.6302   78.5079   92.6494 C   0  0  0  0  0  0  0  0  0  0  0  0
   67.6269   77.8213   93.3111 C   0  0  0  0  0  0  0  0  0  0  0  0
   67.8776   76.6826   94.0675 C   0  0  0  0  0  0  0  0  0  0  0  0
   66.8418   76.0103   94.7252 O   0  0  0  0  0  0  0  0  0  0  0  0
   65.9622   76.3265   94.6597 H   0  0  0  0  0  0  0  0  0  0  0  0
   68.9061   73.9112   94.6661 O   0  0  0  0  0  0  0  0  0  0  0  0
   69.4617   74.9982   94.9699 C   0  0  0  0  0  0  0  0  0  0  0  0
   70.3310   75.0112   96.0343 O   0  0  0  0  0  0  0  0  0  0  0  0
   70.7577   75.8081   96.2809 H   0  0  0  0  0  0  0  0  0  0  0  0
   70.6023   79.2587   90.8617 C   0  0  0  0  0  0  0  0  0  0  0  0
   70.7921   80.7101   90.8124 C   0  0  0  0  0  0  0  0  0  0  0  0
   70.5501   81.4439   91.9571 C   0  0  0  0  0  0  0  0  0  0  0  0
   70.7134   82.8162   91.9661 C   0  0  0  0  0  0  0  0  0  0  0  0
   71.1268   83.4241   90.7899 C   0  0  0  0  0  0  0  0  0  0  0  0
   71.3759   82.7204   89.6332 C   0  0  0  0  0  0  0  0  0  0  0  0
   71.2020   81.3488   89.6611 C   0  0  0  0  0  0  0  0  0  0  0  0
   70.4477   83.5645   93.1988 C   0  0  0  0  0  0  0  0  0  0  0  0
   69.0445   83.6050   93.7288 C   0  0  0  0  0  0  0  0  0  0  0  0
   69.6167   84.7960   93.0748 C   0  0  0  0  0  0  0  0  0  0  0  0
   71.8162   83.3881   88.3886 C   0  0  0  0  0  0  0  0  0  0  0  0
   71.6283   84.8539   88.2818 C   0  0  0  0  0  0  0  0  0  0  0  0
   72.9944   84.2853   88.4446 C   0  0  0  0  0  0  0  0  0  0  0  0
 10 11  2  0  0  0
 11 12  1  0  0  0
 11  2  1  0  0  0
  2  3  2  0  0  0
  3  4  1  0  0  0
  4  1  1  0  0  0
  1 14  1  0  0  0
 14 15  1  0  0  0
 15 16  2  0  0  0
 16 17  1  0  0  0
 17 21  1  0  0  0
 21 22  1  0  0  0
 22 23  1  0  0  0
 17 18  2  0  0  0
 18 19  1  0  0  0
 19 24  1  0  0  0
 24 25  1  0  0  0
 25 26  1  0  0  0
 19 20  2  0  0  0
  4  5  2  0  0  0
  5  6  1  0  0  0
  6  7  2  0  0  0
  7  8  1  0  0  0
  7  2  1  0  0  0
 20 15  1  0  0  0
 23 21  1  0  0  0
 26 24  1  0  0  0
 12 13  1  0  0  0
  8  9  1  0  0  0
M  END
> <Activity>
59.9

> <minimizedAffinity>
0.72957

> <CNNscore>
0.8658190370

> <CNNaffinity>
5.4159393311

> <CNN_VS>
4.6892232895

$$$$
HIPS7757 (IAE-158)


 38 41  0  0  0  0  0  0  0  0999 V2000
   71.0206   80.8609   90.5198 C   0  0  0  0  0  0  0  0  0  0  0  0
   71.2738   81.4751   89.2838 C   0  0  0  0  0  0  0  0  0  0  0  0
   71.3494   82.8669   89.1937 C   0  0  0  0  0  0  0  0  0  0  0  0
   71.1888   83.6553   90.3357 C   0  0  0  0  0  0  0  0  0  0  0  0
   70.9589   83.0515   91.5873 C   0  0  0  0  0  0  0  0  0  0  0  0
   70.8692   81.6565   91.6662 C   0  0  0  0  0  0  0  0  0  0  0  0
   70.9682   79.3615   90.6309 C   0  0  0  0  0  0  0  0  0  0  0  0
   70.2878   78.9760   91.8755 N   0  0  0  0  0  0  0  0  0  0  0  0
   70.5542   79.6281   92.6132 H   0  0  0  0  0  0  0  0  0  0  0  0
   70.6488   77.6020   92.2963 C   0  0  0  0  0  0  0  0  0  0  0  0
   72.1157   77.3405   92.0646 C   0  0  0  0  0  0  0  0  0  0  0  0
   72.9640   77.7261   92.9160 O   0  0  0  0  0  0  0  0  0  0  0  0
   73.2222   77.3365   89.8515 C   0  0  0  0  0  0  0  0  0  0  0  0
   72.5249   76.6792   90.9026 O   0  0  0  0  0  0  0  0  0  0  0  0
   70.3413   77.4088   93.7938 C   0  0  0  0  0  0  0  0  0  0  0  0
   69.0540   76.6584   94.0162 C   0  0  0  0  0  0  0  0  0  0  0  0
   69.0381   75.4850   94.7885 C   0  0  0  0  0  0  0  0  0  0  0  0
   67.8345   74.8164   95.0290 C   0  0  0  0  0  0  0  0  0  0  0  0
   66.6343   75.3158   94.5053 C   0  0  0  0  0  0  0  0  0  0  0  0
   65.4287   74.6616   94.7457 O   0  0  0  0  0  0  0  0  0  0  0  0
   66.6457   76.4841   93.7368 C   0  0  0  0  0  0  0  0  0  0  0  0
   67.8486   77.1530   93.4906 C   0  0  0  0  0  0  0  0  0  0  0  0
   65.4151   73.8784   95.2599 H   0  0  0  0  0  0  0  0  0  0  0  0
   70.8265   83.7921   92.7737 O   0  0  0  0  0  0  0  0  0  0  0  0
   69.7545   83.6601   93.7098 C   0  0  0  0  0  0  0  0  0  0  0  0
   68.8073   84.8450   93.6405 C   0  0  0  0  0  0  0  0  0  0  0  0
   69.0125   85.8049   92.6339 C   0  0  0  0  0  0  0  0  0  0  0  0
   68.1672   86.9034   92.5119 C   0  0  0  0  0  0  0  0  0  0  0  0
   67.1180   87.0807   93.4069 C   0  0  0  0  0  0  0  0  0  0  0  0
   66.9121   86.1717   94.4539 C   0  0  0  0  0  0  0  0  0  0  0  0
   67.7653   85.0417   94.5905 C   0  0  0  0  0  0  0  0  0  0  0  0
   67.5422   84.0243   95.6904 C   0  0  0  0  0  0  0  0  0  0  0  0
   65.8027   86.4465   95.3893 C   0  0  0  0  0  0  0  0  0  0  0  0
   66.0068   87.2448   96.5233 C   0  0  0  0  0  0  0  0  0  0  0  0
   64.9427   87.5124   97.3864 C   0  0  0  0  0  0  0  0  0  0  0  0
   63.6811   86.9867   97.0994 C   0  0  0  0  0  0  0  0  0  0  0  0
   63.4963   86.2243   95.9889 N   0  0  0  0  0  0  0  0  0  0  0  0
   64.5173   85.9483   95.1335 C   0  0  0  0  0  0  0  0  0  0  0  0
 13 14  1  0  0  0
 14 11  1  0  0  0
 11 12  2  0  0  0
 11 10  1  0  0  0
 10 15  1  0  0  0
 15 16  1  0  0  0
 16 17  2  0  0  0
 17 18  1  0  0  0
 18 19  2  0  0  0
 19 20  1  0  0  0
 19 21  1  0  0  0
 21 22  2  0  0  0
 10  8  1  0  0  0
  8  7  1  0  0  0
  7  1  1  0  0  0
  1  2  2  0  0  0
  2  3  1  0  0  0
  3  4  2  0  0  0
  4  5  1  0  0  0
  5 24  1  0  0  0
 24 25  1  0  0  0
 25 26  1  0  0  0
 26 27  2  0  0  0
 27 28  1  0  0  0
 28 29  2  0  0  0
 29 30  1  0  0  0
 30 33  1  0  0  0
 33 34  2  0  0  0
 34 35  1  0  0  0
 35 36  2  0  0  0
 36 37  2  0  0  0
 37 38  2  0  0  0
 30 31  2  0  0  0
 31 32  1  0  0  0
  5  6  2  0  0  0
 22 16  1  0  0  0
  6  1  1  0  0  0
 31 26  1  0  0  0
 38 33  1  0  0  0
 20 23  1  0  0  0
  8  9  1  0  0  0
M  END
> <Activity>
60.5

> <minimizedAffinity>
-3.03060

> <CNNscore>
0.8996342421

> <CNNaffinity>
6.6666469574

> <CNN_VS>
5.9975438118

$$$$
HIPS7757 (IAE-158)


 38 41  0  0  0  0  0  0  0  0999 V2000
   67.2755   75.2806   94.3773 C   0  0  0  0  0  0  0  0  0  0  0  0
   65.9511   75.7440   94.3682 C   0  0  0  0  0  0  0  0  0  0  0  0
   65.6547   77.0134   93.8667 C   0  0  0  0  0  0  0  0  0  0  0  0
   66.6724   77.8235   93.3570 C   0  0  0  0  0  0  0  0  0  0  0  0
   68.0029   77.3616   93.3369 C   0  0  0  0  0  0  0  0  0  0  0  0
   68.2935   76.0940   93.8556 C   0  0  0  0  0  0  0  0  0  0  0  0
   67.5990   73.9026   94.8871 C   0  0  0  0  0  0  0  0  0  0  0  0
   68.1472   73.0824   93.7974 N   0  0  0  0  0  0  0  0  0  0  0  0
   67.5496   72.2664   93.6656 H   0  0  0  0  0  0  0  0  0  0  0  0
   69.5251   72.6253   94.0934 C   0  0  0  0  0  0  0  0  0  0  0  0
   69.9155   72.9849   95.5048 C   0  0  0  0  0  0  0  0  0  0  0  0
   70.3476   74.1429   95.7607 O   0  0  0  0  0  0  0  0  0  0  0  0
   68.6783   71.9594   97.3862 C   0  0  0  0  0  0  0  0  0  0  0  0
   69.8030   72.0281   96.5183 O   0  0  0  0  0  0  0  0  0  0  0  0
   69.6234   71.0966   93.9260 C   0  0  0  0  0  0  0  0  0  0  0  0
   70.9295   70.6771   93.3033 C   0  0  0  0  0  0  0  0  0  0  0  0
   72.1404   71.2374   93.7431 C   0  0  0  0  0  0  0  0  0  0  0  0
   73.3534   70.8130   93.1934 C   0  0  0  0  0  0  0  0  0  0  0  0
   73.3696   69.8215   92.2032 C   0  0  0  0  0  0  0  0  0  0  0  0
   74.5733   69.3861   91.6548 O   0  0  0  0  0  0  0  0  0  0  0  0
   72.1665   69.2605   91.7634 C   0  0  0  0  0  0  0  0  0  0  0  0
   70.9509   69.6858   92.3080 C   0  0  0  0  0  0  0  0  0  0  0  0
   75.3825   69.7584   91.9456 H   0  0  0  0  0  0  0  0  0  0  0  0
   69.0600   78.1176   92.8034 O   0  0  0  0  0  0  0  0  0  0  0  0
   70.4436   77.7691   92.8868 C   0  0  0  0  0  0  0  0  0  0  0  0
   71.2176   78.2752   91.6823 C   0  0  0  0  0  0  0  0  0  0  0  0
   71.9366   77.3439   90.9123 C   0  0  0  0  0  0  0  0  0  0  0  0
   72.6513   77.7470   89.7886 C   0  0  0  0  0  0  0  0  0  0  0  0
   72.6856   79.0890   89.4262 C   0  0  0  0  0  0  0  0  0  0  0  0
   72.0224   80.0533   90.1978 C   0  0  0  0  0  0  0  0  0  0  0  0
   71.2844   79.6574   91.3476 C   0  0  0  0  0  0  0  0  0  0  0  0
   70.5281   80.6743   92.1774 C   0  0  0  0  0  0  0  0  0  0  0  0
   72.1365   81.4637   89.7746 C   0  0  0  0  0  0  0  0  0  0  0  0
   73.2891   82.2056   90.0677 C   0  0  0  0  0  0  0  0  0  0  0  0
   73.3900   83.5314   89.6424 C   0  0  0  0  0  0  0  0  0  0  0  0
   72.3397   84.0985   88.9175 C   0  0  0  0  0  0  0  0  0  0  0  0
   71.2333   83.3620   88.6304 N   0  0  0  0  0  0  0  0  0  0  0  0
   71.1106   82.0691   89.0348 C   0  0  0  0  0  0  0  0  0  0  0  0
 13 14  1  0  0  0
 14 11  1  0  0  0
 11 12  2  0  0  0
 11 10  1  0  0  0
 10 15  1  0  0  0
 15 16  1  0  0  0
 16 17  2  0  0  0
 17 18  1  0  0  0
 18 19  2  0  0  0
 19 20  1  0  0  0
 19 21  1  0  0  0
 21 22  2  0  0  0
 10  8  1  0  0  0
  8  7  1  0  0  0
  7  1  1  0  0  0
  1  2  2  0  0  0
  2  3  1  0  0  0
  3  4  2  0  0  0
  4  5  1  0  0  0
  5 24  1  0  0  0
 24 25  1  0  0  0
 25 26  1  0  0  0
 26 27  2  0  0  0
 27 28  1  0  0  0
 28 29  2  0  0  0
 29 30  1  0  0  0
 30 33  1  0  0  0
 33 34  2  0  0  0
 34 35  1  0  0  0
 35 36  2  0  0  0
 36 37  2  0  0  0
 37 38  2  0  0  0
 30 31  2  0  0  0
 31 32  1  0  0  0
  5  6  2  0  0  0
 22 16  1  0  0  0
  6  1  1  0  0  0
 31 26  1  0  0  0
 38 33  1  0  0  0
 20 23  1  0  0  0
  8  9  1  0  0  0
M  END
> <Activity>
60.5

> <minimizedAffinity>
0.15076

> <CNNscore>
0.8918390870

> <CNNaffinity>
6.4495639801

> <CNN_VS>
5.7519731522

$$$$
HIPS7757 (IAE-158)


 38 41  0  0  0  0  0  0  0  0999 V2000
   71.0459   78.0580   91.9926 C   0  0  0  0  0  0  0  0  0  0  0  0
   71.8821   77.3585   91.1092 C   0  0  0  0  0  0  0  0  0  0  0  0
   72.3207   77.9640   89.9294 C   0  0  0  0  0  0  0  0  0  0  0  0
   71.9423   79.2748   89.6289 C   0  0  0  0  0  0  0  0  0  0  0  0
   71.1236   79.9977   90.5183 C   0  0  0  0  0  0  0  0  0  0  0  0
   70.6758   79.3780   91.6912 C   0  0  0  0  0  0  0  0  0  0  0  0
   70.5943   77.4242   93.2801 C   0  0  0  0  0  0  0  0  0  0  0  0
   69.2524   76.8489   93.1102 N   0  0  0  0  0  0  0  0  0  0  0  0
   68.9115   77.0760   92.1761 H   0  0  0  0  0  0  0  0  0  0  0  0
   68.2969   77.3778   94.1114 C   0  0  0  0  0  0  0  0  0  0  0  0
   66.9768   77.7137   93.4644 C   0  0  0  0  0  0  0  0  0  0  0  0
   66.4318   76.8852   92.6836 O   0  0  0  0  0  0  0  0  0  0  0  0
   65.0796   79.0545   94.3159 C   0  0  0  0  0  0  0  0  0  0  0  0
   66.3707   78.9456   93.7293 O   0  0  0  0  0  0  0  0  0  0  0  0
   68.0553   76.3321   95.2171 C   0  0  0  0  0  0  0  0  0  0  0  0
   68.4638   74.9472   94.7870 C   0  0  0  0  0  0  0  0  0  0  0  0
   69.6760   74.3926   95.2302 C   0  0  0  0  0  0  0  0  0  0  0  0
   70.0302   73.0909   94.8646 C   0  0  0  0  0  0  0  0  0  0  0  0
   69.1752   72.3284   94.0574 C   0  0  0  0  0  0  0  0  0  0  0  0
   69.5151   71.0278   93.6940 O   0  0  0  0  0  0  0  0  0  0  0  0
   67.9670   72.8765   93.6149 C   0  0  0  0  0  0  0  0  0  0  0  0
   67.6117   74.1800   93.9752 C   0  0  0  0  0  0  0  0  0  0  0  0
   70.3232   70.6554   93.9876 H   0  0  0  0  0  0  0  0  0  0  0  0
   70.7423   81.3297   90.2856 O   0  0  0  0  0  0  0  0  0  0  0  0
   71.4885   82.4805   90.6874 C   0  0  0  0  0  0  0  0  0  0  0  0
   70.7513   83.2779   91.7488 C   0  0  0  0  0  0  0  0  0  0  0  0
   70.6450   82.7312   93.0399 C   0  0  0  0  0  0  0  0  0  0  0  0
   69.9946   83.4232   94.0568 C   0  0  0  0  0  0  0  0  0  0  0  0
   69.4145   84.6606   93.8002 C   0  0  0  0  0  0  0  0  0  0  0  0
   69.4565   85.2150   92.5134 C   0  0  0  0  0  0  0  0  0  0  0  0
   70.1204   84.5219   91.4635 C   0  0  0  0  0  0  0  0  0  0  0  0
   70.2127   85.1158   90.0730 C   0  0  0  0  0  0  0  0  0  0  0  0
   68.7840   86.5135   92.3066 C   0  0  0  0  0  0  0  0  0  0  0  0
   69.4402   87.7137   92.6128 C   0  0  0  0  0  0  0  0  0  0  0  0
   68.7984   88.9335   92.3919 C   0  0  0  0  0  0  0  0  0  0  0  0
   67.5090   88.9402   91.8556 C   0  0  0  0  0  0  0  0  0  0  0  0
   66.8904   87.7680   91.5523 N   0  0  0  0  0  0  0  0  0  0  0  0
   67.4939   86.5668   91.7596 C   0  0  0  0  0  0  0  0  0  0  0  0
 13 14  1  0  0  0
 14 11  1  0  0  0
 11 12  2  0  0  0
 11 10  1  0  0  0
 10 15  1  0  0  0
 15 16  1  0  0  0
 16 17  2  0  0  0
 17 18  1  0  0  0
 18 19  2  0  0  0
 19 20  1  0  0  0
 19 21  1  0  0  0
 21 22  2  0  0  0
 10  8  1  0  0  0
  8  7  1  0  0  0
  7  1  1  0  0  0
  1  2  2  0  0  0
  2  3  1  0  0  0
  3  4  2  0  0  0
  4  5  1  0  0  0
  5 24  1  0  0  0
 24 25  1  0  0  0
 25 26  1  0  0  0
 26 27  2  0  0  0
 27 28  1  0  0  0
 28 29  2  0  0  0
 29 30  1  0  0  0
 30 33  1  0  0  0
 33 34  2  0  0  0
 34 35  1  0  0  0
 35 36  2  0  0  0
 36 37  2  0  0  0
 37 38  2  0  0  0
 30 31  2  0  0  0
 31 32  1  0  0  0
  5  6  2  0  0  0
 22 16  1  0  0  0
  6  1  1  0  0  0
 31 26  1  0  0  0
 38 33  1  0  0  0
 20 23  1  0  0  0
  8  9  1  0  0  0
M  END
> <Activity>
60.5

> <minimizedAffinity>
0.52706

> <CNNscore>
0.8882900476

> <CNNaffinity>
6.4006376266

> <CNN_VS>
5.6856226921

$$$$
HIPS6547


 36 38  0  0  0  0  0  0  0  0999 V2000
   71.7091   80.1953   90.4929 C   0  0  0  0  0  0  0  0  0  0  0  0
   72.2967   79.4840   89.4385 C   0  0  0  0  0  0  0  0  0  0  0  0
   72.4090   78.0933   89.5124 C   0  0  0  0  0  0  0  0  0  0  0  0
   71.9096   77.4061   90.6234 C   0  0  0  0  0  0  0  0  0  0  0  0
   71.2941   78.1078   91.6714 C   0  0  0  0  0  0  0  0  0  0  0  0
   71.2262   79.5082   91.6135 C   0  0  0  0  0  0  0  0  0  0  0  0
   70.4151   81.7088   92.6911 C   0  0  0  0  0  0  0  0  0  0  0  0
   70.8816   82.3828   91.4278 C   0  0  0  0  0  0  0  0  0  0  0  0
   70.6149   83.7478   91.2297 C   0  0  0  0  0  0  0  0  0  0  0  0
   70.9859   84.3786   90.0387 C   0  0  0  0  0  0  0  0  0  0  0  0
   71.6398   83.6579   89.0338 C   0  0  0  0  0  0  0  0  0  0  0  0
   71.9368   82.3044   89.2321 C   0  0  0  0  0  0  0  0  0  0  0  0
   71.5354   81.6541   90.4080 C   0  0  0  0  0  0  0  0  0  0  0  0
   72.0269   84.4424   87.5068 S   0  0  0  0  0  0  0  0  0  0  0  0
   73.4995   84.2609   87.2703 O   0  0  0  0  0  0  0  0  0  0  0  0
   71.2978   83.7729   86.3746 O   0  0  0  0  0  0  0  0  0  0  0  0
   71.6860   86.1573   87.5241 N   0  0  0  0  0  0  0  0  0  0  0  0
   70.8081   86.2895   88.0264 H   0  0  0  0  0  0  0  0  0  0  0  0
   72.6955   87.0501   88.1493 C   0  0  0  0  0  0  0  0  0  0  0  0
   73.6272   87.6590   87.0792 C   0  0  0  0  0  0  0  0  0  0  0  0
   71.9344   88.2178   88.8154 C   0  0  0  0  0  0  0  0  0  0  0  0
   73.5249   86.3375   89.2387 C   0  0  0  0  0  0  0  0  0  0  0  0
   70.7195   77.3687   92.8537 C   0  0  0  0  0  0  0  0  0  0  0  0
   69.4039   77.8360   93.1639 O   0  0  0  0  0  0  0  0  0  0  0  0
   68.3371   77.0277   93.5908 C   0  0  0  0  0  0  0  0  0  0  0  0
   66.9966   77.3364   93.3049 C   0  0  0  0  0  0  0  0  0  0  0  0
   65.9717   76.5243   93.7904 C   0  0  0  0  0  0  0  0  0  0  0  0
   66.2596   75.3939   94.5629 C   0  0  0  0  0  0  0  0  0  0  0  0
   65.1842   74.6774   95.0984 O   0  0  0  0  0  0  0  0  0  0  0  0
   67.6079   75.0386   94.8096 C   0  0  0  0  0  0  0  0  0  0  0  0
   68.6312   75.8782   94.3327 C   0  0  0  0  0  0  0  0  0  0  0  0
   64.3051   74.9432   94.9125 H   0  0  0  0  0  0  0  0  0  0  0  0
   67.9801   73.7997   95.5229 C   0  0  0  0  0  0  0  0  0  0  0  0
   69.0839   73.2409   95.2825 O   0  0  0  0  0  0  0  0  0  0  0  0
   67.0988   73.2111   96.4256 O   0  0  0  0  0  0  0  0  0  0  0  0
   66.2758   73.6192   96.6107 H   0  0  0  0  0  0  0  0  0  0  0  0
  7  8  1  0  0  0
  8  9  2  0  0  0
  9 10  1  0  0  0
 10 11  2  0  0  0
 11 14  1  0  0  0
 14 15  2  0  0  0
 14 16  2  0  0  0
 14 17  1  0  0  0
 17 19  1  0  0  0
 19 20  1  0  0  0
 19 21  1  0  0  0
 19 22  1  0  0  0
 11 12  1  0  0  0
 12 13  2  0  0  0
 13  1  1  0  0  0
  1  2  2  0  0  0
  2  3  1  0  0  0
  3  4  2  0  0  0
  4  5  1  0  0  0
  5 23  1  0  0  0
 23 24  1  0  0  0
 24 25  1  0  0  0
 25 26  2  0  0  0
 26 27  1  0  0  0
 27 28  2  0  0  0
 28 29  1  0  0  0
 28 30  1  0  0  0
 30 33  1  0  0  0
 33 34  2  0  0  0
 33 35  1  0  0  0
 30 31  2  0  0  0
  5  6  2  0  0  0
 13  8  1  0  0  0
  6  1  1  0  0  0
 31 25  1  0  0  0
 17 18  1  0  0  0
 29 32  1  0  0  0
 35 36  1  0  0  0
M  END
> <Activity>
66.6

> <minimizedAffinity>
-1.39831

> <CNNscore>
0.8857555985

> <CNNaffinity>
6.3996438980

> <CNN_VS>
5.6685204506

$$$$
HIPS6547


 36 38  0  0  0  0  0  0  0  0999 V2000
   70.6757   78.9470   91.6155 C   0  0  0  0  0  0  0  0  0  0  0  0
   71.3677   78.4635   90.4972 C   0  0  0  0  0  0  0  0  0  0  0  0
   71.8187   79.3524   89.5181 C   0  0  0  0  0  0  0  0  0  0  0  0
   71.6070   80.7269   89.6657 C   0  0  0  0  0  0  0  0  0  0  0  0
   70.9396   81.2226   90.7964 C   0  0  0  0  0  0  0  0  0  0  0  0
   70.4476   80.3217   91.7533 C   0  0  0  0  0  0  0  0  0  0  0  0
   72.6532   77.5305   93.3127 C   0  0  0  0  0  0  0  0  0  0  0  0
   71.1710   77.3151   93.4691 C   0  0  0  0  0  0  0  0  0  0  0  0
   70.7013   76.3470   94.3724 C   0  0  0  0  0  0  0  0  0  0  0  0
   69.3324   76.0893   94.4892 C   0  0  0  0  0  0  0  0  0  0  0  0
   68.4123   76.8036   93.7146 C   0  0  0  0  0  0  0  0  0  0  0  0
   68.8668   77.7909   92.8325 C   0  0  0  0  0  0  0  0  0  0  0  0
   70.2403   78.0306   92.6813 C   0  0  0  0  0  0  0  0  0  0  0  0
   66.6993   76.4120   93.8103 S   0  0  0  0  0  0  0  0  0  0  0  0
   66.4875   75.1372   93.0437 O   0  0  0  0  0  0  0  0  0  0  0  0
   66.2994   76.1571   95.2375 O   0  0  0  0  0  0  0  0  0  0  0  0
   65.6844   77.6475   93.1026 N   0  0  0  0  0  0  0  0  0  0  0  0
   64.8148   77.1999   92.8130 H   0  0  0  0  0  0  0  0  0  0  0  0
   65.3245   78.8097   93.9551 C   0  0  0  0  0  0  0  0  0  0  0  0
   66.5512   79.7167   94.1925 C   0  0  0  0  0  0  0  0  0  0  0  0
   64.2768   79.6441   93.1854 C   0  0  0  0  0  0  0  0  0  0  0  0
   64.7020   78.3873   95.3030 C   0  0  0  0  0  0  0  0  0  0  0  0
   70.7425   82.7065   90.9796 C   0  0  0  0  0  0  0  0  0  0  0  0
   70.7853   83.0651   92.3634 O   0  0  0  0  0  0  0  0  0  0  0  0
   69.9493   84.0101   92.9813 C   0  0  0  0  0  0  0  0  0  0  0  0
   69.5060   83.8711   94.3072 C   0  0  0  0  0  0  0  0  0  0  0  0
   68.6404   84.8154   94.8593 C   0  0  0  0  0  0  0  0  0  0  0  0
   68.2042   85.9118   94.1075 C   0  0  0  0  0  0  0  0  0  0  0  0
   67.2629   86.7686   94.6877 O   0  0  0  0  0  0  0  0  0  0  0  0
   68.6889   86.0954   92.7899 C   0  0  0  0  0  0  0  0  0  0  0  0
   69.5440   85.1242   92.2377 C   0  0  0  0  0  0  0  0  0  0  0  0
   66.9659   86.6146   95.5629 H   0  0  0  0  0  0  0  0  0  0  0  0
   68.3542   87.2877   91.9844 C   0  0  0  0  0  0  0  0  0  0  0  0
   67.1980   87.7856   92.0453 O   0  0  0  0  0  0  0  0  0  0  0  0
   69.2911   87.8402   91.1155 O   0  0  0  0  0  0  0  0  0  0  0  0
   70.1531   87.4768   91.0634 H   0  0  0  0  0  0  0  0  0  0  0  0
  7  8  1  0  0  0
  8  9  2  0  0  0
  9 10  1  0  0  0
 10 11  2  0  0  0
 11 14  1  0  0  0
 14 15  2  0  0  0
 14 16  2  0  0  0
 14 17  1  0  0  0
 17 19  1  0  0  0
 19 20  1  0  0  0
 19 21  1  0  0  0
 19 22  1  0  0  0
 11 12  1  0  0  0
 12 13  2  0  0  0
 13  1  1  0  0  0
  1  2  2  0  0  0
  2  3  1  0  0  0
  3  4  2  0  0  0
  4  5  1  0  0  0
  5 23  1  0  0  0
 23 24  1  0  0  0
 24 25  1  0  0  0
 25 26  2  0  0  0
 26 27  1  0  0  0
 27 28  2  0  0  0
 28 29  1  0  0  0
 28 30  1  0  0  0
 30 33  1  0  0  0
 33 34  2  0  0  0
 33 35  1  0  0  0
 30 31  2  0  0  0
  5  6  2  0  0  0
 13  8  1  0  0  0
  6  1  1  0  0  0
 31 25  1  0  0  0
 17 18  1  0  0  0
 29 32  1  0  0  0
 35 36  1  0  0  0
M  END
> <Activity>
66.6

> <minimizedAffinity>
3.77609

> <CNNscore>
0.8635444641

> <CNNaffinity>
6.4301090240

> <CNN_VS>
5.5526852608

$$$$
HIPS6547


 36 38  0  0  0  0  0  0  0  0999 V2000
   71.2552   80.4721   90.8940 C   0  0  0  0  0  0  0  0  0  0  0  0
   71.9345   79.9829   89.7705 C   0  0  0  0  0  0  0  0  0  0  0  0
   72.2185   78.6189   89.6663 C   0  0  0  0  0  0  0  0  0  0  0  0
   71.8004   77.7357   90.6668 C   0  0  0  0  0  0  0  0  0  0  0  0
   71.0946   78.2129   91.7821 C   0  0  0  0  0  0  0  0  0  0  0  0
   70.8534   79.5898   91.9045 C   0  0  0  0  0  0  0  0  0  0  0  0
   71.8735   82.3574   88.6893 C   0  0  0  0  0  0  0  0  0  0  0  0
   71.2295   82.8155   89.9711 C   0  0  0  0  0  0  0  0  0  0  0  0
   70.9993   84.1854   90.1818 C   0  0  0  0  0  0  0  0  0  0  0  0
   70.4581   84.6373   91.3887 C   0  0  0  0  0  0  0  0  0  0  0  0
   70.1273   83.7265   92.3975 C   0  0  0  0  0  0  0  0  0  0  0  0
   70.3251   82.3568   92.1874 C   0  0  0  0  0  0  0  0  0  0  0  0
   70.9020   81.8971   90.9947 C   0  0  0  0  0  0  0  0  0  0  0  0
   69.5247   84.3148   93.9427 S   0  0  0  0  0  0  0  0  0  0  0  0
   68.4294   83.3842   94.3804 O   0  0  0  0  0  0  0  0  0  0  0  0
   70.6101   84.2619   94.9824 O   0  0  0  0  0  0  0  0  0  0  0  0
   68.8580   85.9279   93.8367 N   0  0  0  0  0  0  0  0  0  0  0  0
   68.7138   86.1347   92.8484 H   0  0  0  0  0  0  0  0  0  0  0  0
   67.5737   86.1855   94.5376 C   0  0  0  0  0  0  0  0  0  0  0  0
   67.6468   85.7168   96.0069 C   0  0  0  0  0  0  0  0  0  0  0  0
   67.3508   87.7141   94.5525 C   0  0  0  0  0  0  0  0  0  0  0  0
   66.3682   85.5341   93.8269 C   0  0  0  0  0  0  0  0  0  0  0  0
   70.6078   77.2600   92.8449 C   0  0  0  0  0  0  0  0  0  0  0  0
   69.3200   77.6463   93.3326 O   0  0  0  0  0  0  0  0  0  0  0  0
   68.2924   76.7599   93.6961 C   0  0  0  0  0  0  0  0  0  0  0  0
   66.9588   76.9478   93.2961 C   0  0  0  0  0  0  0  0  0  0  0  0
   65.9683   76.0625   93.7214 C   0  0  0  0  0  0  0  0  0  0  0  0
   66.2848   74.9774   94.5459 C   0  0  0  0  0  0  0  0  0  0  0  0
   65.2322   74.1840   95.0143 O   0  0  0  0  0  0  0  0  0  0  0  0
   67.6332   74.7429   94.9088 C   0  0  0  0  0  0  0  0  0  0  0  0
   68.6191   75.6556   94.4911 C   0  0  0  0  0  0  0  0  0  0  0  0
   64.3522   74.3705   94.7518 H   0  0  0  0  0  0  0  0  0  0  0  0
   68.0472   73.5555   95.6840 C   0  0  0  0  0  0  0  0  0  0  0  0
   67.2791   73.0752   96.5603 O   0  0  0  0  0  0  0  0  0  0  0  0
   69.3040   72.9884   95.4923 O   0  0  0  0  0  0  0  0  0  0  0  0
   69.8819   73.3386   94.8432 H   0  0  0  0  0  0  0  0  0  0  0  0
  7  8  1  0  0  0
  8  9  2  0  0  0
  9 10  1  0  0  0
 10 11  2  0  0  0
 11 14  1  0  0  0
 14 15  2  0  0  0
 14 16  2  0  0  0
 14 17  1  0  0  0
 17 19  1  0  0  0
 19 20  1  0  0  0
 19 21  1  0  0  0
 19 22  1  0  0  0
 11 12  1  0  0  0
 12 13  2  0  0  0
 13  1  1  0  0  0
  1  2  2  0  0  0
  2  3  1  0  0  0
  3  4  2  0  0  0
  4  5  1  0  0  0
  5 23  1  0  0  0
 23 24  1  0  0  0
 24 25  1  0  0  0
 25 26  2  0  0  0
 26 27  1  0  0  0
 27 28  2  0  0  0
 28 29  1  0  0  0
 28 30  1  0  0  0
 30 33  1  0  0  0
 33 34  2  0  0  0
 33 35  1  0  0  0
 30 31  2  0  0  0
  5  6  2  0  0  0
 13  8  1  0  0  0
  6  1  1  0  0  0
 31 25  1  0  0  0
 17 18  1  0  0  0
 29 32  1  0  0  0
 35 36  1  0  0  0
M  END
> <Activity>
66.6

> <minimizedAffinity>
-1.15531

> <CNNscore>
0.8592085838

> <CNNaffinity>
6.2613773346

> <CNN_VS>
5.3798289299

$$$$
HIPS6245


 35 37  0  0  0  0  0  0  0  0999 V2000
   69.9221   77.4156   93.1032 C   0  0  0  0  0  0  0  0  0  0  0  0
   70.6619   76.8974   94.1804 C   0  0  0  0  0  0  0  0  0  0  0  0
   70.0337   76.1297   95.1637 C   0  0  0  0  0  0  0  0  0  0  0  0
   68.6674   75.8553   95.0740 C   0  0  0  0  0  0  0  0  0  0  0  0
   67.9138   76.3602   94.0044 C   0  0  0  0  0  0  0  0  0  0  0  0
   68.5418   77.1573   93.0339 C   0  0  0  0  0  0  0  0  0  0  0  0
   71.2298   80.3087   91.0274 C   0  0  0  0  0  0  0  0  0  0  0  0
   71.9764   79.6309   90.0559 C   0  0  0  0  0  0  0  0  0  0  0  0
   72.0261   78.2352   90.0570 C   0  0  0  0  0  0  0  0  0  0  0  0
   71.3441   77.5087   91.0367 C   0  0  0  0  0  0  0  0  0  0  0  0
   70.5944   78.1750   92.0219 C   0  0  0  0  0  0  0  0  0  0  0  0
   70.5347   79.5795   92.0020 C   0  0  0  0  0  0  0  0  0  0  0  0
   71.2333   82.0708   91.0716 S   0  0  0  0  0  0  0  0  0  0  0  0
   70.6593   82.6254   89.7962 O   0  0  0  0  0  0  0  0  0  0  0  0
   72.6513   82.5529   91.1941 O   0  0  0  0  0  0  0  0  0  0  0  0
   70.3510   82.6202   92.4115 O   0  0  0  0  0  0  0  0  0  0  0  0
   70.2430   84.0250   92.3427 C   0  0  0  0  0  0  0  0  0  0  0  0
   68.8282   85.9275   93.2329 C   0  0  0  0  0  0  0  0  0  0  0  0
   69.4741   84.5685   93.5696 C   0  0  0  0  0  0  0  0  0  0  0  0
   70.4387   84.7374   94.7609 C   0  0  0  0  0  0  0  0  0  0  0  0
   68.3678   83.5659   93.9546 C   0  0  0  0  0  0  0  0  0  0  0  0
   66.4589   75.9950   93.8760 C   0  0  0  0  0  0  0  0  0  0  0  0
   66.2622   74.6162   94.1954 O   0  0  0  0  0  0  0  0  0  0  0  0
   67.0456   73.5501   93.7204 C   0  0  0  0  0  0  0  0  0  0  0  0
   66.5647   72.8097   92.6376 C   0  0  0  0  0  0  0  0  0  0  0  0
   67.2903   71.7268   92.1410 C   0  0  0  0  0  0  0  0  0  0  0  0
   68.5166   71.3672   92.7171 C   0  0  0  0  0  0  0  0  0  0  0  0
   69.2119   70.2672   92.2144 O   0  0  0  0  0  0  0  0  0  0  0  0
   69.0313   72.1146   93.8002 C   0  0  0  0  0  0  0  0  0  0  0  0
   68.2869   73.2066   94.2886 C   0  0  0  0  0  0  0  0  0  0  0  0
   68.8604   69.7793   91.4957 H   0  0  0  0  0  0  0  0  0  0  0  0
   70.3342   71.7769   94.4303 C   0  0  0  0  0  0  0  0  0  0  0  0
   71.3256   72.5434   94.2863 O   0  0  0  0  0  0  0  0  0  0  0  0
   70.4851   70.6126   95.1800 O   0  0  0  0  0  0  0  0  0  0  0  0
   69.7582   70.0328   95.2964 H   0  0  0  0  0  0  0  0  0  0  0  0
 18 19  1  0  0  0
 19 20  1  0  0  0
 19 21  1  0  0  0
 19 17  1  0  0  0
 17 16  1  0  0  0
 16 13  1  0  0  0
 13 14  2  0  0  0
 13 15  2  0  0  0
 13  7  1  0  0  0
  7  8  2  0  0  0
  8  9  1  0  0  0
  9 10  2  0  0  0
 10 11  1  0  0  0
 11  1  1  0  0  0
  1  2  2  0  0  0
  2  3  1  0  0  0
  3  4  2  0  0  0
  4  5  1  0  0  0
  5 22  1  0  0  0
 22 23  1  0  0  0
 23 24  1  0  0  0
 24 25  2  0  0  0
 25 26  1  0  0  0
 26 27  2  0  0  0
 27 28  1  0  0  0
 27 29  1  0  0  0
 29 32  1  0  0  0
 32 33  2  0  0  0
 32 34  1  0  0  0
 29 30  2  0  0  0
  5  6  2  0  0  0
 11 12  2  0  0  0
 12  7  1  0  0  0
  6  1  1  0  0  0
 30 24  1  0  0  0
 28 31  1  0  0  0
 34 35  1  0  0  0
M  END
> <Activity>
91.6

> <minimizedAffinity>
3.34613

> <CNNscore>
0.9578158855

> <CNNaffinity>
6.4244804382

> <CNN_VS>
6.1534695625

$$$$
HIPS6245


 35 37  0  0  0  0  0  0  0  0999 V2000
   69.7927   78.0905   92.6595 C   0  0  0  0  0  0  0  0  0  0  0  0
   70.3460   77.1893   93.5856 C   0  0  0  0  0  0  0  0  0  0  0  0
   69.5300   76.5477   94.5202 C   0  0  0  0  0  0  0  0  0  0  0  0
   68.1536   76.7830   94.5295 C   0  0  0  0  0  0  0  0  0  0  0  0
   67.5829   77.6757   93.6105 C   0  0  0  0  0  0  0  0  0  0  0  0
   68.4098   78.3426   92.6923 C   0  0  0  0  0  0  0  0  0  0  0  0
   71.4749   80.7336   90.5209 C   0  0  0  0  0  0  0  0  0  0  0  0
   72.3465   79.9497   89.7552 C   0  0  0  0  0  0  0  0  0  0  0  0
   72.3621   78.5618   89.9111 C   0  0  0  0  0  0  0  0  0  0  0  0
   71.5194   77.9502   90.8430 C   0  0  0  0  0  0  0  0  0  0  0  0
   70.6422   78.7241   91.6229 C   0  0  0  0  0  0  0  0  0  0  0  0
   70.6199   80.1187   91.4460 C   0  0  0  0  0  0  0  0  0  0  0  0
   71.5136   82.4901   90.3791 S   0  0  0  0  0  0  0  0  0  0  0  0
   71.3311   82.9014   88.9435 O   0  0  0  0  0  0  0  0  0  0  0  0
   72.8544   82.9873   90.8407 O   0  0  0  0  0  0  0  0  0  0  0  0
   70.3094   83.1785   91.3547 O   0  0  0  0  0  0  0  0  0  0  0  0
   70.7846   83.2566   92.6805 C   0  0  0  0  0  0  0  0  0  0  0  0
   68.5933   83.1813   93.9479 C   0  0  0  0  0  0  0  0  0  0  0  0
   69.7996   84.0604   93.5611 C   0  0  0  0  0  0  0  0  0  0  0  0
   69.3061   85.3046   92.7952 C   0  0  0  0  0  0  0  0  0  0  0  0
   70.5257   84.5129   94.8438 C   0  0  0  0  0  0  0  0  0  0  0  0
   66.0895   77.8637   93.5787 C   0  0  0  0  0  0  0  0  0  0  0  0
   65.4275   76.6478   93.9320 O   0  0  0  0  0  0  0  0  0  0  0  0
   66.0114   75.5744   94.6269 C   0  0  0  0  0  0  0  0  0  0  0  0
   65.7487   75.4528   95.9937 C   0  0  0  0  0  0  0  0  0  0  0  0
   66.3211   74.4201   96.7365 C   0  0  0  0  0  0  0  0  0  0  0  0
   67.1649   73.4843   96.1223 C   0  0  0  0  0  0  0  0  0  0  0  0
   67.7408   72.4737   96.8926 O   0  0  0  0  0  0  0  0  0  0  0  0
   67.4282   73.5767   94.7371 C   0  0  0  0  0  0  0  0  0  0  0  0
   66.8407   74.6246   94.0010 C   0  0  0  0  0  0  0  0  0  0  0  0
   67.5587   72.4227   97.8103 H   0  0  0  0  0  0  0  0  0  0  0  0
   68.3046   72.5972   94.0436 C   0  0  0  0  0  0  0  0  0  0  0  0
   69.4538   72.3426   94.4970 O   0  0  0  0  0  0  0  0  0  0  0  0
   67.8787   71.9524   92.8846 O   0  0  0  0  0  0  0  0  0  0  0  0
   67.0278   72.1306   92.5351 H   0  0  0  0  0  0  0  0  0  0  0  0
 18 19  1  0  0  0
 19 20  1  0  0  0
 19 21  1  0  0  0
 19 17  1  0  0  0
 17 16  1  0  0  0
 16 13  1  0  0  0
 13 14  2  0  0  0
 13 15  2  0  0  0
 13  7  1  0  0  0
  7  8  2  0  0  0
  8  9  1  0  0  0
  9 10  2  0  0  0
 10 11  1  0  0  0
 11  1  1  0  0  0
  1  2  2  0  0  0
  2  3  1  0  0  0
  3  4  2  0  0  0
  4  5  1  0  0  0
  5 22  1  0  0  0
 22 23  1  0  0  0
 23 24  1  0  0  0
 24 25  2  0  0  0
 25 26  1  0  0  0
 26 27  2  0  0  0
 27 28  1  0  0  0
 27 29  1  0  0  0
 29 32  1  0  0  0
 32 33  2  0  0  0
 32 34  1  0  0  0
 29 30  2  0  0  0
  5  6  2  0  0  0
 11 12  2  0  0  0
 12  7  1  0  0  0
  6  1  1  0  0  0
 30 24  1  0  0  0
 28 31  1  0  0  0
 34 35  1  0  0  0
M  END
> <Activity>
91.6

> <minimizedAffinity>
1.26358

> <CNNscore>
0.9464564323

> <CNNaffinity>
6.6015520096

> <CNN_VS>
6.2480812073

$$$$
HIPS6245


 35 37  0  0  0  0  0  0  0  0999 V2000
   69.9517   78.1411   92.5073 C   0  0  0  0  0  0  0  0  0  0  0  0
   70.4948   77.2260   93.4258 C   0  0  0  0  0  0  0  0  0  0  0  0
   69.6791   76.6179   94.3827 C   0  0  0  0  0  0  0  0  0  0  0  0
   68.3122   76.9008   94.4222 C   0  0  0  0  0  0  0  0  0  0  0  0
   67.7515   77.8080   93.5113 C   0  0  0  0  0  0  0  0  0  0  0  0
   68.5795   78.4410   92.5703 C   0  0  0  0  0  0  0  0  0  0  0  0
   71.7133   80.7130   90.3460 C   0  0  0  0  0  0  0  0  0  0  0  0
   72.5023   79.8905   89.5329 C   0  0  0  0  0  0  0  0  0  0  0  0
   72.4356   78.5017   89.6651 C   0  0  0  0  0  0  0  0  0  0  0  0
   71.5930   77.9268   90.6202 C   0  0  0  0  0  0  0  0  0  0  0  0
   70.7984   78.7394   91.4477 C   0  0  0  0  0  0  0  0  0  0  0  0
   70.8580   80.1358   91.2948 C   0  0  0  0  0  0  0  0  0  0  0  0
   71.8582   82.4660   90.2318 S   0  0  0  0  0  0  0  0  0  0  0  0
   73.2608   82.8960   90.5657 O   0  0  0  0  0  0  0  0  0  0  0  0
   70.9264   83.0983   91.2267 O   0  0  0  0  0  0  0  0  0  0  0  0
   71.4300   82.9843   88.6750 O   0  0  0  0  0  0  0  0  0  0  0  0
   72.3879   83.9164   88.2241 C   0  0  0  0  0  0  0  0  0  0  0  0
   70.7613   85.6867   89.0204 C   0  0  0  0  0  0  0  0  0  0  0  0
   71.7108   85.2640   87.8814 C   0  0  0  0  0  0  0  0  0  0  0  0
   70.9135   85.1318   86.5680 C   0  0  0  0  0  0  0  0  0  0  0  0
   72.7982   86.3428   87.7048 C   0  0  0  0  0  0  0  0  0  0  0  0
   66.2652   78.0475   93.5126 C   0  0  0  0  0  0  0  0  0  0  0  0
   65.5647   76.8250   93.7504 O   0  0  0  0  0  0  0  0  0  0  0  0
   66.0619   75.7291   94.4769 C   0  0  0  0  0  0  0  0  0  0  0  0
   65.7305   75.6304   95.8305 C   0  0  0  0  0  0  0  0  0  0  0  0
   66.2160   74.5761   96.6042 C   0  0  0  0  0  0  0  0  0  0  0  0
   67.0399   73.5954   96.0345 C   0  0  0  0  0  0  0  0  0  0  0  0
   67.5287   72.5631   96.8356 O   0  0  0  0  0  0  0  0  0  0  0  0
   67.3712   73.6648   94.6626 C   0  0  0  0  0  0  0  0  0  0  0  0
   66.8711   74.7351   93.8948 C   0  0  0  0  0  0  0  0  0  0  0  0
   67.3021   72.5277   97.7441 H   0  0  0  0  0  0  0  0  0  0  0  0
   68.2290   72.6383   94.0154 C   0  0  0  0  0  0  0  0  0  0  0  0
   69.3730   72.3828   94.4813 O   0  0  0  0  0  0  0  0  0  0  0  0
   67.7914   71.9499   92.8862 O   0  0  0  0  0  0  0  0  0  0  0  0
   66.9442   72.1281   92.5279 H   0  0  0  0  0  0  0  0  0  0  0  0
 18 19  1  0  0  0
 19 20  1  0  0  0
 19 21  1  0  0  0
 19 17  1  0  0  0
 17 16  1  0  0  0
 16 13  1  0  0  0
 13 14  2  0  0  0
 13 15  2  0  0  0
 13  7  1  0  0  0
  7  8  2  0  0  0
  8  9  1  0  0  0
  9 10  2  0  0  0
 10 11  1  0  0  0
 11  1  1  0  0  0
  1  2  2  0  0  0
  2  3  1  0  0  0
  3  4  2  0  0  0
  4  5  1  0  0  0
  5 22  1  0  0  0
 22 23  1  0  0  0
 23 24  1  0  0  0
 24 25  2  0  0  0
 25 26  1  0  0  0
 26 27  2  0  0  0
 27 28  1  0  0  0
 27 29  1  0  0  0
 29 32  1  0  0  0
 32 33  2  0  0  0
 32 34  1  0  0  0
 29 30  2  0  0  0
  5  6  2  0  0  0
 11 12  2  0  0  0
 12  7  1  0  0  0
  6  1  1  0  0  0
 30 24  1  0  0  0
 28 31  1  0  0  0
 34 35  1  0  0  0
M  END
> <Activity>
91.6

> <minimizedAffinity>
-1.21953

> <CNNscore>
0.9110071659

> <CNNaffinity>
6.3495435715

> <CNN_VS>
5.7844796181

$$$$
HIPS6247


 35 37  0  0  0  0  0  0  0  0999 V2000
   70.2019   77.5425   92.8850 C   0  0  0  0  0  0  0  0  0  0  0  0
   70.8938   76.9710   93.9681 C   0  0  0  0  0  0  0  0  0  0  0  0
   70.1940   76.3709   95.0175 C   0  0  0  0  0  0  0  0  0  0  0  0
   68.7988   76.3291   94.9982 C   0  0  0  0  0  0  0  0  0  0  0  0
   68.0909   76.8787   93.9197 C   0  0  0  0  0  0  0  0  0  0  0  0
   68.7952   77.4968   92.8739 C   0  0  0  0  0  0  0  0  0  0  0  0
   71.6547   80.2033   90.5946 C   0  0  0  0  0  0  0  0  0  0  0  0
   72.3372   79.4139   89.6597 C   0  0  0  0  0  0  0  0  0  0  0  0
   72.3230   78.0227   89.7755 C   0  0  0  0  0  0  0  0  0  0  0  0
   71.6298   77.4115   90.8234 C   0  0  0  0  0  0  0  0  0  0  0  0
   70.9439   78.1896   91.7736 C   0  0  0  0  0  0  0  0  0  0  0  0
   70.9673   79.5910   91.6510 C   0  0  0  0  0  0  0  0  0  0  0  0
   71.6395   81.9579   90.4502 S   0  0  0  0  0  0  0  0  0  0  0  0
   70.5869   82.4767   91.3888 O   0  0  0  0  0  0  0  0  0  0  0  0
   72.9599   82.5332   90.8825 O   0  0  0  0  0  0  0  0  0  0  0  0
   71.2438   82.4994   88.8340 N   0  0  0  0  0  0  0  0  0  0  0  0
   71.6204   81.8132   88.1801 H   0  0  0  0  0  0  0  0  0  0  0  0
   71.5135   84.1209   86.9208 C   0  0  0  0  0  0  0  0  0  0  0  0
   71.7486   83.8347   88.4202 C   0  0  0  0  0  0  0  0  0  0  0  0
   73.2715   83.8581   88.6800 C   0  0  0  0  0  0  0  0  0  0  0  0
   71.1158   84.9504   89.2780 C   0  0  0  0  0  0  0  0  0  0  0  0
   66.5903   76.8727   93.9219 C   0  0  0  0  0  0  0  0  0  0  0  0
   66.1286   75.5542   94.2014 O   0  0  0  0  0  0  0  0  0  0  0  0
   66.8198   74.3809   93.8644 C   0  0  0  0  0  0  0  0  0  0  0  0
   66.2800   73.5571   92.8746 C   0  0  0  0  0  0  0  0  0  0  0  0
   66.9337   72.3850   92.4948 C   0  0  0  0  0  0  0  0  0  0  0  0
   68.1417   72.0150   93.0951 C   0  0  0  0  0  0  0  0  0  0  0  0
   68.7847   70.8730   92.6129 O   0  0  0  0  0  0  0  0  0  0  0  0
   68.6837   72.8158   94.1299 C   0  0  0  0  0  0  0  0  0  0  0  0
   68.0239   74.0062   94.4893 C   0  0  0  0  0  0  0  0  0  0  0  0
   68.3931   70.3694   91.9266 H   0  0  0  0  0  0  0  0  0  0  0  0
   69.9002   72.4259   94.8763 C   0  0  0  0  0  0  0  0  0  0  0  0
   71.0212   72.4255   94.2991 O   0  0  0  0  0  0  0  0  0  0  0  0
   69.8309   72.1163   96.2315 O   0  0  0  0  0  0  0  0  0  0  0  0
   69.0028   72.1138   96.6698 H   0  0  0  0  0  0  0  0  0  0  0  0
 18 19  1  0  0  0
 19 20  1  0  0  0
 19 21  1  0  0  0
 19 16  1  0  0  0
 16 13  1  0  0  0
 13 14  2  0  0  0
 13 15  2  0  0  0
 13  7  1  0  0  0
  7  8  2  0  0  0
  8  9  1  0  0  0
  9 10  2  0  0  0
 10 11  1  0  0  0
 11  1  1  0  0  0
  1  2  2  0  0  0
  2  3  1  0  0  0
  3  4  2  0  0  0
  4  5  1  0  0  0
  5 22  1  0  0  0
 22 23  1  0  0  0
 23 24  1  0  0  0
 24 25  2  0  0  0
 25 26  1  0  0  0
 26 27  2  0  0  0
 27 28  1  0  0  0
 27 29  1  0  0  0
 29 32  1  0  0  0
 32 33  2  0  0  0
 32 34  1  0  0  0
 29 30  2  0  0  0
  5  6  2  0  0  0
 11 12  2  0  0  0
 12  7  1  0  0  0
  6  1  1  0  0  0
 30 24  1  0  0  0
 16 17  1  0  0  0
 28 31  1  0  0  0
 34 35  1  0  0  0
M  END
> <Activity>
95.2

> <minimizedAffinity>
-0.03210

> <CNNscore>
0.9377035499

> <CNNaffinity>
6.4412574768

> <CNN_VS>
6.0399899483

$$$$
HIPS6247


 35 37  0  0  0  0  0  0  0  0999 V2000
   69.9807   78.0605   92.5404 C   0  0  0  0  0  0  0  0  0  0  0  0
   70.4441   77.1254   93.4834 C   0  0  0  0  0  0  0  0  0  0  0  0
   69.5815   76.6141   94.4558 C   0  0  0  0  0  0  0  0  0  0  0  0
   68.2478   77.0243   94.4974 C   0  0  0  0  0  0  0  0  0  0  0  0
   67.7622   77.9434   93.5561 C   0  0  0  0  0  0  0  0  0  0  0  0
   68.6349   78.4695   92.5900 C   0  0  0  0  0  0  0  0  0  0  0  0
   71.8384   80.5233   90.3223 C   0  0  0  0  0  0  0  0  0  0  0  0
   72.6273   79.6562   89.5549 C   0  0  0  0  0  0  0  0  0  0  0  0
   72.5530   78.2772   89.7592 C   0  0  0  0  0  0  0  0  0  0  0  0
   71.6937   77.7556   90.7296 C   0  0  0  0  0  0  0  0  0  0  0  0
   70.8989   78.6125   91.5124 C   0  0  0  0  0  0  0  0  0  0  0  0
   70.9834   80.0010   91.3019 C   0  0  0  0  0  0  0  0  0  0  0  0
   71.8990   82.2633   90.0611 S   0  0  0  0  0  0  0  0  0  0  0  0
   70.9971   82.9020   91.0793 O   0  0  0  0  0  0  0  0  0  0  0  0
   73.2908   82.7827   90.2946 O   0  0  0  0  0  0  0  0  0  0  0  0
   71.3393   82.7275   88.4694 N   0  0  0  0  0  0  0  0  0  0  0  0
   71.6702   82.0226   87.8106 H   0  0  0  0  0  0  0  0  0  0  0  0
   71.3036   85.2196   88.8574 C   0  0  0  0  0  0  0  0  0  0  0  0
   71.7689   84.0547   87.9564 C   0  0  0  0  0  0  0  0  0  0  0  0
   71.1322   84.2434   86.5614 C   0  0  0  0  0  0  0  0  0  0  0  0
   73.3006   84.1036   87.7762 C   0  0  0  0  0  0  0  0  0  0  0  0
   66.3402   78.4171   93.6298 C   0  0  0  0  0  0  0  0  0  0  0  0
   65.4823   77.2943   93.8116 O   0  0  0  0  0  0  0  0  0  0  0  0
   65.8670   76.0888   94.4170 C   0  0  0  0  0  0  0  0  0  0  0  0
   65.6420   75.9359   95.7866 C   0  0  0  0  0  0  0  0  0  0  0  0
   65.9958   74.7525   96.4346 C   0  0  0  0  0  0  0  0  0  0  0  0
   66.5788   73.6973   95.7252 C   0  0  0  0  0  0  0  0  0  0  0  0
   66.8347   72.5115   96.4168 O   0  0  0  0  0  0  0  0  0  0  0  0
   66.8530   73.8490   94.3439 C   0  0  0  0  0  0  0  0  0  0  0  0
   66.4726   75.0409   93.6988 C   0  0  0  0  0  0  0  0  0  0  0  0
   66.6391   72.4509   97.3312 H   0  0  0  0  0  0  0  0  0  0  0  0
   67.5622   72.8135   93.5606 C   0  0  0  0  0  0  0  0  0  0  0  0
   68.6627   72.3553   93.9715 O   0  0  0  0  0  0  0  0  0  0  0  0
   66.9972   72.2921   92.4003 O   0  0  0  0  0  0  0  0  0  0  0  0
   66.1798   72.6256   92.0865 H   0  0  0  0  0  0  0  0  0  0  0  0
 18 19  1  0  0  0
 19 20  1  0  0  0
 19 21  1  0  0  0
 19 16  1  0  0  0
 16 13  1  0  0  0
 13 14  2  0  0  0
 13 15  2  0  0  0
 13  7  1  0  0  0
  7  8  2  0  0  0
  8  9  1  0  0  0
  9 10  2  0  0  0
 10 11  1  0  0  0
 11  1  1  0  0  0
  1  2  2  0  0  0
  2  3  1  0  0  0
  3  4  2  0  0  0
  4  5  1  0  0  0
  5 22  1  0  0  0
 22 23  1  0  0  0
 23 24  1  0  0  0
 24 25  2  0  0  0
 25 26  1  0  0  0
 26 27  2  0  0  0
 27 28  1  0  0  0
 27 29  1  0  0  0
 29 32  1  0  0  0
 32 33  2  0  0  0
 32 34  1  0  0  0
 29 30  2  0  0  0
  5  6  2  0  0  0
 11 12  2  0  0  0
 12  7  1  0  0  0
  6  1  1  0  0  0
 30 24  1  0  0  0
 16 17  1  0  0  0
 28 31  1  0  0  0
 34 35  1  0  0  0
M  END
> <Activity>
95.2

> <minimizedAffinity>
-0.64823

> <CNNscore>
0.8877138495

> <CNNaffinity>
6.2742137909

> <CNN_VS>
5.5697064400

$$$$
HIPS6247


 35 37  0  0  0  0  0  0  0  0999 V2000
   70.6999   78.0467   91.9960 C   0  0  0  0  0  0  0  0  0  0  0  0
   71.6108   77.3991   91.1419 C   0  0  0  0  0  0  0  0  0  0  0  0
   72.2380   78.1032   90.1115 C   0  0  0  0  0  0  0  0  0  0  0  0
   71.9691   79.4600   89.9227 C   0  0  0  0  0  0  0  0  0  0  0  0
   71.0766   80.1278   90.7735 C   0  0  0  0  0  0  0  0  0  0  0  0
   70.4338   79.4145   91.7980 C   0  0  0  0  0  0  0  0  0  0  0  0
   67.9866   76.4374   94.1137 C   0  0  0  0  0  0  0  0  0  0  0  0
   68.7450   75.8905   95.1572 C   0  0  0  0  0  0  0  0  0  0  0  0
   70.1323   76.0463   95.1700 C   0  0  0  0  0  0  0  0  0  0  0  0
   70.7706   76.7465   94.1433 C   0  0  0  0  0  0  0  0  0  0  0  0
   70.0246   77.2973   93.0854 C   0  0  0  0  0  0  0  0  0  0  0  0
   68.6275   77.1317   93.0790 C   0  0  0  0  0  0  0  0  0  0  0  0
   66.2338   76.2738   94.0939 S   0  0  0  0  0  0  0  0  0  0  0  0
   65.9133   74.9513   93.4565 O   0  0  0  0  0  0  0  0  0  0  0  0
   65.6915   76.2478   95.4963 O   0  0  0  0  0  0  0  0  0  0  0  0
   65.4483   77.5315   93.1649 N   0  0  0  0  0  0  0  0  0  0  0  0
   66.0301   77.7181   92.3482 H   0  0  0  0  0  0  0  0  0  0  0  0
   64.3323   79.7879   93.0051 C   0  0  0  0  0  0  0  0  0  0  0  0
   65.2047   78.8301   93.8458 C   0  0  0  0  0  0  0  0  0  0  0  0
   66.5772   79.5034   94.0700 C   0  0  0  0  0  0  0  0  0  0  0  0
   64.5650   78.6108   95.2328 C   0  0  0  0  0  0  0  0  0  0  0  0
   70.7547   81.5750   90.5416 C   0  0  0  0  0  0  0  0  0  0  0  0
   71.1452   82.3298   91.6851 O   0  0  0  0  0  0  0  0  0  0  0  0
   70.4447   83.4380   92.1842 C   0  0  0  0  0  0  0  0  0  0  0  0
   70.1973   84.5070   91.3207 C   0  0  0  0  0  0  0  0  0  0  0  0
   69.4954   85.6277   91.7643 C   0  0  0  0  0  0  0  0  0  0  0  0
   69.0242   85.7003   93.0793 C   0  0  0  0  0  0  0  0  0  0  0  0
   68.2600   86.8133   93.4359 O   0  0  0  0  0  0  0  0  0  0  0  0
   69.3011   84.6444   93.9818 C   0  0  0  0  0  0  0  0  0  0  0  0
   69.9932   83.5108   93.5153 C   0  0  0  0  0  0  0  0  0  0  0  0
   68.0991   87.4913   92.8095 H   0  0  0  0  0  0  0  0  0  0  0  0
   68.9232   84.7065   95.4108 C   0  0  0  0  0  0  0  0  0  0  0  0
   69.4291   85.5861   96.1593 O   0  0  0  0  0  0  0  0  0  0  0  0
   67.9651   83.8398   95.9285 O   0  0  0  0  0  0  0  0  0  0  0  0
   67.5830   83.1826   95.3807 H   0  0  0  0  0  0  0  0  0  0  0  0
 18 19  1  0  0  0
 19 20  1  0  0  0
 19 21  1  0  0  0
 19 16  1  0  0  0
 16 13  1  0  0  0
 13 14  2  0  0  0
 13 15  2  0  0  0
 13  7  1  0  0  0
  7  8  2  0  0  0
  8  9  1  0  0  0
  9 10  2  0  0  0
 10 11  1  0  0  0
 11  1  1  0  0  0
  1  2  2  0  0  0
  2  3  1  0  0  0
  3  4  2  0  0  0
  4  5  1  0  0  0
  5 22  1  0  0  0
 22 23  1  0  0  0
 23 24  1  0  0  0
 24 25  2  0  0  0
 25 26  1  0  0  0
 26 27  2  0  0  0
 27 28  1  0  0  0
 27 29  1  0  0  0
 29 32  1  0  0  0
 32 33  2  0  0  0
 32 34  1  0  0  0
 29 30  2  0  0  0
  5  6  2  0  0  0
 11 12  2  0  0  0
 12  7  1  0  0  0
  6  1  1  0  0  0
 30 24  1  0  0  0
 16 17  1  0  0  0
 28 31  1  0  0  0
 34 35  1  0  0  0
M  END
> <Activity>
95.2

> <minimizedAffinity>
1.70884

> <CNNscore>
0.8764785528

> <CNNaffinity>
6.3187398911

> <CNN_VS>
5.5382399559

$$$$
HIPS6897


 30 33  0  0  0  0  0  0  0  0999 V2000
   69.1219   77.7852   93.3171 C   0  0  0  0  0  0  0  0  0  0  0  0
   70.1226   77.4449   92.6194 N   0  0  0  0  0  0  0  0  0  0  0  0
   67.5811   74.7292   94.8280 C   0  0  0  0  0  0  0  0  0  0  0  0
   68.5040   75.7019   94.4459 C   0  0  0  0  0  0  0  0  0  0  0  0
   68.1441   76.7926   93.6988 C   0  0  0  0  0  0  0  0  0  0  0  0
   66.8307   76.9277   93.3163 C   0  0  0  0  0  0  0  0  0  0  0  0
   65.8756   75.9690   93.6826 C   0  0  0  0  0  0  0  0  0  0  0  0
   66.2746   74.8893   94.4321 C   0  0  0  0  0  0  0  0  0  0  0  0
   65.3719   73.8940   94.8326 O   0  0  0  0  0  0  0  0  0  0  0  0
   64.4691   73.9550   94.5892 H   0  0  0  0  0  0  0  0  0  0  0  0
   69.2075   72.9261   95.2474 N   0  0  0  0  0  0  0  0  0  0  0  0
   68.0219   73.6004   95.6170 C   0  0  0  0  0  0  0  0  0  0  0  0
   67.3602   73.2335   96.6078 O   0  0  0  0  0  0  0  0  0  0  0  0
   69.5205   72.1559   95.7746 H   0  0  0  0  0  0  0  0  0  0  0  0
   69.7204   73.2266   94.4626 H   0  0  0  0  0  0  0  0  0  0  0  0
   71.1412   78.2548   92.1709 N   0  0  0  0  0  0  0  0  0  0  0  0
   71.5496   78.3496   90.8061 C   0  0  0  0  0  0  0  0  0  0  0  0
   70.8987   77.6229   90.0146 O   0  0  0  0  0  0  0  0  0  0  0  0
   71.6188   78.8039   92.8339 H   0  0  0  0  0  0  0  0  0  0  0  0
   72.6299   79.2108   90.3429 C   0  0  0  0  0  0  0  0  0  0  0  0
   72.3935   80.6762   90.3691 C   0  0  0  0  0  0  0  0  0  0  0  0
   73.4611   81.3803   89.5026 C   0  0  0  0  0  0  0  0  0  0  0  0
   73.1735   82.8365   89.3809 C   0  0  0  0  0  0  0  0  0  0  0  0
   73.1879   83.4670   90.7363 C   0  0  0  0  0  0  0  0  0  0  0  0
   72.1454   82.7830   91.5833 C   0  0  0  0  0  0  0  0  0  0  0  0
   70.8041   83.0502   90.9568 C   0  0  0  0  0  0  0  0  0  0  0  0
   70.7793   82.4432   89.5681 C   0  0  0  0  0  0  0  0  0  0  0  0
   71.8429   82.9775   88.6685 C   0  0  0  0  0  0  0  0  0  0  0  0
   71.0183   80.9484   89.7634 C   0  0  0  0  0  0  0  0  0  0  0  0
   72.4464   81.3001   91.7138 C   0  0  0  0  0  0  0  0  0  0  0  0
 11 12  1  0  0  0
 12 13  2  0  0  0
 12  3  1  0  0  0
  3  4  2  0  0  0
  4  5  1  0  0  0
  5  1  1  0  0  0
  1  2  2  0  0  0
  2 16  1  0  0  0
 16 17  1  0  0  0
 17 18  2  0  0  0
 17 20  1  0  0  0
 21 20  1  0  0  0
 21 22  1  0  0  0
 23 22  1  0  0  0
 23 24  1  0  0  0
 25 24  1  0  0  0
 25 26  1  0  0  0
 27 26  1  0  0  0
 27 28  1  0  0  0
 27 29  1  0  0  0
 25 30  1  0  0  0
  5  6  2  0  0  0
  6  7  1  0  0  0
  7  8  2  0  0  0
  8  9  1  0  0  0
  8  3  1  0  0  0
 29 21  1  0  0  0
 30 21  1  0  0  0
 28 23  1  0  0  0
 11 14  1  0  0  0
 11 15  1  0  0  0
 16 19  1  0  0  0
  9 10  1  0  0  0
M  END
> <Activity>
116.0

> <minimizedAffinity>
0.18905

> <CNNscore>
0.9013966322

> <CNNaffinity>
5.8446302414

> <CNN_VS>
5.2683300972

$$$$
HIPS6897


 30 33  0  0  0  0  0  0  0  0999 V2000
   68.9800   77.5454   93.3154 C   0  0  0  0  0  0  0  0  0  0  0  0
   70.0616   77.3364   92.6905 N   0  0  0  0  0  0  0  0  0  0  0  0
   68.4721   74.2794   95.0680 C   0  0  0  0  0  0  0  0  0  0  0  0
   69.0542   75.3365   94.3695 C   0  0  0  0  0  0  0  0  0  0  0  0
   68.3511   76.4652   94.0397 C   0  0  0  0  0  0  0  0  0  0  0  0
   67.0305   76.5537   94.4112 C   0  0  0  0  0  0  0  0  0  0  0  0
   66.4127   75.5100   95.1143 C   0  0  0  0  0  0  0  0  0  0  0  0
   67.1503   74.3942   95.4271 C   0  0  0  0  0  0  0  0  0  0  0  0
   66.5953   73.3144   96.1281 O   0  0  0  0  0  0  0  0  0  0  0  0
   65.6980   73.3416   96.3966 H   0  0  0  0  0  0  0  0  0  0  0  0
   69.9844   72.4692   94.3549 N   0  0  0  0  0  0  0  0  0  0  0  0
   69.2664   73.1140   95.3872 C   0  0  0  0  0  0  0  0  0  0  0  0
   69.3122   72.6903   96.5588 O   0  0  0  0  0  0  0  0  0  0  0  0
   70.5296   71.6747   94.5566 H   0  0  0  0  0  0  0  0  0  0  0  0
   69.9394   72.8145   93.4341 H   0  0  0  0  0  0  0  0  0  0  0  0
   70.7891   78.2443   91.9551 N   0  0  0  0  0  0  0  0  0  0  0  0
   71.8977   77.8996   91.1241 C   0  0  0  0  0  0  0  0  0  0  0  0
   72.1761   76.6747   91.1061 O   0  0  0  0  0  0  0  0  0  0  0  0
   70.5283   79.1923   92.0054 H   0  0  0  0  0  0  0  0  0  0  0  0
   72.6609   78.8699   90.3498 C   0  0  0  0  0  0  0  0  0  0  0  0
   72.2056   80.2825   90.3868 C   0  0  0  0  0  0  0  0  0  0  0  0
   72.3498   80.8269   91.8252 C   0  0  0  0  0  0  0  0  0  0  0  0
   72.0442   82.2836   91.8771 C   0  0  0  0  0  0  0  0  0  0  0  0
   70.6365   82.5184   91.4323 C   0  0  0  0  0  0  0  0  0  0  0  0
   70.4937   81.9897   90.0279 C   0  0  0  0  0  0  0  0  0  0  0  0
   71.4049   82.7967   89.1438 C   0  0  0  0  0  0  0  0  0  0  0  0
   72.8370   82.5950   89.5975 C   0  0  0  0  0  0  0  0  0  0  0  0
   73.0709   82.9928   91.0163 C   0  0  0  0  0  0  0  0  0  0  0  0
   73.1085   81.0989   89.4647 C   0  0  0  0  0  0  0  0  0  0  0  0
   70.7964   80.5022   89.9794 C   0  0  0  0  0  0  0  0  0  0  0  0
 11 12  1  0  0  0
 12 13  2  0  0  0
 12  3  1  0  0  0
  3  4  2  0  0  0
  4  5  1  0  0  0
  5  1  1  0  0  0
  1  2  2  0  0  0
  2 16  1  0  0  0
 16 17  1  0  0  0
 17 18  2  0  0  0
 17 20  1  0  0  0
 21 20  1  0  0  0
 21 22  1  0  0  0
 23 22  1  0  0  0
 23 24  1  0  0  0
 25 24  1  0  0  0
 25 26  1  0  0  0
 27 26  1  0  0  0
 27 28  1  0  0  0
 27 29  1  0  0  0
 25 30  1  0  0  0
  5  6  2  0  0  0
  6  7  1  0  0  0
  7  8  2  0  0  0
  8  9  1  0  0  0
  8  3  1  0  0  0
 29 21  1  0  0  0
 30 21  1  0  0  0
 28 23  1  0  0  0
 11 14  1  0  0  0
 11 15  1  0  0  0
 16 19  1  0  0  0
  9 10  1  0  0  0
M  END
> <Activity>
116.0

> <minimizedAffinity>
-0.94626

> <CNNscore>
0.8998588920

> <CNNaffinity>
6.0677270889

> <CNN_VS>
5.4600982666

$$$$
HIPS6897


 30 33  0  0  0  0  0  0  0  0999 V2000
   70.0153   77.1835   93.7249 C   0  0  0  0  0  0  0  0  0  0  0  0
   71.1034   76.9465   93.1216 N   0  0  0  0  0  0  0  0  0  0  0  0
   67.2442   75.0646   95.0767 C   0  0  0  0  0  0  0  0  0  0  0  0
   67.9457   76.0903   94.4443 C   0  0  0  0  0  0  0  0  0  0  0  0
   69.3145   76.1077   94.3871 C   0  0  0  0  0  0  0  0  0  0  0  0
   70.0138   75.0795   94.9731 C   0  0  0  0  0  0  0  0  0  0  0  0
   69.3414   74.0317   95.6176 C   0  0  0  0  0  0  0  0  0  0  0  0
   67.9684   74.0491   95.6543 C   0  0  0  0  0  0  0  0  0  0  0  0
   67.2333   73.0335   96.2819 O   0  0  0  0  0  0  0  0  0  0  0  0
   67.6782   72.3177   96.6913 H   0  0  0  0  0  0  0  0  0  0  0  0
   65.0741   74.0150   94.5656 N   0  0  0  0  0  0  0  0  0  0  0  0
   65.7989   75.1021   95.1039 C   0  0  0  0  0  0  0  0  0  0  0  0
   65.2080   76.0829   95.5969 O   0  0  0  0  0  0  0  0  0  0  0  0
   64.0897   74.0259   94.5768 H   0  0  0  0  0  0  0  0  0  0  0  0
   65.5535   73.2467   94.1794 H   0  0  0  0  0  0  0  0  0  0  0  0
   71.8947   77.8460   92.4441 N   0  0  0  0  0  0  0  0  0  0  0  0
   71.8946   78.0057   91.0253 C   0  0  0  0  0  0  0  0  0  0  0  0
   71.1001   77.2481   90.4146 O   0  0  0  0  0  0  0  0  0  0  0  0
   72.4998   78.4159   92.9717 H   0  0  0  0  0  0  0  0  0  0  0  0
   72.7372   78.9617   90.3186 C   0  0  0  0  0  0  0  0  0  0  0  0
   72.3002   80.3805   90.3096 C   0  0  0  0  0  0  0  0  0  0  0  0
   72.3923   80.9512   91.7421 C   0  0  0  0  0  0  0  0  0  0  0  0
   72.1048   82.4126   91.7534 C   0  0  0  0  0  0  0  0  0  0  0  0
   70.7200   82.6566   91.2460 C   0  0  0  0  0  0  0  0  0  0  0  0
   70.6282   82.1023   89.8472 C   0  0  0  0  0  0  0  0  0  0  0  0
   71.5861   82.8798   88.9865 C   0  0  0  0  0  0  0  0  0  0  0  0
   72.9953   82.6687   89.5032 C   0  0  0  0  0  0  0  0  0  0  0  0
   73.1758   83.0913   90.9226 C   0  0  0  0  0  0  0  0  0  0  0  0
   73.2515   81.1669   89.4104 C   0  0  0  0  0  0  0  0  0  0  0  0
   70.9121   80.6103   89.8399 C   0  0  0  0  0  0  0  0  0  0  0  0
 11 12  1  0  0  0
 12 13  2  0  0  0
 12  3  1  0  0  0
  3  4  2  0  0  0
  4  5  1  0  0  0
  5  1  1  0  0  0
  1  2  2  0  0  0
  2 16  1  0  0  0
 16 17  1  0  0  0
 17 18  2  0  0  0
 17 20  1  0  0  0
 21 20  1  0  0  0
 21 22  1  0  0  0
 23 22  1  0  0  0
 23 24  1  0  0  0
 25 24  1  0  0  0
 25 26  1  0  0  0
 27 26  1  0  0  0
 27 28  1  0  0  0
 27 29  1  0  0  0
 25 30  1  0  0  0
  5  6  2  0  0  0
  6  7  1  0  0  0
  7  8  2  0  0  0
  8  9  1  0  0  0
  8  3  1  0  0  0
 29 21  1  0  0  0
 30 21  1  0  0  0
 28 23  1  0  0  0
 11 14  1  0  0  0
 11 15  1  0  0  0
 16 19  1  0  0  0
  9 10  1  0  0  0
M  END
> <Activity>
116.0

> <minimizedAffinity>
-0.25847

> <CNNscore>
0.8924146295

> <CNNaffinity>
5.8515729904

> <CNN_VS>
5.2220292091

$$$$
HIPS6706


 25 27  0  0  0  0  0  0  0  0999 V2000
   72.2481   77.4880   90.8516 N   0  0  0  0  0  0  0  0  0  0  0  0
   72.8191   78.5846   90.4418 C   0  0  0  0  0  0  0  0  0  0  0  0
   72.1164   79.8702   90.2647 C   0  0  0  0  0  0  0  0  0  0  0  0
   70.7923   80.1495   90.5522 C   0  0  0  0  0  0  0  0  0  0  0  0
   70.5965   81.4640   90.1882 C   0  0  0  0  0  0  0  0  0  0  0  0
   71.8114   81.9065   89.6885 C   0  0  0  0  0  0  0  0  0  0  0  0
   72.6898   80.9295   89.7434 O   0  0  0  0  0  0  0  0  0  0  0  0
   72.1221   83.2551   89.1595 C   0  0  0  0  0  0  0  0  0  0  0  0
   73.1053   84.0382   89.7903 C   0  0  0  0  0  0  0  0  0  0  0  0
   73.4137   85.3139   89.3085 C   0  0  0  0  0  0  0  0  0  0  0  0
   72.7445   85.8229   88.1923 C   0  0  0  0  0  0  0  0  0  0  0  0
   73.1328   87.4238   87.5894 Cl  0  0  0  0  0  0  0  0  0  0  0  0
   71.7651   85.0543   87.5573 C   0  0  0  0  0  0  0  0  0  0  0  0
   71.4534   83.7777   88.0358 C   0  0  0  0  0  0  0  0  0  0  0  0
   71.5904   76.9346   93.5182 O   0  0  0  0  0  0  0  0  0  0  0  0
   70.6483   77.2209   92.7296 C   0  0  0  0  0  0  0  0  0  0  0  0
   70.9294   77.4041   91.3322 N   0  0  0  0  0  0  0  0  0  0  0  0
   70.1809   77.4725   90.6964 H   0  0  0  0  0  0  0  0  0  0  0  0
   69.2682   77.3539   93.2558 C   0  0  0  0  0  0  0  0  0  0  0  0
   68.4770   78.4746   92.9396 C   0  0  0  0  0  0  0  0  0  0  0  0
   67.1821   78.5954   93.4534 C   0  0  0  0  0  0  0  0  0  0  0  0
   66.6632   77.6042   94.2907 C   0  0  0  0  0  0  0  0  0  0  0  0
   64.8948   77.7735   94.9916 Br  0  0  0  0  0  0  0  0  0  0  0  0
   67.4426   76.4919   94.6187 C   0  0  0  0  0  0  0  0  0  0  0  0
   68.7383   76.3673   94.1085 C   0  0  0  0  0  0  0  0  0  0  0  0
 15 16  2  0  0  0
 16 17  1  0  0  0
 17  1  1  0  0  0
  1  2  2  0  0  0
  2  3  1  0  0  0
  3  4  2  0  0  0
  4  5  1  0  0  0
  5  6  2  0  0  0
  6  8  1  0  0  0
  8  9  2  0  0  0
  9 10  1  0  0  0
 10 11  2  0  0  0
 11 12  1  0  0  0
 11 13  1  0  0  0
 13 14  2  0  0  0
  6  7  1  0  0  0
 16 19  1  0  0  0
 19 20  2  0  0  0
 20 21  1  0  0  0
 21 22  2  0  0  0
 22 23  1  0  0  0
 22 24  1  0  0  0
 24 25  2  0  0  0
  7  3  1  0  0  0
 25 19  1  0  0  0
 14  8  1  0  0  0
 17 18  1  0  0  0
M  END
> <Activity>
122.3

> <minimizedAffinity>
1.60372

> <CNNscore>
0.8133105636

> <CNNaffinity>
5.9561319351

> <CNN_VS>
4.8441848755

$$$$
HIPS6706


 25 27  0  0  0  0  0  0  0  0999 V2000
   71.4612   80.5898   89.9802 N   0  0  0  0  0  0  0  0  0  0  0  0
   71.5983   79.2966   90.0545 C   0  0  0  0  0  0  0  0  0  0  0  0
   71.3752   78.5073   91.2814 C   0  0  0  0  0  0  0  0  0  0  0  0
   72.3353   77.9447   92.1035 C   0  0  0  0  0  0  0  0  0  0  0  0
   71.6427   77.2820   93.0933 C   0  0  0  0  0  0  0  0  0  0  0  0
   70.2989   77.4697   92.8099 C   0  0  0  0  0  0  0  0  0  0  0  0
   70.1782   78.1976   91.7214 O   0  0  0  0  0  0  0  0  0  0  0  0
   69.1429   76.9499   93.5769 C   0  0  0  0  0  0  0  0  0  0  0  0
   67.8499   77.4223   93.2885 C   0  0  0  0  0  0  0  0  0  0  0  0
   66.7450   76.9461   94.0006 C   0  0  0  0  0  0  0  0  0  0  0  0
   66.9173   75.9937   95.0085 C   0  0  0  0  0  0  0  0  0  0  0  0
   65.5297   75.3977   95.9009 Cl  0  0  0  0  0  0  0  0  0  0  0  0
   68.1974   75.5170   95.3045 C   0  0  0  0  0  0  0  0  0  0  0  0
   69.3055   75.9905   94.5948 C   0  0  0  0  0  0  0  0  0  0  0  0
   71.9497   83.3393   90.2054 O   0  0  0  0  0  0  0  0  0  0  0  0
   71.1299   82.8218   91.0127 C   0  0  0  0  0  0  0  0  0  0  0  0
   70.9334   81.3982   91.0024 N   0  0  0  0  0  0  0  0  0  0  0  0
   70.4169   80.9791   91.7283 H   0  0  0  0  0  0  0  0  0  0  0  0
   70.3917   83.6888   91.9627 C   0  0  0  0  0  0  0  0  0  0  0  0
   70.1840   83.2896   93.2967 C   0  0  0  0  0  0  0  0  0  0  0  0
   69.4743   84.1097   94.1793 C   0  0  0  0  0  0  0  0  0  0  0  0
   68.9602   85.3333   93.7420 C   0  0  0  0  0  0  0  0  0  0  0  0
   67.9901   86.4499   94.9500 Br  0  0  0  0  0  0  0  0  0  0  0  0
   69.1523   85.7358   92.4178 C   0  0  0  0  0  0  0  0  0  0  0  0
   69.8602   84.9186   91.5313 C   0  0  0  0  0  0  0  0  0  0  0  0
 15 16  2  0  0  0
 16 17  1  0  0  0
 17  1  1  0  0  0
  1  2  2  0  0  0
  2  3  1  0  0  0
  3  4  2  0  0  0
  4  5  1  0  0  0
  5  6  2  0  0  0
  6  8  1  0  0  0
  8  9  2  0  0  0
  9 10  1  0  0  0
 10 11  2  0  0  0
 11 12  1  0  0  0
 11 13  1  0  0  0
 13 14  2  0  0  0
  6  7  1  0  0  0
 16 19  1  0  0  0
 19 20  2  0  0  0
 20 21  1  0  0  0
 21 22  2  0  0  0
 22 23  1  0  0  0
 22 24  1  0  0  0
 24 25  2  0  0  0
  7  3  1  0  0  0
 25 19  1  0  0  0
 14  8  1  0  0  0
 17 18  1  0  0  0
M  END
> <Activity>
122.3

> <minimizedAffinity>
0.12020

> <CNNscore>
0.7996488810

> <CNNaffinity>
5.7129201889

> <CNN_VS>
4.5683302879

$$$$
HIPS6706


 25 27  0  0  0  0  0  0  0  0999 V2000
   68.5541   78.6686   92.6004 N   0  0  0  0  0  0  0  0  0  0  0  0
   67.6823   78.6565   93.5682 C   0  0  0  0  0  0  0  0  0  0  0  0
   67.4480   79.7860   94.4885 C   0  0  0  0  0  0  0  0  0  0  0  0
   66.7030   79.7780   95.6544 C   0  0  0  0  0  0  0  0  0  0  0  0
   66.7513   81.0660   96.1415 C   0  0  0  0  0  0  0  0  0  0  0  0
   67.5143   81.7878   95.2368 C   0  0  0  0  0  0  0  0  0  0  0  0
   67.9058   80.9952   94.2634 O   0  0  0  0  0  0  0  0  0  0  0  0
   67.8591   83.2269   95.3068 C   0  0  0  0  0  0  0  0  0  0  0  0
   68.7069   83.7853   94.3335 C   0  0  0  0  0  0  0  0  0  0  0  0
   69.0461   85.1408   94.3810 C   0  0  0  0  0  0  0  0  0  0  0  0
   68.5438   85.9544   95.4001 C   0  0  0  0  0  0  0  0  0  0  0  0
   68.9708   87.6548   95.4580 Cl  0  0  0  0  0  0  0  0  0  0  0  0
   67.7008   85.4108   96.3733 C   0  0  0  0  0  0  0  0  0  0  0  0
   67.3588   84.0554   96.3298 C   0  0  0  0  0  0  0  0  0  0  0  0
   70.9435   78.5486   91.1425 O   0  0  0  0  0  0  0  0  0  0  0  0
   70.4449   79.6873   91.3576 C   0  0  0  0  0  0  0  0  0  0  0  0
   69.2810   79.8011   92.1928 N   0  0  0  0  0  0  0  0  0  0  0  0
   68.9855   80.6931   92.4865 H   0  0  0  0  0  0  0  0  0  0  0  0
   71.0730   80.8873   90.7536 C   0  0  0  0  0  0  0  0  0  0  0  0
   70.7422   81.2991   89.4487 C   0  0  0  0  0  0  0  0  0  0  0  0
   71.3517   82.4242   88.8849 C   0  0  0  0  0  0  0  0  0  0  0  0
   72.2998   83.1483   89.6125 C   0  0  0  0  0  0  0  0  0  0  0  0
   73.1311   84.6836   88.8386 Br  0  0  0  0  0  0  0  0  0  0  0  0
   72.6427   82.7437   90.9053 C   0  0  0  0  0  0  0  0  0  0  0  0
   72.0370   81.6186   91.4727 C   0  0  0  0  0  0  0  0  0  0  0  0
 15 16  2  0  0  0
 16 17  1  0  0  0
 17  1  1  0  0  0
  1  2  2  0  0  0
  2  3  1  0  0  0
  3  4  2  0  0  0
  4  5  1  0  0  0
  5  6  2  0  0  0
  6  8  1  0  0  0
  8  9  2  0  0  0
  9 10  1  0  0  0
 10 11  2  0  0  0
 11 12  1  0  0  0
 11 13  1  0  0  0
 13 14  2  0  0  0
  6  7  1  0  0  0
 16 19  1  0  0  0
 19 20  2  0  0  0
 20 21  1  0  0  0
 21 22  2  0  0  0
 22 23  1  0  0  0
 22 24  1  0  0  0
 24 25  2  0  0  0
  7  3  1  0  0  0
 25 19  1  0  0  0
 14  8  1  0  0  0
 17 18  1  0  0  0
M  END
> <Activity>
122.3

> <minimizedAffinity>
8.74558

> <CNNscore>
0.7908807397

> <CNNaffinity>
5.8046560287

> <CNN_VS>
4.5907907486

$$$$
HIPS6297


 35 38  0  0  0  0  0  0  0  0999 V2000
   70.3019   75.8992   94.8001 C   0  0  0  0  0  0  0  0  0  0  0  0
   71.3276   76.3733   94.0173 C   0  0  0  0  0  0  0  0  0  0  0  0
   71.0299   77.3349   93.0524 C   0  0  0  0  0  0  0  0  0  0  0  0
   69.7151   77.7890   92.9042 C   0  0  0  0  0  0  0  0  0  0  0  0
   68.6885   77.3157   93.6863 C   0  0  0  0  0  0  0  0  0  0  0  0
   69.0046   76.3559   94.6444 C   0  0  0  0  0  0  0  0  0  0  0  0
   67.3158   77.7862   93.5381 C   0  0  0  0  0  0  0  0  0  0  0  0
   66.8978   78.9679   94.1195 C   0  0  0  0  0  0  0  0  0  0  0  0
   65.5839   79.3904   93.9613 C   0  0  0  0  0  0  0  0  0  0  0  0
   64.6706   78.6545   93.2302 C   0  0  0  0  0  0  0  0  0  0  0  0
   65.0758   77.4686   92.6421 C   0  0  0  0  0  0  0  0  0  0  0  0
   66.3763   77.0680   92.8094 C   0  0  0  0  0  0  0  0  0  0  0  0
   63.0343   79.1642   93.0250 S   0  0  0  0  0  0  0  0  0  0  0  0
   62.4848   79.7149   94.3093 O   0  0  0  0  0  0  0  0  0  0  0  0
   62.2061   77.9390   92.6916 O   0  0  0  0  0  0  0  0  0  0  0  0
   62.8336   80.2728   91.7287 N   0  0  0  0  0  0  0  0  0  0  0  0
   64.0646   80.9568   91.3967 C   0  0  0  0  0  0  0  0  0  0  0  0
   63.6624   82.3118   90.8072 C   0  0  0  0  0  0  0  0  0  0  0  0
   62.5979   82.0399   89.7728 C   0  0  0  0  0  0  0  0  0  0  0  0
   62.5312   80.5744   89.3876 C   0  0  0  0  0  0  0  0  0  0  0  0
   62.1756   79.7126   90.5964 C   0  0  0  0  0  0  0  0  0  0  0  0
   70.6122   74.8777   95.8296 C   0  0  0  0  0  0  0  0  0  0  0  0
   69.4226   74.3433   96.3757 O   0  0  0  0  0  0  0  0  0  0  0  0
   67.1829   72.9826   93.7836 C   0  0  0  0  0  0  0  0  0  0  0  0
   68.3247   73.2626   94.5015 C   0  0  0  0  0  0  0  0  0  0  0  0
   68.3119   74.0370   95.6283 C   0  0  0  0  0  0  0  0  0  0  0  0
   67.0918   74.5489   96.0450 C   0  0  0  0  0  0  0  0  0  0  0  0
   65.9536   74.2788   95.3426 C   0  0  0  0  0  0  0  0  0  0  0  0
   65.9914   73.5010   94.2177 C   0  0  0  0  0  0  0  0  0  0  0  0
   64.7960   73.2537   93.5332 O   0  0  0  0  0  0  0  0  0  0  0  0
   63.9921   73.6182   93.8475 H   0  0  0  0  0  0  0  0  0  0  0  0
   68.0735   71.2600   92.4586 O   0  0  0  0  0  0  0  0  0  0  0  0
   67.2187   72.1511   92.5802 C   0  0  0  0  0  0  0  0  0  0  0  0
   66.3093   72.3372   91.5602 O   0  0  0  0  0  0  0  0  0  0  0  0
   65.6554   73.0045   91.6314 H   0  0  0  0  0  0  0  0  0  0  0  0
 32 33  2  0  0  0
 33 34  1  0  0  0
 33 24  1  0  0  0
 24 25  2  0  0  0
 25 26  1  0  0  0
 26 23  1  0  0  0
 23 22  1  0  0  0
 22  1  1  0  0  0
  1  2  2  0  0  0
  2  3  1  0  0  0
  3  4  2  0  0  0
  4  5  1  0  0  0
  5  7  1  0  0  0
  7  8  2  0  0  0
  8  9  1  0  0  0
  9 10  2  0  0  0
 10 13  1  0  0  0
 13 14  2  0  0  0
 13 15  2  0  0  0
 13 16  1  0  0  0
 16 17  1  0  0  0
 17 18  1  0  0  0
 18 19  1  0  0  0
 19 20  1  0  0  0
 20 21  1  0  0  0
 10 11  1  0  0  0
 11 12  2  0  0  0
  5  6  2  0  0  0
 26 27  2  0  0  0
 27 28  1  0  0  0
 28 29  2  0  0  0
 29 30  1  0  0  0
 29 24  1  0  0  0
  6  1  1  0  0  0
 12  7  1  0  0  0
 21 16  1  0  0  0
 34 35  1  0  0  0
 30 31  1  0  0  0
M  END
> <Activity>
125.3

> <minimizedAffinity>
19.95025

> <CNNscore>
0.8963434100

> <CNNaffinity>
6.4430799484

> <CNN_VS>
5.7752122879

$$$$
HIPS6297


 35 38  0  0  0  0  0  0  0  0999 V2000
   71.0838   78.1964   91.8512 C   0  0  0  0  0  0  0  0  0  0  0  0
   71.7638   77.3167   91.0429 C   0  0  0  0  0  0  0  0  0  0  0  0
   72.3540   77.8112   89.8804 C   0  0  0  0  0  0  0  0  0  0  0  0
   72.2431   79.1700   89.5668 C   0  0  0  0  0  0  0  0  0  0  0  0
   71.5634   80.0508   90.3742 C   0  0  0  0  0  0  0  0  0  0  0  0
   70.9806   79.5390   91.5307 C   0  0  0  0  0  0  0  0  0  0  0  0
   71.4456   81.4690   90.0540 C   0  0  0  0  0  0  0  0  0  0  0  0
   71.0146   82.3820   90.9973 C   0  0  0  0  0  0  0  0  0  0  0  0
   70.9120   83.7264   90.6629 C   0  0  0  0  0  0  0  0  0  0  0  0
   71.2324   84.1839   89.3987 C   0  0  0  0  0  0  0  0  0  0  0  0
   71.6657   83.2800   88.4438 C   0  0  0  0  0  0  0  0  0  0  0  0
   71.7605   81.9575   88.7924 C   0  0  0  0  0  0  0  0  0  0  0  0
   71.1093   85.8504   88.9663 S   0  0  0  0  0  0  0  0  0  0  0  0
   70.4591   86.0031   87.6215 O   0  0  0  0  0  0  0  0  0  0  0  0
   72.5162   86.3985   88.8300 O   0  0  0  0  0  0  0  0  0  0  0  0
   70.3160   86.7971   90.1595 N   0  0  0  0  0  0  0  0  0  0  0  0
   70.3701   88.2120   89.8622 C   0  0  0  0  0  0  0  0  0  0  0  0
   70.3049   88.9407   91.2075 C   0  0  0  0  0  0  0  0  0  0  0  0
   69.1601   88.3320   91.9794 C   0  0  0  0  0  0  0  0  0  0  0  0
   68.2458   87.5052   91.0957 C   0  0  0  0  0  0  0  0  0  0  0  0
   69.0056   86.3359   90.4745 C   0  0  0  0  0  0  0  0  0  0  0  0
   70.4554   77.6771   93.0902 C   0  0  0  0  0  0  0  0  0  0  0  0
   69.0537   77.8579   93.0515 O   0  0  0  0  0  0  0  0  0  0  0  0
   67.5495   74.9286   94.7078 C   0  0  0  0  0  0  0  0  0  0  0  0
   68.4895   75.8262   94.2513 C   0  0  0  0  0  0  0  0  0  0  0  0
   68.1534   76.9363   93.5273 C   0  0  0  0  0  0  0  0  0  0  0  0
   66.8096   77.1458   93.2544 C   0  0  0  0  0  0  0  0  0  0  0  0
   65.8688   76.2640   93.7010 C   0  0  0  0  0  0  0  0  0  0  0  0
   66.2294   75.1599   94.4240 C   0  0  0  0  0  0  0  0  0  0  0  0
   65.2262   74.2863   94.8589 O   0  0  0  0  0  0  0  0  0  0  0  0
   64.3293   74.4636   94.6536 H   0  0  0  0  0  0  0  0  0  0  0  0
   67.2241   73.3601   96.4254 O   0  0  0  0  0  0  0  0  0  0  0  0
   67.9306   73.7466   95.4815 C   0  0  0  0  0  0  0  0  0  0  0  0
   69.0761   73.0395   95.1815 O   0  0  0  0  0  0  0  0  0  0  0  0
   69.6241   73.3140   94.4727 H   0  0  0  0  0  0  0  0  0  0  0  0
 32 33  2  0  0  0
 33 34  1  0  0  0
 33 24  1  0  0  0
 24 25  2  0  0  0
 25 26  1  0  0  0
 26 23  1  0  0  0
 23 22  1  0  0  0
 22  1  1  0  0  0
  1  2  2  0  0  0
  2  3  1  0  0  0
  3  4  2  0  0  0
  4  5  1  0  0  0
  5  7  1  0  0  0
  7  8  2  0  0  0
  8  9  1  0  0  0
  9 10  2  0  0  0
 10 13  1  0  0  0
 13 14  2  0  0  0
 13 15  2  0  0  0
 13 16  1  0  0  0
 16 17  1  0  0  0
 17 18  1  0  0  0
 18 19  1  0  0  0
 19 20  1  0  0  0
 20 21  1  0  0  0
 10 11  1  0  0  0
 11 12  2  0  0  0
  5  6  2  0  0  0
 26 27  2  0  0  0
 27 28  1  0  0  0
 28 29  2  0  0  0
 29 30  1  0  0  0
 29 24  1  0  0  0
  6  1  1  0  0  0
 12  7  1  0  0  0
 21 16  1  0  0  0
 34 35  1  0  0  0
 30 31  1  0  0  0
M  END
> <Activity>
125.3

> <minimizedAffinity>
-2.86313

> <CNNscore>
0.8702776432

> <CNNaffinity>
6.2198543549

> <CNN_VS>
5.4130001068

$$$$
HIPS6297


 35 38  0  0  0  0  0  0  0  0999 V2000
   71.0623   80.5655   89.7219 C   0  0  0  0  0  0  0  0  0  0  0  0
   71.9118   79.7227   90.3985 C   0  0  0  0  0  0  0  0  0  0  0  0
   71.9117   78.3715   90.0546 C   0  0  0  0  0  0  0  0  0  0  0  0
   71.0607   77.9100   89.0447 C   0  0  0  0  0  0  0  0  0  0  0  0
   70.2107   78.7517   88.3673 C   0  0  0  0  0  0  0  0  0  0  0  0
   70.2246   80.0975   88.7243 C   0  0  0  0  0  0  0  0  0  0  0  0
   69.3223   78.2773   87.3122 C   0  0  0  0  0  0  0  0  0  0  0  0
   68.0446   78.7841   87.1711 C   0  0  0  0  0  0  0  0  0  0  0  0
   67.2211   78.3124   86.1567 C   0  0  0  0  0  0  0  0  0  0  0  0
   67.6471   77.3390   85.2729 C   0  0  0  0  0  0  0  0  0  0  0  0
   68.9249   76.8225   85.4026 C   0  0  0  0  0  0  0  0  0  0  0  0
   69.7230   77.3003   86.4097 C   0  0  0  0  0  0  0  0  0  0  0  0
   66.6363   76.7409   84.0079 S   0  0  0  0  0  0  0  0  0  0  0  0
   66.9645   77.4108   82.7048 O   0  0  0  0  0  0  0  0  0  0  0  0
   65.2064   77.1196   84.3397 O   0  0  0  0  0  0  0  0  0  0  0  0
   66.6814   75.0301   83.8643 N   0  0  0  0  0  0  0  0  0  0  0  0
   66.8224   74.5987   82.4904 C   0  0  0  0  0  0  0  0  0  0  0  0
   66.1677   73.2172   82.4003 C   0  0  0  0  0  0  0  0  0  0  0  0
   66.7061   72.4024   83.5506 C   0  0  0  0  0  0  0  0  0  0  0  0
   67.9363   73.0322   84.1754 C   0  0  0  0  0  0  0  0  0  0  0  0
   67.6078   74.4080   84.7495 C   0  0  0  0  0  0  0  0  0  0  0  0
   71.0591   82.0043   90.0817 C   0  0  0  0  0  0  0  0  0  0  0  0
   70.9197   82.1683   91.4791 O   0  0  0  0  0  0  0  0  0  0  0  0
   69.4731   84.5159   93.9250 C   0  0  0  0  0  0  0  0  0  0  0  0
   70.0208   83.3743   93.3826 C   0  0  0  0  0  0  0  0  0  0  0  0
   70.3716   83.2833   92.0642 C   0  0  0  0  0  0  0  0  0  0  0  0
   70.1587   84.3949   91.2621 C   0  0  0  0  0  0  0  0  0  0  0  0
   69.6169   85.5318   91.7875 C   0  0  0  0  0  0  0  0  0  0  0  0
   69.2738   85.5990   93.1101 C   0  0  0  0  0  0  0  0  0  0  0  0
   68.7215   86.7881   93.5998 O   0  0  0  0  0  0  0  0  0  0  0  0
   68.5938   87.5169   93.0250 H   0  0  0  0  0  0  0  0  0  0  0  0
   67.9137   84.5329   95.6811 O   0  0  0  0  0  0  0  0  0  0  0  0
   69.1049   84.5923   95.3390 C   0  0  0  0  0  0  0  0  0  0  0  0
   70.0667   84.7311   96.3176 O   0  0  0  0  0  0  0  0  0  0  0  0
   70.9722   84.7779   96.0813 H   0  0  0  0  0  0  0  0  0  0  0  0
 32 33  2  0  0  0
 33 34  1  0  0  0
 33 24  1  0  0  0
 24 25  2  0  0  0
 25 26  1  0  0  0
 26 23  1  0  0  0
 23 22  1  0  0  0
 22  1  1  0  0  0
  1  2  2  0  0  0
  2  3  1  0  0  0
  3  4  2  0  0  0
  4  5  1  0  0  0
  5  7  1  0  0  0
  7  8  2  0  0  0
  8  9  1  0  0  0
  9 10  2  0  0  0
 10 13  1  0  0  0
 13 14  2  0  0  0
 13 15  2  0  0  0
 13 16  1  0  0  0
 16 17  1  0  0  0
 17 18  1  0  0  0
 18 19  1  0  0  0
 19 20  1  0  0  0
 20 21  1  0  0  0
 10 11  1  0  0  0
 11 12  2  0  0  0
  5  6  2  0  0  0
 26 27  2  0  0  0
 27 28  1  0  0  0
 28 29  2  0  0  0
 29 30  1  0  0  0
 29 24  1  0  0  0
  6  1  1  0  0  0
 12  7  1  0  0  0
 21 16  1  0  0  0
 34 35  1  0  0  0
 30 31  1  0  0  0
M  END
> <Activity>
125.3

> <minimizedAffinity>
10.58495

> <CNNscore>
0.8648084402

> <CNNaffinity>
5.9173440933

> <CNN_VS>
5.1173691750

$$$$
HIPS6249


 30 33  0  0  0  0  0  0  0  0999 V2000
   70.0866   76.3693   94.7732 C   0  0  0  0  0  0  0  0  0  0  0  0
   68.7371   76.7450   94.8068 C   0  0  0  0  0  0  0  0  0  0  0  0
   68.1812   77.5212   93.7760 C   0  0  0  0  0  0  0  0  0  0  0  0
   69.0003   77.9108   92.7005 C   0  0  0  0  0  0  0  0  0  0  0  0
   70.3544   77.5330   92.6456 C   0  0  0  0  0  0  0  0  0  0  0  0
   70.8851   76.7533   93.6871 C   0  0  0  0  0  0  0  0  0  0  0  0
   66.7513   77.9231   93.8230 C   0  0  0  0  0  0  0  0  0  0  0  0
   66.2468   79.2119   93.8460 C   0  0  0  0  0  0  0  0  0  0  0  0
   64.8752   79.0809   93.8887 C   0  0  0  0  0  0  0  0  0  0  0  0
   64.5503   77.8092   93.8891 O   0  0  0  0  0  0  0  0  0  0  0  0
   65.6462   77.0874   93.8499 C   0  0  0  0  0  0  0  0  0  0  0  0
   71.2118   77.9524   91.5064 C   0  0  0  0  0  0  0  0  0  0  0  0
   72.2606   77.2440   90.9453 C   0  0  0  0  0  0  0  0  0  0  0  0
   72.7483   78.0333   89.9258 C   0  0  0  0  0  0  0  0  0  0  0  0
   72.0591   79.1484   89.8589 O   0  0  0  0  0  0  0  0  0  0  0  0
   71.1325   79.1354   90.7890 C   0  0  0  0  0  0  0  0  0  0  0  0
   70.6663   75.5505   95.8975 C   0  0  0  0  0  0  0  0  0  0  0  0
   69.9074   74.3571   96.0990 O   0  0  0  0  0  0  0  0  0  0  0  0
   68.1197   72.4433   93.4162 C   0  0  0  0  0  0  0  0  0  0  0  0
   68.3754   73.3946   94.4206 C   0  0  0  0  0  0  0  0  0  0  0  0
   69.6035   73.4094   95.1076 C   0  0  0  0  0  0  0  0  0  0  0  0
   70.5692   72.4507   94.7955 C   0  0  0  0  0  0  0  0  0  0  0  0
   70.3205   71.4854   93.8201 C   0  0  0  0  0  0  0  0  0  0  0  0
   69.0992   71.4566   93.1389 C   0  0  0  0  0  0  0  0  0  0  0  0
   68.8884   70.4186   92.2286 O   0  0  0  0  0  0  0  0  0  0  0  0
   69.5627   69.7866   92.0743 H   0  0  0  0  0  0  0  0  0  0  0  0
   65.8888   73.2290   93.1111 O   0  0  0  0  0  0  0  0  0  0  0  0
   66.8460   72.5396   92.6683 C   0  0  0  0  0  0  0  0  0  0  0  0
   66.6751   71.8108   91.4941 O   0  0  0  0  0  0  0  0  0  0  0  0
   67.3804   71.2948   91.1561 H   0  0  0  0  0  0  0  0  0  0  0  0
 27 28  2  0  0  0
 28 29  1  0  0  0
 28 19  1  0  0  0
 19 20  2  0  0  0
 20 21  1  0  0  0
 21 18  1  0  0  0
 18 17  1  0  0  0
 17  1  1  0  0  0
  1  2  2  0  0  0
  2  3  1  0  0  0
  3  7  1  0  0  0
  7  8  1  0  0  0
  8  9  2  0  0  0
  9 10  1  0  0  0
 10 11  1  0  0  0
  3  4  2  0  0  0
  4  5  1  0  0  0
  5 12  1  0  0  0
 12 13  1  0  0  0
 13 14  2  0  0  0
 14 15  1  0  0  0
 15 16  1  0  0  0
  5  6  2  0  0  0
 21 22  2  0  0  0
 22 23  1  0  0  0
 23 24  2  0  0  0
 24 25  1  0  0  0
 24 19  1  0  0  0
  6  1  1  0  0  0
 11  7  2  0  0  0
 16 12  2  0  0  0
 29 30  1  0  0  0
 25 26  1  0  0  0
M  END
> <Activity>
233.5

> <minimizedAffinity>
2.38707

> <CNNscore>
0.8498933315

> <CNNaffinity>
5.9057064056

> <CNN_VS>
5.0192203522

$$$$
HIPS6249


 30 33  0  0  0  0  0  0  0  0999 V2000
   69.9440   77.6239   92.9712 C   0  0  0  0  0  0  0  0  0  0  0  0
   68.7008   78.2654   92.8941 C   0  0  0  0  0  0  0  0  0  0  0  0
   67.5668   77.7120   93.5121 C   0  0  0  0  0  0  0  0  0  0  0  0
   67.6996   76.5034   94.2197 C   0  0  0  0  0  0  0  0  0  0  0  0
   68.9428   75.8517   94.3163 C   0  0  0  0  0  0  0  0  0  0  0  0
   70.0622   76.4279   93.6926 C   0  0  0  0  0  0  0  0  0  0  0  0
   66.2497   78.3938   93.4186 C   0  0  0  0  0  0  0  0  0  0  0  0
   65.6113   79.1162   94.4118 C   0  0  0  0  0  0  0  0  0  0  0  0
   64.4258   79.5528   93.8600 C   0  0  0  0  0  0  0  0  0  0  0  0
   64.3343   79.1373   92.6184 O   0  0  0  0  0  0  0  0  0  0  0  0
   65.4069   78.4416   92.3196 C   0  0  0  0  0  0  0  0  0  0  0  0
   69.0716   74.5736   95.0638 C   0  0  0  0  0  0  0  0  0  0  0  0
   68.0661   73.8854   95.7209 C   0  0  0  0  0  0  0  0  0  0  0  0
   68.6637   72.7675   96.2626 C   0  0  0  0  0  0  0  0  0  0  0  0
   69.9430   72.7614   95.9687 O   0  0  0  0  0  0  0  0  0  0  0  0
   70.2230   73.8261   95.2534 C   0  0  0  0  0  0  0  0  0  0  0  0
   71.1437   78.2266   92.2869 C   0  0  0  0  0  0  0  0  0  0  0  0
   70.7489   78.9681   91.1315 O   0  0  0  0  0  0  0  0  0  0  0  0
   71.5129   82.3614   89.7323 C   0  0  0  0  0  0  0  0  0  0  0  0
   71.4465   80.9615   89.8546 C   0  0  0  0  0  0  0  0  0  0  0  0
   70.8572   80.3607   90.9826 C   0  0  0  0  0  0  0  0  0  0  0  0
   70.3512   81.1726   91.9994 C   0  0  0  0  0  0  0  0  0  0  0  0
   70.4327   82.5617   91.9042 C   0  0  0  0  0  0  0  0  0  0  0  0
   71.0254   83.1676   90.7916 C   0  0  0  0  0  0  0  0  0  0  0  0
   71.1407   84.5595   90.7955 O   0  0  0  0  0  0  0  0  0  0  0  0
   70.8047   85.0554   91.5160 H   0  0  0  0  0  0  0  0  0  0  0  0
   73.2649   83.2948   88.4107 O   0  0  0  0  0  0  0  0  0  0  0  0
   72.0609   82.9299   88.4802 C   0  0  0  0  0  0  0  0  0  0  0  0
   71.2250   83.1255   87.3839 O   0  0  0  0  0  0  0  0  0  0  0  0
   70.3280   82.8578   87.4250 H   0  0  0  0  0  0  0  0  0  0  0  0
 27 28  2  0  0  0
 28 29  1  0  0  0
 28 19  1  0  0  0
 19 20  2  0  0  0
 20 21  1  0  0  0
 21 18  1  0  0  0
 18 17  1  0  0  0
 17  1  1  0  0  0
  1  2  2  0  0  0
  2  3  1  0  0  0
  3  7  1  0  0  0
  7  8  1  0  0  0
  8  9  2  0  0  0
  9 10  1  0  0  0
 10 11  1  0  0  0
  3  4  2  0  0  0
  4  5  1  0  0  0
  5 12  1  0  0  0
 12 13  1  0  0  0
 13 14  2  0  0  0
 14 15  1  0  0  0
 15 16  1  0  0  0
  5  6  2  0  0  0
 21 22  2  0  0  0
 22 23  1  0  0  0
 23 24  2  0  0  0
 24 25  1  0  0  0
 24 19  1  0  0  0
  6  1  1  0  0  0
 11  7  2  0  0  0
 16 12  2  0  0  0
 29 30  1  0  0  0
 25 26  1  0  0  0
M  END
> <Activity>
233.5

> <minimizedAffinity>
4.97793

> <CNNscore>
0.8494496942

> <CNNaffinity>
5.7156629562

> <CNN_VS>
4.8551683426

$$$$
HIPS6249


 30 33  0  0  0  0  0  0  0  0999 V2000
   69.6052   76.0732   95.0074 C   0  0  0  0  0  0  0  0  0  0  0  0
   70.5554   76.4064   94.0330 C   0  0  0  0  0  0  0  0  0  0  0  0
   70.2308   77.2803   92.9817 C   0  0  0  0  0  0  0  0  0  0  0  0
   68.9349   77.8250   92.9257 C   0  0  0  0  0  0  0  0  0  0  0  0
   67.9721   77.5097   93.9020 C   0  0  0  0  0  0  0  0  0  0  0  0
   68.3232   76.6363   94.9452 C   0  0  0  0  0  0  0  0  0  0  0  0
   71.2411   77.6220   91.9470 C   0  0  0  0  0  0  0  0  0  0  0  0
   71.1434   78.6051   90.9774 C   0  0  0  0  0  0  0  0  0  0  0  0
   72.3170   78.5442   90.2568 C   0  0  0  0  0  0  0  0  0  0  0  0
   73.0874   77.5987   90.7419 O   0  0  0  0  0  0  0  0  0  0  0  0
   72.4772   77.0262   91.7535 C   0  0  0  0  0  0  0  0  0  0  0  0
   66.6050   78.0883   93.8318 C   0  0  0  0  0  0  0  0  0  0  0  0
   65.4186   77.4054   93.6255 C   0  0  0  0  0  0  0  0  0  0  0  0
   64.4247   78.3605   93.6376 C   0  0  0  0  0  0  0  0  0  0  0  0
   64.9512   79.5469   93.8329 O   0  0  0  0  0  0  0  0  0  0  0  0
   66.2528   79.4231   93.9529 C   0  0  0  0  0  0  0  0  0  0  0  0
   69.9699   75.1210   96.1170 C   0  0  0  0  0  0  0  0  0  0  0  0
   70.3656   73.8542   95.5884 O   0  0  0  0  0  0  0  0  0  0  0  0
   69.3662   71.1770   93.1615 C   0  0  0  0  0  0  0  0  0  0  0  0
   70.1363   71.9159   94.0781 C   0  0  0  0  0  0  0  0  0  0  0  0
   69.6390   73.1011   94.6513 C   0  0  0  0  0  0  0  0  0  0  0  0
   68.3700   73.5536   94.2851 C   0  0  0  0  0  0  0  0  0  0  0  0
   67.6050   72.8456   93.3584 C   0  0  0  0  0  0  0  0  0  0  0  0
   68.0949   71.6720   92.7760 C   0  0  0  0  0  0  0  0  0  0  0  0
   67.3084   71.0544   91.8010 O   0  0  0  0  0  0  0  0  0  0  0  0
   66.4732   71.4145   91.5755 H   0  0  0  0  0  0  0  0  0  0  0  0
   70.6257   69.8512   91.6308 O   0  0  0  0  0  0  0  0  0  0  0  0
   69.9090   69.8921   92.6663 C   0  0  0  0  0  0  0  0  0  0  0  0
   69.5744   68.7040   93.3109 O   0  0  0  0  0  0  0  0  0  0  0  0
   69.0419   68.7231   94.0817 H   0  0  0  0  0  0  0  0  0  0  0  0
 27 28  2  0  0  0
 28 29  1  0  0  0
 28 19  1  0  0  0
 19 20  2  0  0  0
 20 21  1  0  0  0
 21 18  1  0  0  0
 18 17  1  0  0  0
 17  1  1  0  0  0
  1  2  2  0  0  0
  2  3  1  0  0  0
  3  7  1  0  0  0
  7  8  1  0  0  0
  8  9  2  0  0  0
  9 10  1  0  0  0
 10 11  1  0  0  0
  3  4  2  0  0  0
  4  5  1  0  0  0
  5 12  1  0  0  0
 12 13  1  0  0  0
 13 14  2  0  0  0
 14 15  1  0  0  0
 15 16  1  0  0  0
  5  6  2  0  0  0
 21 22  2  0  0  0
 22 23  1  0  0  0
 23 24  2  0  0  0
 24 25  1  0  0  0
 24 19  1  0  0  0
  6  1  1  0  0  0
 11  7  2  0  0  0
 16 12  2  0  0  0
 29 30  1  0  0  0
 25 26  1  0  0  0
M  END
> <Activity>
233.5

> <minimizedAffinity>
2.67305

> <CNNscore>
0.8363899589

> <CNNaffinity>
5.8225479126

> <CNN_VS>
4.8699207306

$$$$
HIPS7112


 31 33  0  0  0  0  0  0  0  0999 V2000
   69.0091   79.8088   85.1353 N   0  0  0  0  0  0  0  0  0  0  0  0
   70.0889   80.4256   84.4301 C   0  0  0  0  0  0  0  0  0  0  0  0
   70.6568   79.8157   83.4846 O   0  0  0  0  0  0  0  0  0  0  0  0
   68.5970   80.2700   85.9014 H   0  0  0  0  0  0  0  0  0  0  0  0
   67.4959   78.4207   83.9735 C   0  0  0  0  0  0  0  0  0  0  0  0
   68.5339   78.5486   84.7401 N   0  0  0  0  0  0  0  0  0  0  0  0
   67.0086   74.6651   83.8868 C   0  0  0  0  0  0  0  0  0  0  0  0
   67.4488   75.9499   84.2528 C   0  0  0  0  0  0  0  0  0  0  0  0
   67.0145   77.0878   83.5569 C   0  0  0  0  0  0  0  0  0  0  0  0
   66.1266   76.9350   82.4805 C   0  0  0  0  0  0  0  0  0  0  0  0
   65.6722   75.6669   82.1169 C   0  0  0  0  0  0  0  0  0  0  0  0
   66.0919   74.5305   82.8157 C   0  0  0  0  0  0  0  0  0  0  0  0
   65.5557   73.2973   82.4387 O   0  0  0  0  0  0  0  0  0  0  0  0
   64.9515   73.2478   81.7242 H   0  0  0  0  0  0  0  0  0  0  0  0
   67.1720   73.2456   85.9708 N   0  0  0  0  0  0  0  0  0  0  0  0
   67.5450   73.4938   84.6141 C   0  0  0  0  0  0  0  0  0  0  0  0
   68.3666   72.7222   84.0505 O   0  0  0  0  0  0  0  0  0  0  0  0
   67.5346   72.4631   86.4458 H   0  0  0  0  0  0  0  0  0  0  0  0
   66.5523   73.8569   86.4308 H   0  0  0  0  0  0  0  0  0  0  0  0
   70.5457   81.8005   84.8114 C   0  0  0  0  0  0  0  0  0  0  0  0
   70.8502   81.8538   86.2051 O   0  0  0  0  0  0  0  0  0  0  0  0
   71.1386   83.0207   86.9375 C   0  0  0  0  0  0  0  0  0  0  0  0
   71.3418   84.2638   86.3057 C   0  0  0  0  0  0  0  0  0  0  0  0
   71.6211   85.4066   87.0566 C   0  0  0  0  0  0  0  0  0  0  0  0
   71.7052   85.3341   88.4458 C   0  0  0  0  0  0  0  0  0  0  0  0
   71.5116   84.1101   89.0996 C   0  0  0  0  0  0  0  0  0  0  0  0
   71.5977   84.0333   90.4987 C   0  0  0  0  0  0  0  0  0  0  0  0
   71.4032   82.8132   91.1492 C   0  0  0  0  0  0  0  0  0  0  0  0
   71.1215   81.6620   90.4113 C   0  0  0  0  0  0  0  0  0  0  0  0
   71.0331   81.7219   89.0181 C   0  0  0  0  0  0  0  0  0  0  0  0
   71.2271   82.9429   88.3442 C   0  0  0  0  0  0  0  0  0  0  0  0
 15 16  1  0  0  0
 16 17  2  0  0  0
 16  7  1  0  0  0
  7  8  2  0  0  0
  8  9  1  0  0  0
  9  5  1  0  0  0
  5  6  2  0  0  0
  6  1  1  0  0  0
  1  2  1  0  0  0
  2  3  2  0  0  0
  2 20  1  0  0  0
 20 21  1  0  0  0
 21 22  1  0  0  0
 22 23  2  0  0  0
 23 24  1  0  0  0
 24 25  2  0  0  0
 25 26  1  0  0  0
 26 27  2  0  0  0
 27 28  1  0  0  0
 28 29  2  0  0  0
 29 30  1  0  0  0
 30 31  2  0  0  0
  9 10  2  0  0  0
 10 11  1  0  0  0
 11 12  2  0  0  0
 12 13  1  0  0  0
 12  7  1  0  0  0
 31 22  1  0  0  0
 31 26  1  0  0  0
 15 18  1  0  0  0
 15 19  1  0  0  0
  1  4  1  0  0  0
 13 14  1  0  0  0
M  END
> <Activity>
398.5

> <minimizedAffinity>
9.24596

> <CNNscore>
0.8496644497

> <CNNaffinity>
5.6731634140

> <CNN_VS>
4.8202853203

$$$$
HIPS7112


 31 33  0  0  0  0  0  0  0  0999 V2000
   70.5390   78.4993   91.9495 N   0  0  0  0  0  0  0  0  0  0  0  0
   71.6367   78.2952   91.0567 C   0  0  0  0  0  0  0  0  0  0  0  0
   72.1606   77.1539   90.9492 O   0  0  0  0  0  0  0  0  0  0  0  0
   70.1610   79.4011   92.0635 H   0  0  0  0  0  0  0  0  0  0  0  0
   68.8820   77.5234   93.3165 C   0  0  0  0  0  0  0  0  0  0  0  0
   69.9979   77.4192   92.6641 N   0  0  0  0  0  0  0  0  0  0  0  0
   68.6673   74.2224   95.1622 C   0  0  0  0  0  0  0  0  0  0  0  0
   69.1669   75.3306   94.4545 C   0  0  0  0  0  0  0  0  0  0  0  0
   68.3194   76.3744   94.0547 C   0  0  0  0  0  0  0  0  0  0  0  0
   66.9532   76.3061   94.3695 C   0  0  0  0  0  0  0  0  0  0  0  0
   66.4483   75.2186   95.0831 C   0  0  0  0  0  0  0  0  0  0  0  0
   67.2914   74.1816   95.4954 C   0  0  0  0  0  0  0  0  0  0  0  0
   66.7347   73.1509   96.2557 O   0  0  0  0  0  0  0  0  0  0  0  0
   65.8194   73.1582   96.4561 H   0  0  0  0  0  0  0  0  0  0  0  0
   69.4571   72.4147   96.7412 N   0  0  0  0  0  0  0  0  0  0  0  0
   69.5922   73.1202   95.5061 C   0  0  0  0  0  0  0  0  0  0  0  0
   70.5328   72.8175   94.7240 O   0  0  0  0  0  0  0  0  0  0  0  0
   70.0779   71.6827   96.9605 H   0  0  0  0  0  0  0  0  0  0  0  0
   68.7432   72.6605   97.3730 H   0  0  0  0  0  0  0  0  0  0  0  0
   72.1649   79.4374   90.2438 C   0  0  0  0  0  0  0  0  0  0  0  0
   71.1124   80.3473   89.9236 O   0  0  0  0  0  0  0  0  0  0  0  0
   70.9779   81.6552   90.4262 C   0  0  0  0  0  0  0  0  0  0  0  0
   70.5858   81.9037   91.7568 C   0  0  0  0  0  0  0  0  0  0  0  0
   70.4654   83.2107   92.2309 C   0  0  0  0  0  0  0  0  0  0  0  0
   70.7301   84.2920   91.3925 C   0  0  0  0  0  0  0  0  0  0  0  0
   71.1178   84.0738   90.0638 C   0  0  0  0  0  0  0  0  0  0  0  0
   71.3832   85.1608   89.2160 C   0  0  0  0  0  0  0  0  0  0  0  0
   71.7708   84.9420   87.8925 C   0  0  0  0  0  0  0  0  0  0  0  0
   71.8969   83.6400   87.4048 C   0  0  0  0  0  0  0  0  0  0  0  0
   71.6358   82.5476   88.2358 C   0  0  0  0  0  0  0  0  0  0  0  0
   71.2429   82.7481   89.5730 C   0  0  0  0  0  0  0  0  0  0  0  0
 15 16  1  0  0  0
 16 17  2  0  0  0
 16  7  1  0  0  0
  7  8  2  0  0  0
  8  9  1  0  0  0
  9  5  1  0  0  0
  5  6  2  0  0  0
  6  1  1  0  0  0
  1  2  1  0  0  0
  2  3  2  0  0  0
  2 20  1  0  0  0
 20 21  1  0  0  0
 21 22  1  0  0  0
 22 23  2  0  0  0
 23 24  1  0  0  0
 24 25  2  0  0  0
 25 26  1  0  0  0
 26 27  2  0  0  0
 27 28  1  0  0  0
 28 29  2  0  0  0
 29 30  1  0  0  0
 30 31  2  0  0  0
  9 10  2  0  0  0
 10 11  1  0  0  0
 11 12  2  0  0  0
 12 13  1  0  0  0
 12  7  1  0  0  0
 31 22  1  0  0  0
 31 26  1  0  0  0
 15 18  1  0  0  0
 15 19  1  0  0  0
  1  4  1  0  0  0
 13 14  1  0  0  0
M  END
> <Activity>
398.5

> <minimizedAffinity>
-3.63792

> <CNNscore>
0.8290991783

> <CNNaffinity>
5.6670751572

> <CNN_VS>
4.6985673904

$$$$
HIPS7112


 31 33  0  0  0  0  0  0  0  0999 V2000
   70.2195   78.4102   92.1268 N   0  0  0  0  0  0  0  0  0  0  0  0
   71.3744   78.2622   91.2974 C   0  0  0  0  0  0  0  0  0  0  0  0
   72.0129   77.1757   91.2906 O   0  0  0  0  0  0  0  0  0  0  0  0
   69.7492   79.2744   92.1627 H   0  0  0  0  0  0  0  0  0  0  0  0
   68.5678   77.3254   93.4159 C   0  0  0  0  0  0  0  0  0  0  0  0
   69.7533   77.3285   92.8902 N   0  0  0  0  0  0  0  0  0  0  0  0
   68.5411   74.0032   95.2357 C   0  0  0  0  0  0  0  0  0  0  0  0
   68.9626   75.1135   94.4821 C   0  0  0  0  0  0  0  0  0  0  0  0
   68.0872   76.1746   94.2075 C   0  0  0  0  0  0  0  0  0  0  0  0
   66.7723   76.1217   94.6960 C   0  0  0  0  0  0  0  0  0  0  0  0
   66.3467   75.0321   95.4564 C   0  0  0  0  0  0  0  0  0  0  0  0
   67.2194   73.9776   95.7440 C   0  0  0  0  0  0  0  0  0  0  0  0
   66.7494   72.9448   96.5581 O   0  0  0  0  0  0  0  0  0  0  0  0
   65.8679   72.9626   96.8755 H   0  0  0  0  0  0  0  0  0  0  0  0
   70.2473   72.3608   94.3545 N   0  0  0  0  0  0  0  0  0  0  0  0
   69.4850   72.8833   95.4442 C   0  0  0  0  0  0  0  0  0  0  0  0
   69.5979   72.3560   96.5832 O   0  0  0  0  0  0  0  0  0  0  0  0
   70.8727   71.6153   94.5040 H   0  0  0  0  0  0  0  0  0  0  0  0
   70.1471   72.7463   93.4541 H   0  0  0  0  0  0  0  0  0  0  0  0
   71.8264   79.3980   90.4311 C   0  0  0  0  0  0  0  0  0  0  0  0
   71.7149   80.6346   91.1358 O   0  0  0  0  0  0  0  0  0  0  0  0
   71.5373   81.9007   90.5472 C   0  0  0  0  0  0  0  0  0  0  0  0
   71.9747   82.1794   89.2368 C   0  0  0  0  0  0  0  0  0  0  0  0
   71.7810   83.4423   88.6754 C   0  0  0  0  0  0  0  0  0  0  0  0
   71.1523   84.4494   89.4053 C   0  0  0  0  0  0  0  0  0  0  0  0
   70.7112   84.2010   90.7118 C   0  0  0  0  0  0  0  0  0  0  0  0
   70.0793   85.2139   91.4504 C   0  0  0  0  0  0  0  0  0  0  0  0
   69.6389   84.9646   92.7518 C   0  0  0  0  0  0  0  0  0  0  0  0
   69.8244   83.7056   93.3260 C   0  0  0  0  0  0  0  0  0  0  0  0
   70.4520   82.6872   92.6040 C   0  0  0  0  0  0  0  0  0  0  0  0
   70.9038   82.9197   91.2908 C   0  0  0  0  0  0  0  0  0  0  0  0
 15 16  1  0  0  0
 16 17  2  0  0  0
 16  7  1  0  0  0
  7  8  2  0  0  0
  8  9  1  0  0  0
  9  5  1  0  0  0
  5  6  2  0  0  0
  6  1  1  0  0  0
  1  2  1  0  0  0
  2  3  2  0  0  0
  2 20  1  0  0  0
 20 21  1  0  0  0
 21 22  1  0  0  0
 22 23  2  0  0  0
 23 24  1  0  0  0
 24 25  2  0  0  0
 25 26  1  0  0  0
 26 27  2  0  0  0
 27 28  1  0  0  0
 28 29  2  0  0  0
 29 30  1  0  0  0
 30 31  2  0  0  0
  9 10  2  0  0  0
 10 11  1  0  0  0
 11 12  2  0  0  0
 12 13  1  0  0  0
 12  7  1  0  0  0
 31 22  1  0  0  0
 31 26  1  0  0  0
 15 18  1  0  0  0
 15 19  1  0  0  0
  1  4  1  0  0  0
 13 14  1  0  0  0
M  END
> <Activity>
398.5

> <minimizedAffinity>
-3.16693

> <CNNscore>
0.8240315914

> <CNNaffinity>
5.6176137924

> <CNN_VS>
4.6290912628

$$$$
