HIPS6989
 OpenBabel05252300073D

 37 40  0  0  0  0  0  0  0  0999 V2000
   67.3923   80.6927   88.2187 C   0  0  0  0  0  0  0  0  0  0  0  0
   66.5217   79.7892   87.5816 C   0  0  0  0  0  0  0  0  0  0  0  0
   66.6567   78.4122   87.7774 C   0  0  0  0  0  0  0  0  0  0  0  0
   67.6737   77.9171   88.5951 C   0  0  0  0  0  0  0  0  0  0  0  0
   68.5655   78.8044   89.2300 C   0  0  0  0  0  0  0  0  0  0  0  0
   68.3950   80.1908   89.0712 C   0  0  0  0  0  0  0  0  0  0  0  0
   69.6996   78.2829   90.0187 C   0  0  0  0  0  0  0  0  0  0  0  0
   70.8894   79.0166   90.1418 C   0  0  0  0  0  0  0  0  0  0  0  0
   71.9575   78.5051   90.8822 C   0  0  0  0  0  0  0  0  0  0  0  0
   71.8442   77.2608   91.5108 C   0  0  0  0  0  0  0  0  0  0  0  0
   70.6552   76.5334   91.4217 C   0  0  0  0  0  0  0  0  0  0  0  0
   69.5906   77.0363   90.6579 C   0  0  0  0  0  0  0  0  0  0  0  0
   70.5729   75.2851   92.0542 O   0  0  0  0  0  0  0  0  0  0  0  0
   69.6455   74.9424   93.0510 C   0  0  0  0  0  0  0  0  0  0  0  0
   69.4318   75.8315   94.1086 C   0  0  0  0  0  0  0  0  0  0  0  0
   68.4815   75.5528   95.0933 C   0  0  0  0  0  0  0  0  0  0  0  0
   67.7393   74.3614   95.0487 C   0  0  0  0  0  0  0  0  0  0  0  0
   67.9319   73.4761   93.9754 C   0  0  0  0  0  0  0  0  0  0  0  0
   68.8797   73.7636   92.9854 C   0  0  0  0  0  0  0  0  0  0  0  0
   66.6745   74.0657   96.0772 C   0  0  0  0  0  0  0  0  0  0  0  0
   66.3704   75.1950   96.8149 F   0  0  0  0  0  0  0  0  0  0  0  0
   65.5261   73.6266   95.4365 F   0  0  0  0  0  0  0  0  0  0  0  0
   67.1119   73.0796   96.9472 F   0  0  0  0  0  0  0  0  0  0  0  0
   67.1787   82.1760   88.0023 C   0  0  0  0  0  0  0  0  0  0  0  0
   68.0174   82.7353   86.9950 O   0  0  0  0  0  0  0  0  0  0  0  0
   71.2902   83.9987   88.3096 C   0  0  0  0  0  0  0  0  0  0  0  0
   70.1710   83.1661   88.1117 C   0  0  0  0  0  0  0  0  0  0  0  0
   69.1516   83.5339   87.2156 C   0  0  0  0  0  0  0  0  0  0  0  0
   69.2534   84.7414   86.5217 C   0  0  0  0  0  0  0  0  0  0  0  0
   70.3440   85.5818   86.7281 C   0  0  0  0  0  0  0  0  0  0  0  0
   71.3590   85.2358   87.6213 C   0  0  0  0  0  0  0  0  0  0  0  0
   72.3954   86.1513   87.8112 O   0  0  0  0  0  0  0  0  0  0  0  0
   72.4012   86.9580   87.3347 H   0  0  0  0  0  0  0  0  0  0  0  0
   73.3827   84.2404   89.4066 O   0  0  0  0  0  0  0  0  0  0  0  0
   72.3741   83.5169   89.1940 C   0  0  0  0  0  0  0  0  0  0  0  0
   72.2620   82.3067   89.8637 O   0  0  0  0  0  0  0  0  0  0  0  0
   71.5176   81.7570   89.7164 H   0  0  0  0  0  0  0  0  0  0  0  0
  1  2  2  0  0  0  0
  2  3  1  0  0  0  0
  3  4  2  0  0  0  0
  4  5  1  0  0  0  0
  5  7  1  0  0  0  0
  5  6  2  0  0  0  0
  6  1  1  0  0  0  0
  7  8  2  0  0  0  0
  8  9  1  0  0  0  0
  9 10  2  0  0  0  0
 10 11  1  0  0  0  0
 11 13  1  0  0  0  0
 11 12  2  0  0  0  0
 12  7  1  0  0  0  0
 13 14  1  0  0  0  0
 14 15  2  0  0  0  0
 15 16  1  0  0  0  0
 16 17  2  0  0  0  0
 17 20  1  0  0  0  0
 17 18  1  0  0  0  0
 18 19  2  0  0  0  0
 19 14  1  0  0  0  0
 20 21  1  0  0  0  0
 20 22  1  0  0  0  0
 20 23  1  0  0  0  0
 24  1  1  0  0  0  0
 25 24  1  0  0  0  0
 26 27  2  0  0  0  0
 27 28  1  0  0  0  0
 28 25  1  0  0  0  0
 28 29  2  0  0  0  0
 29 30  1  0  0  0  0
 30 31  2  0  0  0  0
 31 32  1  0  0  0  0
 31 26  1  0  0  0  0
 32 33  1  0  0  0  0
 34 35  2  0  0  0  0
 35 36  1  0  0  0  0
 35 26  1  0  0  0  0
 36 37  1  0  0  0  0
M  END
>  <Activity>
3.1

>  <minimizedAffinity>
-10.07960

>  <RFScoreVS_v2>
6.26425529091

$$$$
HIPS6989
 OpenBabel05252300073D

 37 40  0  0  0  0  0  0  0  0999 V2000
   68.1637   73.4390   90.2502 C   0  0  0  0  0  0  0  0  0  0  0  0
   67.3815   72.6077   89.4272 C   0  0  0  0  0  0  0  0  0  0  0  0
   66.6625   73.1413   88.3543 C   0  0  0  0  0  0  0  0  0  0  0  0
   66.6982   74.5131   88.1000 C   0  0  0  0  0  0  0  0  0  0  0  0
   67.4632   75.3649   88.9216 C   0  0  0  0  0  0  0  0  0  0  0  0
   68.2253   74.8178   89.9686 C   0  0  0  0  0  0  0  0  0  0  0  0
   67.4291   76.8265   88.7154 C   0  0  0  0  0  0  0  0  0  0  0  0
   66.7800   77.3823   87.6023 C   0  0  0  0  0  0  0  0  0  0  0  0
   66.7657   78.7662   87.4151 C   0  0  0  0  0  0  0  0  0  0  0  0
   67.3932   79.6066   88.3403 C   0  0  0  0  0  0  0  0  0  0  0  0
   68.0171   79.0692   89.4686 C   0  0  0  0  0  0  0  0  0  0  0  0
   68.0522   77.6772   89.6442 C   0  0  0  0  0  0  0  0  0  0  0  0
   68.6458   79.9344   90.3747 O   0  0  0  0  0  0  0  0  0  0  0  0
   69.5226   80.9739   90.0259 C   0  0  0  0  0  0  0  0  0  0  0  0
   70.8939   80.7989   90.2349 C   0  0  0  0  0  0  0  0  0  0  0  0
   71.8048   81.7870   89.8548 C   0  0  0  0  0  0  0  0  0  0  0  0
   71.3547   82.9846   89.2757 C   0  0  0  0  0  0  0  0  0  0  0  0
   69.9805   83.1557   89.0406 C   0  0  0  0  0  0  0  0  0  0  0  0
   69.0713   82.1587   89.4152 C   0  0  0  0  0  0  0  0  0  0  0  0
   72.3274   84.0431   88.8149 C   0  0  0  0  0  0  0  0  0  0  0  0
   73.4646   84.0477   89.6015 F   0  0  0  0  0  0  0  0  0  0  0  0
   72.6924   83.7913   87.5013 F   0  0  0  0  0  0  0  0  0  0  0  0
   71.7396   85.2960   88.8884 F   0  0  0  0  0  0  0  0  0  0  0  0
   68.9528   72.8046   91.3759 C   0  0  0  0  0  0  0  0  0  0  0  0
   69.1711   73.6736   92.4841 O   0  0  0  0  0  0  0  0  0  0  0  0
   66.7892   76.1966   93.8971 C   0  0  0  0  0  0  0  0  0  0  0  0
   67.7897   75.6223   93.0884 C   0  0  0  0  0  0  0  0  0  0  0  0
   68.1741   74.2812   93.2649 C   0  0  0  0  0  0  0  0  0  0  0  0
   67.5571   73.5177   94.2580 C   0  0  0  0  0  0  0  0  0  0  0  0
   66.5840   74.0831   95.0776 C   0  0  0  0  0  0  0  0  0  0  0  0
   66.1986   75.4153   94.9216 C   0  0  0  0  0  0  0  0  0  0  0  0
   65.2520   75.9249   95.8120 O   0  0  0  0  0  0  0  0  0  0  0  0
   64.8871   75.3723   96.4749 H   0  0  0  0  0  0  0  0  0  0  0  0
   65.2789   78.0209   94.0747 O   0  0  0  0  0  0  0  0  0  0  0  0
   66.3619   77.5827   93.6047 C   0  0  0  0  0  0  0  0  0  0  0  0
   67.1780   78.4423   92.8831 O   0  0  0  0  0  0  0  0  0  0  0  0
   67.9870   78.1315   92.5269 H   0  0  0  0  0  0  0  0  0  0  0  0
  1  2  2  0  0  0  0
  2  3  1  0  0  0  0
  3  4  2  0  0  0  0
  4  5  1  0  0  0  0
  5  7  1  0  0  0  0
  5  6  2  0  0  0  0
  6  1  1  0  0  0  0
  7  8  2  0  0  0  0
  8  9  1  0  0  0  0
  9 10  2  0  0  0  0
 10 11  1  0  0  0  0
 11 13  1  0  0  0  0
 11 12  2  0  0  0  0
 12  7  1  0  0  0  0
 13 14  1  0  0  0  0
 14 15  2  0  0  0  0
 15 16  1  0  0  0  0
 16 17  2  0  0  0  0
 17 20  1  0  0  0  0
 17 18  1  0  0  0  0
 18 19  2  0  0  0  0
 19 14  1  0  0  0  0
 20 21  1  0  0  0  0
 20 22  1  0  0  0  0
 20 23  1  0  0  0  0
 24  1  1  0  0  0  0
 25 24  1  0  0  0  0
 26 27  2  0  0  0  0
 27 28  1  0  0  0  0
 28 25  1  0  0  0  0
 28 29  2  0  0  0  0
 29 30  1  0  0  0  0
 30 31  2  0  0  0  0
 31 32  1  0  0  0  0
 31 26  1  0  0  0  0
 32 33  1  0  0  0  0
 34 35  2  0  0  0  0
 35 36  1  0  0  0  0
 35 26  1  0  0  0  0
 36 37  1  0  0  0  0
M  END
>  <Activity>
3.1

>  <minimizedAffinity>
-9.73562

>  <RFScoreVS_v2>
6.09394736447

$$$$
HIPS6989
 OpenBabel05252300073D

 37 40  0  0  0  0  0  0  0  0999 V2000
   68.2860   75.4534   94.3079 C   0  0  0  0  0  0  0  0  0  0  0  0
   67.0548   74.8941   94.6970 C   0  0  0  0  0  0  0  0  0  0  0  0
   65.8533   75.5466   94.4080 C   0  0  0  0  0  0  0  0  0  0  0  0
   65.8648   76.7747   93.7450 C   0  0  0  0  0  0  0  0  0  0  0  0
   67.0880   77.3592   93.3604 C   0  0  0  0  0  0  0  0  0  0  0  0
   68.2913   76.6755   93.6076 C   0  0  0  0  0  0  0  0  0  0  0  0
   67.1112   78.7008   92.7443 C   0  0  0  0  0  0  0  0  0  0  0  0
   66.4737   79.7881   93.3613 C   0  0  0  0  0  0  0  0  0  0  0  0
   66.4950   81.0489   92.7608 C   0  0  0  0  0  0  0  0  0  0  0  0
   67.1580   81.2359   91.5436 C   0  0  0  0  0  0  0  0  0  0  0  0
   67.8223   80.1695   90.9333 C   0  0  0  0  0  0  0  0  0  0  0  0
   67.7805   78.8974   91.5245 C   0  0  0  0  0  0  0  0  0  0  0  0
   68.4709   80.3836   89.7092 O   0  0  0  0  0  0  0  0  0  0  0  0
   69.4327   81.3770   89.4657 C   0  0  0  0  0  0  0  0  0  0  0  0
   70.6891   81.2622   90.0682 C   0  0  0  0  0  0  0  0  0  0  0  0
   71.6911   82.2007   89.8120 C   0  0  0  0  0  0  0  0  0  0  0  0
   71.4446   83.2898   88.9603 C   0  0  0  0  0  0  0  0  0  0  0  0
   70.1926   83.3969   88.3328 C   0  0  0  0  0  0  0  0  0  0  0  0
   69.1935   82.4487   88.5856 C   0  0  0  0  0  0  0  0  0  0  0  0
   72.5298   84.2872   88.6340 C   0  0  0  0  0  0  0  0  0  0  0  0
   73.0804   84.0322   87.3914 F   0  0  0  0  0  0  0  0  0  0  0  0
   71.9937   85.5658   88.6325 F   0  0  0  0  0  0  0  0  0  0  0  0
   73.5392   84.2215   89.5814 F   0  0  0  0  0  0  0  0  0  0  0  0
   69.5558   74.6870   94.6124 C   0  0  0  0  0  0  0  0  0  0  0  0
   70.1675   74.1103   93.4617 O   0  0  0  0  0  0  0  0  0  0  0  0
   70.5465   70.3840   93.5445 C   0  0  0  0  0  0  0  0  0  0  0  0
   70.5960   71.7331   93.9475 C   0  0  0  0  0  0  0  0  0  0  0  0
   70.1298   72.7536   93.0999 C   0  0  0  0  0  0  0  0  0  0  0  0
   69.6186   72.4197   91.8440 C   0  0  0  0  0  0  0  0  0  0  0  0
   69.5872   71.0917   91.4276 C   0  0  0  0  0  0  0  0  0  0  0  0
   70.0552   70.0683   92.2531 C   0  0  0  0  0  0  0  0  0  0  0  0
   70.0361   68.7674   91.7474 O   0  0  0  0  0  0  0  0  0  0  0  0
   69.7020   68.6039   90.8874 H   0  0  0  0  0  0  0  0  0  0  0  0
   70.4924   69.3481   95.6810 O   0  0  0  0  0  0  0  0  0  0  0  0
   70.9652   69.3474   94.5138 C   0  0  0  0  0  0  0  0  0  0  0  0
   71.8144   68.3180   94.1332 O   0  0  0  0  0  0  0  0  0  0  0  0
   72.1744   68.3032   93.2683 H   0  0  0  0  0  0  0  0  0  0  0  0
  1  2  2  0  0  0  0
  2  3  1  0  0  0  0
  3  4  2  0  0  0  0
  4  5  1  0  0  0  0
  5  7  1  0  0  0  0
  5  6  2  0  0  0  0
  6  1  1  0  0  0  0
  7  8  2  0  0  0  0
  8  9  1  0  0  0  0
  9 10  2  0  0  0  0
 10 11  1  0  0  0  0
 11 13  1  0  0  0  0
 11 12  2  0  0  0  0
 12  7  1  0  0  0  0
 13 14  1  0  0  0  0
 14 15  2  0  0  0  0
 15 16  1  0  0  0  0
 16 17  2  0  0  0  0
 17 20  1  0  0  0  0
 17 18  1  0  0  0  0
 18 19  2  0  0  0  0
 19 14  1  0  0  0  0
 20 21  1  0  0  0  0
 20 22  1  0  0  0  0
 20 23  1  0  0  0  0
 24  1  1  0  0  0  0
 25 24  1  0  0  0  0
 26 27  2  0  0  0  0
 27 28  1  0  0  0  0
 28 25  1  0  0  0  0
 28 29  2  0  0  0  0
 29 30  1  0  0  0  0
 30 31  2  0  0  0  0
 31 32  1  0  0  0  0
 31 26  1  0  0  0  0
 32 33  1  0  0  0  0
 34 35  2  0  0  0  0
 35 36  1  0  0  0  0
 35 26  1  0  0  0  0
 36 37  1  0  0  0  0
M  END
>  <Activity>
3.1

>  <minimizedAffinity>
-9.58570

>  <RFScoreVS_v2>
6.05150279863

$$$$
HIPS6989
 OpenBabel05252300073D

 37 40  0  0  0  0  0  0  0  0999 V2000
   67.2998   80.3179   88.0564 C   0  0  0  0  0  0  0  0  0  0  0  0
   66.4353   79.3444   87.5226 C   0  0  0  0  0  0  0  0  0  0  0  0
   66.6078   77.9925   87.8319 C   0  0  0  0  0  0  0  0  0  0  0  0
   67.6563   77.5918   88.6614 C   0  0  0  0  0  0  0  0  0  0  0  0
   68.5422   78.5495   89.1939 C   0  0  0  0  0  0  0  0  0  0  0  0
   68.3350   79.9131   88.9216 C   0  0  0  0  0  0  0  0  0  0  0  0
   69.7076   78.1225   89.9937 C   0  0  0  0  0  0  0  0  0  0  0  0
   70.8877   78.8816   90.0096 C   0  0  0  0  0  0  0  0  0  0  0  0
   71.9856   78.4590   90.7624 C   0  0  0  0  0  0  0  0  0  0  0  0
   71.9121   77.2793   91.5101 C   0  0  0  0  0  0  0  0  0  0  0  0
   70.7337   76.5297   91.5275 C   0  0  0  0  0  0  0  0  0  0  0  0
   69.6388   76.9416   90.7521 C   0  0  0  0  0  0  0  0  0  0  0  0
   70.6914   75.3469   92.2786 O   0  0  0  0  0  0  0  0  0  0  0  0
   69.6705   74.9936   93.1754 C   0  0  0  0  0  0  0  0  0  0  0  0
   69.4010   75.8369   94.2575 C   0  0  0  0  0  0  0  0  0  0  0  0
   68.3607   75.5491   95.1438 C   0  0  0  0  0  0  0  0  0  0  0  0
   67.5812   74.3933   94.9744 C   0  0  0  0  0  0  0  0  0  0  0  0
   67.8312   73.5555   93.8751 C   0  0  0  0  0  0  0  0  0  0  0  0
   68.8698   73.8524   92.9838 C   0  0  0  0  0  0  0  0  0  0  0  0
   66.4226   74.0911   95.8938 C   0  0  0  0  0  0  0  0  0  0  0  0
   66.6955   72.9953   96.6918 F   0  0  0  0  0  0  0  0  0  0  0  0
   66.1826   75.1884   96.7066 F   0  0  0  0  0  0  0  0  0  0  0  0
   65.2834   73.8197   95.1528 F   0  0  0  0  0  0  0  0  0  0  0  0
   67.0457   81.7721   87.7196 C   0  0  0  0  0  0  0  0  0  0  0  0
   67.5710   82.6837   88.6808 O   0  0  0  0  0  0  0  0  0  0  0  0
   69.6375   85.8086   88.6778 C   0  0  0  0  0  0  0  0  0  0  0  0
   68.5667   84.9250   88.9175 C   0  0  0  0  0  0  0  0  0  0  0  0
   68.6196   83.5937   88.4677 C   0  0  0  0  0  0  0  0  0  0  0  0
   69.7463   83.1508   87.7717 C   0  0  0  0  0  0  0  0  0  0  0  0
   70.7992   84.0230   87.5096 C   0  0  0  0  0  0  0  0  0  0  0  0
   70.7577   85.3498   87.9406 C   0  0  0  0  0  0  0  0  0  0  0  0
   71.8290   86.1766   87.5981 O   0  0  0  0  0  0  0  0  0  0  0  0
   72.5499   85.8310   87.1094 H   0  0  0  0  0  0  0  0  0  0  0  0
   69.2484   87.3260   90.4629 O   0  0  0  0  0  0  0  0  0  0  0  0
   69.5654   87.1694   89.2543 C   0  0  0  0  0  0  0  0  0  0  0  0
   69.9223   88.2807   88.5037 O   0  0  0  0  0  0  0  0  0  0  0  0
   70.1608   88.1808   87.6030 H   0  0  0  0  0  0  0  0  0  0  0  0
  1  2  2  0  0  0  0
  2  3  1  0  0  0  0
  3  4  2  0  0  0  0
  4  5  1  0  0  0  0
  5  7  1  0  0  0  0
  5  6  2  0  0  0  0
  6  1  1  0  0  0  0
  7  8  2  0  0  0  0
  8  9  1  0  0  0  0
  9 10  2  0  0  0  0
 10 11  1  0  0  0  0
 11 13  1  0  0  0  0
 11 12  2  0  0  0  0
 12  7  1  0  0  0  0
 13 14  1  0  0  0  0
 14 15  2  0  0  0  0
 15 16  1  0  0  0  0
 16 17  2  0  0  0  0
 17 20  1  0  0  0  0
 17 18  1  0  0  0  0
 18 19  2  0  0  0  0
 19 14  1  0  0  0  0
 20 21  1  0  0  0  0
 20 22  1  0  0  0  0
 20 23  1  0  0  0  0
 24  1  1  0  0  0  0
 25 24  1  0  0  0  0
 26 27  2  0  0  0  0
 27 28  1  0  0  0  0
 28 25  1  0  0  0  0
 28 29  2  0  0  0  0
 29 30  1  0  0  0  0
 30 31  2  0  0  0  0
 31 32  1  0  0  0  0
 31 26  1  0  0  0  0
 32 33  1  0  0  0  0
 34 35  2  0  0  0  0
 35 36  1  0  0  0  0
 35 26  1  0  0  0  0
 36 37  1  0  0  0  0
M  END
>  <Activity>
3.1

>  <minimizedAffinity>
-9.35757

>  <RFScoreVS_v2>
6.12700850817

$$$$
HIPS6989
 OpenBabel05252300073D

 37 40  0  0  0  0  0  0  0  0999 V2000
   67.6743   76.8040   89.2561 C   0  0  0  0  0  0  0  0  0  0  0  0
   67.0660   76.6348   87.9985 C   0  0  0  0  0  0  0  0  0  0  0  0
   66.8205   77.7350   87.1726 C   0  0  0  0  0  0  0  0  0  0  0  0
   67.1602   79.0201   87.5980 C   0  0  0  0  0  0  0  0  0  0  0  0
   67.7563   79.2127   88.8603 C   0  0  0  0  0  0  0  0  0  0  0  0
   68.0480   78.0986   89.6666 C   0  0  0  0  0  0  0  0  0  0  0  0
   68.0303   80.5768   89.3542 C   0  0  0  0  0  0  0  0  0  0  0  0
   68.0480   80.8553   90.7294 C   0  0  0  0  0  0  0  0  0  0  0  0
   68.2979   82.1530   91.1811 C   0  0  0  0  0  0  0  0  0  0  0  0
   68.5386   83.1814   90.2643 C   0  0  0  0  0  0  0  0  0  0  0  0
   68.5538   82.9127   88.8937 C   0  0  0  0  0  0  0  0  0  0  0  0
   68.2790   81.6137   88.4390 C   0  0  0  0  0  0  0  0  0  0  0  0
   68.7889   83.9645   87.9973 O   0  0  0  0  0  0  0  0  0  0  0  0
   69.8824   84.8434   88.0495 C   0  0  0  0  0  0  0  0  0  0  0  0
   69.6464   86.2011   88.2855 C   0  0  0  0  0  0  0  0  0  0  0  0
   70.7089   87.1008   88.3959 C   0  0  0  0  0  0  0  0  0  0  0  0
   72.0337   86.6585   88.2491 C   0  0  0  0  0  0  0  0  0  0  0  0
   72.2782   85.2917   88.0366 C   0  0  0  0  0  0  0  0  0  0  0  0
   71.2102   84.3916   87.9352 C   0  0  0  0  0  0  0  0  0  0  0  0
   73.1964   87.6072   88.4128 C   0  0  0  0  0  0  0  0  0  0  0  0
   72.7759   88.8249   88.9154 F   0  0  0  0  0  0  0  0  0  0  0  0
   74.1196   87.0561   89.2882 F   0  0  0  0  0  0  0  0  0  0  0  0
   73.8091   87.8271   87.1893 F   0  0  0  0  0  0  0  0  0  0  0  0
   67.9520   75.5747   90.0953 C   0  0  0  0  0  0  0  0  0  0  0  0
   68.9797   75.7622   91.0647 O   0  0  0  0  0  0  0  0  0  0  0  0
   69.8636   72.9976   93.4334 C   0  0  0  0  0  0  0  0  0  0  0  0
   69.7126   73.7211   92.2340 C   0  0  0  0  0  0  0  0  0  0  0  0
   69.1531   75.0111   92.2389 C   0  0  0  0  0  0  0  0  0  0  0  0
   68.7396   75.5730   93.4486 C   0  0  0  0  0  0  0  0  0  0  0  0
   68.8632   74.8566   94.6358 C   0  0  0  0  0  0  0  0  0  0  0  0
   69.4073   73.5715   94.6464 C   0  0  0  0  0  0  0  0  0  0  0  0
   69.4540   72.8972   95.8677 O   0  0  0  0  0  0  0  0  0  0  0  0
   69.1411   73.3150   96.6459 H   0  0  0  0  0  0  0  0  0  0  0  0
   69.9322   70.6434   93.7397 O   0  0  0  0  0  0  0  0  0  0  0  0
   70.5425   71.6841   93.3786 C   0  0  0  0  0  0  0  0  0  0  0  0
   71.8226   71.5653   92.8560 O   0  0  0  0  0  0  0  0  0  0  0  0
   72.2899   72.3301   92.5828 H   0  0  0  0  0  0  0  0  0  0  0  0
  1  2  2  0  0  0  0
  2  3  1  0  0  0  0
  3  4  2  0  0  0  0
  4  5  1  0  0  0  0
  5  7  1  0  0  0  0
  5  6  2  0  0  0  0
  6  1  1  0  0  0  0
  7  8  2  0  0  0  0
  8  9  1  0  0  0  0
  9 10  2  0  0  0  0
 10 11  1  0  0  0  0
 11 13  1  0  0  0  0
 11 12  2  0  0  0  0
 12  7  1  0  0  0  0
 13 14  1  0  0  0  0
 14 15  2  0  0  0  0
 15 16  1  0  0  0  0
 16 17  2  0  0  0  0
 17 20  1  0  0  0  0
 17 18  1  0  0  0  0
 18 19  2  0  0  0  0
 19 14  1  0  0  0  0
 20 21  1  0  0  0  0
 20 22  1  0  0  0  0
 20 23  1  0  0  0  0
 24  1  1  0  0  0  0
 25 24  1  0  0  0  0
 26 27  2  0  0  0  0
 27 28  1  0  0  0  0
 28 25  1  0  0  0  0
 28 29  2  0  0  0  0
 29 30  1  0  0  0  0
 30 31  2  0  0  0  0
 31 32  1  0  0  0  0
 31 26  1  0  0  0  0
 32 33  1  0  0  0  0
 34 35  2  0  0  0  0
 35 36  1  0  0  0  0
 35 26  1  0  0  0  0
 36 37  1  0  0  0  0
M  END
>  <Activity>
3.1

>  <minimizedAffinity>
-9.30310

>  <RFScoreVS_v2>
6.07179950388

$$$$
HIPS6989
 OpenBabel05252300073D

 37 40  0  0  0  0  0  0  0  0999 V2000
   67.2119   79.7525   87.8585 C   0  0  0  0  0  0  0  0  0  0  0  0
   66.6488   78.7845   87.0065 C   0  0  0  0  0  0  0  0  0  0  0  0
   66.9019   77.4250   87.2078 C   0  0  0  0  0  0  0  0  0  0  0  0
   67.7357   77.0143   88.2490 C   0  0  0  0  0  0  0  0  0  0  0  0
   68.3217   77.9688   89.1041 C   0  0  0  0  0  0  0  0  0  0  0  0
   68.0240   79.3316   88.9297 C   0  0  0  0  0  0  0  0  0  0  0  0
   69.2784   77.5469   90.1467 C   0  0  0  0  0  0  0  0  0  0  0  0
   70.5808   78.0679   90.1828 C   0  0  0  0  0  0  0  0  0  0  0  0
   71.4779   77.6509   91.1686 C   0  0  0  0  0  0  0  0  0  0  0  0
   71.0804   76.7159   92.1298 C   0  0  0  0  0  0  0  0  0  0  0  0
   69.7778   76.2116   92.1241 C   0  0  0  0  0  0  0  0  0  0  0  0
   68.8838   76.6125   91.1192 C   0  0  0  0  0  0  0  0  0  0  0  0
   69.4094   75.2690   93.0940 O   0  0  0  0  0  0  0  0  0  0  0  0
   69.6387   73.8866   93.0075 C   0  0  0  0  0  0  0  0  0  0  0  0
   70.0130   73.1910   94.1611 C   0  0  0  0  0  0  0  0  0  0  0  0
   70.2009   71.8075   94.1300 C   0  0  0  0  0  0  0  0  0  0  0  0
   70.0381   71.0943   92.9312 C   0  0  0  0  0  0  0  0  0  0  0  0
   69.6380   71.7839   91.7748 C   0  0  0  0  0  0  0  0  0  0  0  0
   69.4422   73.1701   91.8124 C   0  0  0  0  0  0  0  0  0  0  0  0
   70.1899   69.5930   92.8889 C   0  0  0  0  0  0  0  0  0  0  0  0
   70.4503   69.0852   94.1485 F   0  0  0  0  0  0  0  0  0  0  0  0
   69.0186   69.0259   92.4107 F   0  0  0  0  0  0  0  0  0  0  0  0
   71.2367   69.2424   92.0511 F   0  0  0  0  0  0  0  0  0  0  0  0
   66.8751   81.2091   87.6190 C   0  0  0  0  0  0  0  0  0  0  0  0
   67.5435   82.1052   88.5029 O   0  0  0  0  0  0  0  0  0  0  0  0
   71.1464   82.9389   89.1029 C   0  0  0  0  0  0  0  0  0  0  0  0
   69.8540   82.4140   89.3010 C   0  0  0  0  0  0  0  0  0  0  0  0
   68.8455   82.6065   88.3402 C   0  0  0  0  0  0  0  0  0  0  0  0
   69.1333   83.3315   87.1820 C   0  0  0  0  0  0  0  0  0  0  0  0
   70.4007   83.8740   86.9882 C   0  0  0  0  0  0  0  0  0  0  0  0
   71.4095   83.7003   87.9368 C   0  0  0  0  0  0  0  0  0  0  0  0
   72.6395   84.3146   87.6952 O   0  0  0  0  0  0  0  0  0  0  0  0
   72.7700   84.8091   86.9101 H   0  0  0  0  0  0  0  0  0  0  0  0
   71.8992   81.9596   91.1314 O   0  0  0  0  0  0  0  0  0  0  0  0
   72.1905   82.6262   90.1035 C   0  0  0  0  0  0  0  0  0  0  0  0
   73.5132   82.9871   89.8891 O   0  0  0  0  0  0  0  0  0  0  0  0
   73.7462   83.4830   89.1291 H   0  0  0  0  0  0  0  0  0  0  0  0
  1  2  2  0  0  0  0
  2  3  1  0  0  0  0
  3  4  2  0  0  0  0
  4  5  1  0  0  0  0
  5  7  1  0  0  0  0
  5  6  2  0  0  0  0
  6  1  1  0  0  0  0
  7  8  2  0  0  0  0
  8  9  1  0  0  0  0
  9 10  2  0  0  0  0
 10 11  1  0  0  0  0
 11 13  1  0  0  0  0
 11 12  2  0  0  0  0
 12  7  1  0  0  0  0
 13 14  1  0  0  0  0
 14 15  2  0  0  0  0
 15 16  1  0  0  0  0
 16 17  2  0  0  0  0
 17 20  1  0  0  0  0
 17 18  1  0  0  0  0
 18 19  2  0  0  0  0
 19 14  1  0  0  0  0
 20 21  1  0  0  0  0
 20 22  1  0  0  0  0
 20 23  1  0  0  0  0
 24  1  1  0  0  0  0
 25 24  1  0  0  0  0
 26 27  2  0  0  0  0
 27 28  1  0  0  0  0
 28 25  1  0  0  0  0
 28 29  2  0  0  0  0
 29 30  1  0  0  0  0
 30 31  2  0  0  0  0
 31 32  1  0  0  0  0
 31 26  1  0  0  0  0
 32 33  1  0  0  0  0
 34 35  2  0  0  0  0
 35 36  1  0  0  0  0
 35 26  1  0  0  0  0
 36 37  1  0  0  0  0
M  END
>  <Activity>
3.1

>  <minimizedAffinity>
-9.27133

>  <RFScoreVS_v2>
6.13584205965

$$$$
HIPS6989
 OpenBabel05252300073D

 37 40  0  0  0  0  0  0  0  0999 V2000
   69.7491   76.7624   92.5879 C   0  0  0  0  0  0  0  0  0  0  0  0
   71.1365   76.8327   92.3640 C   0  0  0  0  0  0  0  0  0  0  0  0
   71.6406   77.4029   91.1920 C   0  0  0  0  0  0  0  0  0  0  0  0
   70.7676   77.8925   90.2193 C   0  0  0  0  0  0  0  0  0  0  0  0
   69.3744   77.8178   90.4175 C   0  0  0  0  0  0  0  0  0  0  0  0
   68.8723   77.2898   91.6199 C   0  0  0  0  0  0  0  0  0  0  0  0
   68.4465   78.2469   89.3522 C   0  0  0  0  0  0  0  0  0  0  0  0
   67.9401   77.3251   88.4233 C   0  0  0  0  0  0  0  0  0  0  0  0
   67.0719   77.7482   87.4145 C   0  0  0  0  0  0  0  0  0  0  0  0
   66.6972   79.0930   87.3288 C   0  0  0  0  0  0  0  0  0  0  0  0
   67.1697   80.0160   88.2646 C   0  0  0  0  0  0  0  0  0  0  0  0
   68.0610   79.5953   89.2638 C   0  0  0  0  0  0  0  0  0  0  0  0
   66.7849   81.3589   88.1492 O   0  0  0  0  0  0  0  0  0  0  0  0
   67.6612   82.4381   87.9535 C   0  0  0  0  0  0  0  0  0  0  0  0
   67.4704   83.2704   86.8464 C   0  0  0  0  0  0  0  0  0  0  0  0
   68.2875   84.3845   86.6427 C   0  0  0  0  0  0  0  0  0  0  0  0
   69.3308   84.6745   87.5370 C   0  0  0  0  0  0  0  0  0  0  0  0
   69.5117   83.8564   88.6643 C   0  0  0  0  0  0  0  0  0  0  0  0
   68.6845   82.7452   88.8695 C   0  0  0  0  0  0  0  0  0  0  0  0
   70.1933   85.9006   87.3595 C   0  0  0  0  0  0  0  0  0  0  0  0
   71.0822   86.0379   88.4098 F   0  0  0  0  0  0  0  0  0  0  0  0
   70.9098   85.7914   86.1777 F   0  0  0  0  0  0  0  0  0  0  0  0
   69.4020   87.0371   87.3049 F   0  0  0  0  0  0  0  0  0  0  0  0
   69.2569   76.1690   93.8911 C   0  0  0  0  0  0  0  0  0  0  0  0
   68.4503   75.0062   93.7234 O   0  0  0  0  0  0  0  0  0  0  0  0
   70.0433   71.6656   93.1414 C   0  0  0  0  0  0  0  0  0  0  0  0
   69.6557   72.8581   93.7838 C   0  0  0  0  0  0  0  0  0  0  0  0
   68.8528   73.8030   93.1206 C   0  0  0  0  0  0  0  0  0  0  0  0
   68.4432   73.5528   91.8092 C   0  0  0  0  0  0  0  0  0  0  0  0
   68.8405   72.3882   91.1581 C   0  0  0  0  0  0  0  0  0  0  0  0
   69.6454   71.4453   91.7990 C   0  0  0  0  0  0  0  0  0  0  0  0
   70.0427   70.3261   91.0655 O   0  0  0  0  0  0  0  0  0  0  0  0
   69.7558   70.2205   90.1798 H   0  0  0  0  0  0  0  0  0  0  0  0
   70.3063   69.5416   94.1712 O   0  0  0  0  0  0  0  0  0  0  0  0
   70.8103   70.6679   93.9196 C   0  0  0  0  0  0  0  0  0  0  0  0
   72.1170   70.9221   94.3116 O   0  0  0  0  0  0  0  0  0  0  0  0
   72.5065   71.7552   94.1318 H   0  0  0  0  0  0  0  0  0  0  0  0
  1  2  2  0  0  0  0
  2  3  1  0  0  0  0
  3  4  2  0  0  0  0
  4  5  1  0  0  0  0
  5  7  1  0  0  0  0
  5  6  2  0  0  0  0
  6  1  1  0  0  0  0
  7  8  2  0  0  0  0
  8  9  1  0  0  0  0
  9 10  2  0  0  0  0
 10 11  1  0  0  0  0
 11 13  1  0  0  0  0
 11 12  2  0  0  0  0
 12  7  1  0  0  0  0
 13 14  1  0  0  0  0
 14 15  2  0  0  0  0
 15 16  1  0  0  0  0
 16 17  2  0  0  0  0
 17 20  1  0  0  0  0
 17 18  1  0  0  0  0
 18 19  2  0  0  0  0
 19 14  1  0  0  0  0
 20 21  1  0  0  0  0
 20 22  1  0  0  0  0
 20 23  1  0  0  0  0
 24  1  1  0  0  0  0
 25 24  1  0  0  0  0
 26 27  2  0  0  0  0
 27 28  1  0  0  0  0
 28 25  1  0  0  0  0
 28 29  2  0  0  0  0
 29 30  1  0  0  0  0
 30 31  2  0  0  0  0
 31 32  1  0  0  0  0
 31 26  1  0  0  0  0
 32 33  1  0  0  0  0
 34 35  2  0  0  0  0
 35 36  1  0  0  0  0
 35 26  1  0  0  0  0
 36 37  1  0  0  0  0
M  END
>  <Activity>
3.1

>  <minimizedAffinity>
-9.19562

>  <RFScoreVS_v2>
6.10791410728

$$$$
HIPS6989
 OpenBabel05252300073D

 37 40  0  0  0  0  0  0  0  0999 V2000
   66.7709   80.9613   90.0822 C   0  0  0  0  0  0  0  0  0  0  0  0
   66.1518   80.5600   88.8840 C   0  0  0  0  0  0  0  0  0  0  0  0
   66.6294   79.4575   88.1703 C   0  0  0  0  0  0  0  0  0  0  0  0
   67.7424   78.7530   88.6316 C   0  0  0  0  0  0  0  0  0  0  0  0
   68.3861   79.1480   89.8213 C   0  0  0  0  0  0  0  0  0  0  0  0
   67.8720   80.2260   90.5629 C   0  0  0  0  0  0  0  0  0  0  0  0
   69.6189   78.4660   90.2628 C   0  0  0  0  0  0  0  0  0  0  0  0
   70.8831   78.9881   89.9492 C   0  0  0  0  0  0  0  0  0  0  0  0
   72.0403   78.3256   90.3645 C   0  0  0  0  0  0  0  0  0  0  0  0
   71.9451   77.1407   91.1015 C   0  0  0  0  0  0  0  0  0  0  0  0
   70.6934   76.6257   91.4466 C   0  0  0  0  0  0  0  0  0  0  0  0
   69.5307   77.2784   91.0088 C   0  0  0  0  0  0  0  0  0  0  0  0
   70.6277   75.4317   92.1782 O   0  0  0  0  0  0  0  0  0  0  0  0
   69.5803   75.0661   93.0386 C   0  0  0  0  0  0  0  0  0  0  0  0
   69.5054   75.6611   94.3016 C   0  0  0  0  0  0  0  0  0  0  0  0
   68.4513   75.3641   95.1682 C   0  0  0  0  0  0  0  0  0  0  0  0
   67.4593   74.4437   94.7925 C   0  0  0  0  0  0  0  0  0  0  0  0
   67.5157   73.8616   93.5154 C   0  0  0  0  0  0  0  0  0  0  0  0
   68.5698   74.1689   92.6461 C   0  0  0  0  0  0  0  0  0  0  0  0
   66.2872   74.1465   95.6962 C   0  0  0  0  0  0  0  0  0  0  0  0
   66.5756   73.1020   96.5552 F   0  0  0  0  0  0  0  0  0  0  0  0
   65.9877   75.2735   96.4461 F   0  0  0  0  0  0  0  0  0  0  0  0
   65.1785   73.7983   94.9411 F   0  0  0  0  0  0  0  0  0  0  0  0
   66.1905   82.1394   90.8358 C   0  0  0  0  0  0  0  0  0  0  0  0
   66.8225   83.3806   90.5346 O   0  0  0  0  0  0  0  0  0  0  0  0
   69.8697   83.9444   88.4292 C   0  0  0  0  0  0  0  0  0  0  0  0
   68.5179   83.7860   88.7933 C   0  0  0  0  0  0  0  0  0  0  0  0
   68.1574   83.5502   90.1319 C   0  0  0  0  0  0  0  0  0  0  0  0
   69.1556   83.4678   91.1049 C   0  0  0  0  0  0  0  0  0  0  0  0
   70.4956   83.5996   90.7513 C   0  0  0  0  0  0  0  0  0  0  0  0
   70.8703   83.8241   89.4257 C   0  0  0  0  0  0  0  0  0  0  0  0
   72.2350   83.8971   89.1412 O   0  0  0  0  0  0  0  0  0  0  0  0
   72.8627   83.8121   89.8316 H   0  0  0  0  0  0  0  0  0  0  0  0
   71.0627   83.6333   86.3993 O   0  0  0  0  0  0  0  0  0  0  0  0
   70.1815   84.2819   87.0228 C   0  0  0  0  0  0  0  0  0  0  0  0
   69.4586   85.2545   86.3466 O   0  0  0  0  0  0  0  0  0  0  0  0
   68.7996   85.7458   86.7964 H   0  0  0  0  0  0  0  0  0  0  0  0
  1  2  2  0  0  0  0
  2  3  1  0  0  0  0
  3  4  2  0  0  0  0
  4  5  1  0  0  0  0
  5  7  1  0  0  0  0
  5  6  2  0  0  0  0
  6  1  1  0  0  0  0
  7  8  2  0  0  0  0
  8  9  1  0  0  0  0
  9 10  2  0  0  0  0
 10 11  1  0  0  0  0
 11 13  1  0  0  0  0
 11 12  2  0  0  0  0
 12  7  1  0  0  0  0
 13 14  1  0  0  0  0
 14 15  2  0  0  0  0
 15 16  1  0  0  0  0
 16 17  2  0  0  0  0
 17 20  1  0  0  0  0
 17 18  1  0  0  0  0
 18 19  2  0  0  0  0
 19 14  1  0  0  0  0
 20 21  1  0  0  0  0
 20 22  1  0  0  0  0
 20 23  1  0  0  0  0
 24  1  1  0  0  0  0
 25 24  1  0  0  0  0
 26 27  2  0  0  0  0
 27 28  1  0  0  0  0
 28 25  1  0  0  0  0
 28 29  2  0  0  0  0
 29 30  1  0  0  0  0
 30 31  2  0  0  0  0
 31 32  1  0  0  0  0
 31 26  1  0  0  0  0
 32 33  1  0  0  0  0
 34 35  2  0  0  0  0
 35 36  1  0  0  0  0
 35 26  1  0  0  0  0
 36 37  1  0  0  0  0
M  END
>  <Activity>
3.1

>  <minimizedAffinity>
-9.15907

>  <RFScoreVS_v2>
6.15925083441

$$$$
HIPS6989
 OpenBabel05252300073D

 37 40  0  0  0  0  0  0  0  0999 V2000
   68.2419   75.4518   94.3809 C   0  0  0  0  0  0  0  0  0  0  0  0
   67.0202   74.9521   94.8685 C   0  0  0  0  0  0  0  0  0  0  0  0
   65.8337   75.6665   94.6823 C   0  0  0  0  0  0  0  0  0  0  0  0
   65.8529   76.8976   94.0251 C   0  0  0  0  0  0  0  0  0  0  0  0
   67.0683   77.4228   93.5427 C   0  0  0  0  0  0  0  0  0  0  0  0
   68.2516   76.6775   93.6870 C   0  0  0  0  0  0  0  0  0  0  0  0
   67.1088   78.7664   92.9318 C   0  0  0  0  0  0  0  0  0  0  0  0
   66.7010   79.8986   93.6535 C   0  0  0  0  0  0  0  0  0  0  0  0
   66.7346   81.1616   93.0583 C   0  0  0  0  0  0  0  0  0  0  0  0
   67.1815   81.3054   91.7408 C   0  0  0  0  0  0  0  0  0  0  0  0
   67.6187   80.1913   91.0208 C   0  0  0  0  0  0  0  0  0  0  0  0
   67.5623   78.9191   91.6106 C   0  0  0  0  0  0  0  0  0  0  0  0
   68.0529   80.3635   89.6991 O   0  0  0  0  0  0  0  0  0  0  0  0
   68.8644   81.4150   89.2442 C   0  0  0  0  0  0  0  0  0  0  0  0
   70.1575   81.5418   89.7607 C   0  0  0  0  0  0  0  0  0  0  0  0
   71.0150   82.5424   89.2981 C   0  0  0  0  0  0  0  0  0  0  0  0
   70.5832   83.4532   88.3203 C   0  0  0  0  0  0  0  0  0  0  0  0
   69.2941   83.3156   87.7799 C   0  0  0  0  0  0  0  0  0  0  0  0
   68.4404   82.3054   88.2403 C   0  0  0  0  0  0  0  0  0  0  0  0
   71.5116   84.5107   87.7738 C   0  0  0  0  0  0  0  0  0  0  0  0
   72.7910   84.0117   87.6118 F   0  0  0  0  0  0  0  0  0  0  0  0
   71.0410   84.9445   86.5440 F   0  0  0  0  0  0  0  0  0  0  0  0
   71.5697   85.5897   88.6417 F   0  0  0  0  0  0  0  0  0  0  0  0
   69.4920   74.6200   94.5764 C   0  0  0  0  0  0  0  0  0  0  0  0
   70.1075   74.2143   93.3568 O   0  0  0  0  0  0  0  0  0  0  0  0
   68.1657   74.2614   90.1531 C   0  0  0  0  0  0  0  0  0  0  0  0
   68.8330   74.7145   91.3083 C   0  0  0  0  0  0  0  0  0  0  0  0
   69.4386   73.8036   92.1919 C   0  0  0  0  0  0  0  0  0  0  0  0
   69.3693   72.4360   91.9184 C   0  0  0  0  0  0  0  0  0  0  0  0
   68.6920   71.9771   90.7919 C   0  0  0  0  0  0  0  0  0  0  0  0
   68.0774   72.8677   89.9105 C   0  0  0  0  0  0  0  0  0  0  0  0
   67.3762   72.3303   88.8298 O   0  0  0  0  0  0  0  0  0  0  0  0
   67.3438   71.4019   88.7073 H   0  0  0  0  0  0  0  0  0  0  0  0
   68.0690   76.4494   89.2346 O   0  0  0  0  0  0  0  0  0  0  0  0
   67.6282   75.2700   89.2135 C   0  0  0  0  0  0  0  0  0  0  0  0
   66.6971   74.9177   88.2467 O   0  0  0  0  0  0  0  0  0  0  0  0
   66.3594   74.0442   88.2177 H   0  0  0  0  0  0  0  0  0  0  0  0
  1  2  2  0  0  0  0
  2  3  1  0  0  0  0
  3  4  2  0  0  0  0
  4  5  1  0  0  0  0
  5  7  1  0  0  0  0
  5  6  2  0  0  0  0
  6  1  1  0  0  0  0
  7  8  2  0  0  0  0
  8  9  1  0  0  0  0
  9 10  2  0  0  0  0
 10 11  1  0  0  0  0
 11 13  1  0  0  0  0
 11 12  2  0  0  0  0
 12  7  1  0  0  0  0
 13 14  1  0  0  0  0
 14 15  2  0  0  0  0
 15 16  1  0  0  0  0
 16 17  2  0  0  0  0
 17 20  1  0  0  0  0
 17 18  1  0  0  0  0
 18 19  2  0  0  0  0
 19 14  1  0  0  0  0
 20 21  1  0  0  0  0
 20 22  1  0  0  0  0
 20 23  1  0  0  0  0
 24  1  1  0  0  0  0
 25 24  1  0  0  0  0
 26 27  2  0  0  0  0
 27 28  1  0  0  0  0
 28 25  1  0  0  0  0
 28 29  2  0  0  0  0
 29 30  1  0  0  0  0
 30 31  2  0  0  0  0
 31 32  1  0  0  0  0
 31 26  1  0  0  0  0
 32 33  1  0  0  0  0
 34 35  2  0  0  0  0
 35 36  1  0  0  0  0
 35 26  1  0  0  0  0
 36 37  1  0  0  0  0
M  END
>  <Activity>
3.1

>  <minimizedAffinity>
-9.05536

>  <RFScoreVS_v2>
6.08221208105

$$$$
HIPS6989
 OpenBabel05252300073D

 37 40  0  0  0  0  0  0  0  0999 V2000
   66.7082   77.1794   93.1383 C   0  0  0  0  0  0  0  0  0  0  0  0
   65.9713   77.9547   94.0527 C   0  0  0  0  0  0  0  0  0  0  0  0
   65.3826   79.1578   93.6539 C   0  0  0  0  0  0  0  0  0  0  0  0
   65.5377   79.6132   92.3438 C   0  0  0  0  0  0  0  0  0  0  0  0
   66.2846   78.8592   91.4168 C   0  0  0  0  0  0  0  0  0  0  0  0
   66.8324   77.6249   91.8079 C   0  0  0  0  0  0  0  0  0  0  0  0
   66.5311   79.3819   90.0581 C   0  0  0  0  0  0  0  0  0  0  0  0
   66.4465   78.5425   88.9368 C   0  0  0  0  0  0  0  0  0  0  0  0
   66.6932   79.0491   87.6589 C   0  0  0  0  0  0  0  0  0  0  0  0
   67.0196   80.3985   87.4893 C   0  0  0  0  0  0  0  0  0  0  0  0
   67.0778   81.2522   88.5933 C   0  0  0  0  0  0  0  0  0  0  0  0
   66.8535   80.7380   89.8797 C   0  0  0  0  0  0  0  0  0  0  0  0
   67.4160   82.5980   88.3949 O   0  0  0  0  0  0  0  0  0  0  0  0
   68.7235   83.1088   88.3700 C   0  0  0  0  0  0  0  0  0  0  0  0
   69.4097   83.2664   89.5780 C   0  0  0  0  0  0  0  0  0  0  0  0
   70.7295   83.7228   89.5940 C   0  0  0  0  0  0  0  0  0  0  0  0
   71.3826   84.0527   88.3952 C   0  0  0  0  0  0  0  0  0  0  0  0
   70.7069   83.8730   87.1771 C   0  0  0  0  0  0  0  0  0  0  0  0
   69.3864   83.4068   87.1650 C   0  0  0  0  0  0  0  0  0  0  0  0
   72.8239   84.5016   88.3892 C   0  0  0  0  0  0  0  0  0  0  0  0
   73.4937   84.0037   87.2867 F   0  0  0  0  0  0  0  0  0  0  0  0
   72.8738   85.8867   88.3557 F   0  0  0  0  0  0  0  0  0  0  0  0
   73.4682   84.0536   89.5315 F   0  0  0  0  0  0  0  0  0  0  0  0
   67.2934   75.8658   93.6123 C   0  0  0  0  0  0  0  0  0  0  0  0
   68.5080   75.5096   92.9575 O   0  0  0  0  0  0  0  0  0  0  0  0
   70.1286   72.1319   92.9759 C   0  0  0  0  0  0  0  0  0  0  0  0
   69.7567   73.4285   93.3825 C   0  0  0  0  0  0  0  0  0  0  0  0
   68.8973   74.2108   92.5908 C   0  0  0  0  0  0  0  0  0  0  0  0
   68.4152   73.6927   91.3870 C   0  0  0  0  0  0  0  0  0  0  0  0
   68.7957   72.4216   90.9654 C   0  0  0  0  0  0  0  0  0  0  0  0
   69.6558   71.6368   91.7349 C   0  0  0  0  0  0  0  0  0  0  0  0
   70.0305   70.3931   91.2236 O   0  0  0  0  0  0  0  0  0  0  0  0
   69.6934   70.1051   90.3981 H   0  0  0  0  0  0  0  0  0  0  0  0
   70.4142   70.5242   94.7006 O   0  0  0  0  0  0  0  0  0  0  0  0
   70.9601   71.3215   93.8930 C   0  0  0  0  0  0  0  0  0  0  0  0
   72.3454   71.3641   93.8237 O   0  0  0  0  0  0  0  0  0  0  0  0
   72.7668   71.9519   93.2280 H   0  0  0  0  0  0  0  0  0  0  0  0
  1  2  2  0  0  0  0
  2  3  1  0  0  0  0
  3  4  2  0  0  0  0
  4  5  1  0  0  0  0
  5  7  1  0  0  0  0
  5  6  2  0  0  0  0
  6  1  1  0  0  0  0
  7  8  2  0  0  0  0
  8  9  1  0  0  0  0
  9 10  2  0  0  0  0
 10 11  1  0  0  0  0
 11 13  1  0  0  0  0
 11 12  2  0  0  0  0
 12  7  1  0  0  0  0
 13 14  1  0  0  0  0
 14 15  2  0  0  0  0
 15 16  1  0  0  0  0
 16 17  2  0  0  0  0
 17 20  1  0  0  0  0
 17 18  1  0  0  0  0
 18 19  2  0  0  0  0
 19 14  1  0  0  0  0
 20 21  1  0  0  0  0
 20 22  1  0  0  0  0
 20 23  1  0  0  0  0
 24  1  1  0  0  0  0
 25 24  1  0  0  0  0
 26 27  2  0  0  0  0
 27 28  1  0  0  0  0
 28 25  1  0  0  0  0
 28 29  2  0  0  0  0
 29 30  1  0  0  0  0
 30 31  2  0  0  0  0
 31 32  1  0  0  0  0
 31 26  1  0  0  0  0
 32 33  1  0  0  0  0
 34 35  2  0  0  0  0
 35 36  1  0  0  0  0
 35 26  1  0  0  0  0
 36 37  1  0  0  0  0
M  END
>  <Activity>
3.1

>  <minimizedAffinity>
-8.98287

>  <RFScoreVS_v2>
6.11101959544

$$$$
HIPS7002
 OpenBabel05252300073D

 39 42  0  0  0  0  0  0  0  0999 V2000
   66.9888   75.1060   88.9259 C   0  0  0  0  0  0  0  0  0  0  0  0
   66.4192   74.2710   87.9529 C   0  0  0  0  0  0  0  0  0  0  0  0
   66.6574   72.8957   87.9810 C   0  0  0  0  0  0  0  0  0  0  0  0
   67.4571   72.3404   88.9829 C   0  0  0  0  0  0  0  0  0  0  0  0
   68.0238   73.1584   89.9759 C   0  0  0  0  0  0  0  0  0  0  0  0
   67.7797   74.5433   89.9404 C   0  0  0  0  0  0  0  0  0  0  0  0
   68.8689   72.5702   91.0448 C   0  0  0  0  0  0  0  0  0  0  0  0
   69.3104   71.2389   90.9542 C   0  0  0  0  0  0  0  0  0  0  0  0
   70.1111   70.6909   91.9582 C   0  0  0  0  0  0  0  0  0  0  0  0
   70.4755   71.4592   93.0655 C   0  0  0  0  0  0  0  0  0  0  0  0
   70.0334   72.7904   93.1801 C   0  0  0  0  0  0  0  0  0  0  0  0
   69.2402   73.3371   92.1641 C   0  0  0  0  0  0  0  0  0  0  0  0
   70.3520   73.6022   94.2810 O   0  0  0  0  0  0  0  0  0  0  0  0
   69.4255   74.0504   95.2716 C   0  0  0  0  0  0  0  0  0  0  0  0
   68.4717   75.0668   94.6995 C   0  0  0  0  0  0  0  0  0  0  0  0
   67.0925   74.8108   94.6795 C   0  0  0  0  0  0  0  0  0  0  0  0
   66.2055   75.7525   94.1491 C   0  0  0  0  0  0  0  0  0  0  0  0
   66.6892   76.9627   93.6161 C   0  0  0  0  0  0  0  0  0  0  0  0
   68.0681   77.2031   93.6165 C   0  0  0  0  0  0  0  0  0  0  0  0
   68.9547   76.2629   94.1485 C   0  0  0  0  0  0  0  0  0  0  0  0
   65.8450   77.9481   93.0796 O   0  0  0  0  0  0  0  0  0  0  0  0
   65.3605   79.0902   93.7831 C   0  0  0  0  0  0  0  0  0  0  0  0
   66.3661   80.0315   93.9160 F   0  0  0  0  0  0  0  0  0  0  0  0
   64.8941   78.7179   95.0314 F   0  0  0  0  0  0  0  0  0  0  0  0
   64.3197   79.6492   93.0678 F   0  0  0  0  0  0  0  0  0  0  0  0
   66.7530   76.5930   88.8946 C   0  0  0  0  0  0  0  0  0  0  0  0
   67.2659   77.2096   90.0765 O   0  0  0  0  0  0  0  0  0  0  0  0
   70.7854   78.3659   90.2555 C   0  0  0  0  0  0  0  0  0  0  0  0
   69.6445   77.5429   90.2093 C   0  0  0  0  0  0  0  0  0  0  0  0
   68.3599   78.0895   90.1233 C   0  0  0  0  0  0  0  0  0  0  0  0
   68.2106   79.4863   90.0949 C   0  0  0  0  0  0  0  0  0  0  0  0
   69.3335   80.3137   90.1213 C   0  0  0  0  0  0  0  0  0  0  0  0
   70.6212   79.7704   90.1753 C   0  0  0  0  0  0  0  0  0  0  0  0
   71.7020   80.6523   90.1109 O   0  0  0  0  0  0  0  0  0  0  0  0
   71.5508   81.5756   90.0587 H   0  0  0  0  0  0  0  0  0  0  0  0
   72.9458   77.7558   89.4768 O   0  0  0  0  0  0  0  0  0  0  0  0
   72.1117   77.7306   90.4216 C   0  0  0  0  0  0  0  0  0  0  0  0
   72.4301   77.0490   91.5917 O   0  0  0  0  0  0  0  0  0  0  0  0
   71.8178   77.0236   92.3005 H   0  0  0  0  0  0  0  0  0  0  0  0
  1  2  2  0  0  0  0
  2  3  1  0  0  0  0
  3  4  2  0  0  0  0
  4  5  1  0  0  0  0
  5  7  1  0  0  0  0
  5  6  2  0  0  0  0
  6  1  1  0  0  0  0
  7  8  2  0  0  0  0
  8  9  1  0  0  0  0
  9 10  2  0  0  0  0
 10 11  1  0  0  0  0
 11 13  1  0  0  0  0
 11 12  2  0  0  0  0
 12  7  1  0  0  0  0
 13 14  1  0  0  0  0
 14 15  1  0  0  0  0
 15 16  2  0  0  0  0
 16 17  1  0  0  0  0
 17 18  2  0  0  0  0
 18 21  1  0  0  0  0
 18 19  1  0  0  0  0
 19 20  2  0  0  0  0
 20 15  1  0  0  0  0
 21 22  1  0  0  0  0
 22 23  1  0  0  0  0
 22 24  1  0  0  0  0
 22 25  1  0  0  0  0
 26  1  1  0  0  0  0
 27 26  1  0  0  0  0
 28 29  2  0  0  0  0
 29 30  1  0  0  0  0
 30 27  1  0  0  0  0
 30 31  2  0  0  0  0
 31 32  1  0  0  0  0
 32 33  2  0  0  0  0
 33 34  1  0  0  0  0
 33 28  1  0  0  0  0
 34 35  1  0  0  0  0
 36 37  2  0  0  0  0
 37 38  1  0  0  0  0
 37 28  1  0  0  0  0
 38 39  1  0  0  0  0
M  END
>  <Activity>
3.2

>  <minimizedAffinity>
-9.65981

>  <RFScoreVS_v2>
6.27555157483

$$$$
HIPS7002
 OpenBabel05252300073D

 39 42  0  0  0  0  0  0  0  0999 V2000
   67.3694   75.3832   89.0595 C   0  0  0  0  0  0  0  0  0  0  0  0
   66.6417   74.6238   88.1311 C   0  0  0  0  0  0  0  0  0  0  0  0
   66.6650   73.2293   88.1920 C   0  0  0  0  0  0  0  0  0  0  0  0
   67.4058   72.5806   89.1829 C   0  0  0  0  0  0  0  0  0  0  0  0
   68.1288   73.3241   90.1321 C   0  0  0  0  0  0  0  0  0  0  0  0
   68.1009   74.7289   90.0636 C   0  0  0  0  0  0  0  0  0  0  0  0
   68.9119   72.6374   91.1895 C   0  0  0  0  0  0  0  0  0  0  0  0
   69.3210   71.3033   91.0220 C   0  0  0  0  0  0  0  0  0  0  0  0
   70.0635   70.6626   92.0158 C   0  0  0  0  0  0  0  0  0  0  0  0
   70.4011   71.3400   93.1889 C   0  0  0  0  0  0  0  0  0  0  0  0
   69.9904   72.6725   93.3803 C   0  0  0  0  0  0  0  0  0  0  0  0
   69.2559   73.3125   92.3747 C   0  0  0  0  0  0  0  0  0  0  0  0
   70.2837   73.3951   94.5483 O   0  0  0  0  0  0  0  0  0  0  0  0
   69.3163   73.9224   95.4575 C   0  0  0  0  0  0  0  0  0  0  0  0
   68.4790   74.9877   94.7986 C   0  0  0  0  0  0  0  0  0  0  0  0
   67.0943   74.8127   94.6562 C   0  0  0  0  0  0  0  0  0  0  0  0
   66.3153   75.7998   94.0450 C   0  0  0  0  0  0  0  0  0  0  0  0
   66.9153   76.9748   93.5529 C   0  0  0  0  0  0  0  0  0  0  0  0
   68.3005   77.1341   93.6758 C   0  0  0  0  0  0  0  0  0  0  0  0
   69.0790   76.1484   94.2885 C   0  0  0  0  0  0  0  0  0  0  0  0
   66.1821   78.0031   92.9393 O   0  0  0  0  0  0  0  0  0  0  0  0
   65.6519   79.1475   93.6051 C   0  0  0  0  0  0  0  0  0  0  0  0
   66.6673   80.0381   93.9060 F   0  0  0  0  0  0  0  0  0  0  0  0
   65.0005   78.7648   94.7642 F   0  0  0  0  0  0  0  0  0  0  0  0
   64.7455   79.7718   92.7707 F   0  0  0  0  0  0  0  0  0  0  0  0
   67.3656   76.8876   88.9920 C   0  0  0  0  0  0  0  0  0  0  0  0
   68.0007   77.4453   90.1434 O   0  0  0  0  0  0  0  0  0  0  0  0
   69.4505   80.8507   89.9025 C   0  0  0  0  0  0  0  0  0  0  0  0
   68.5365   79.7806   89.9293 C   0  0  0  0  0  0  0  0  0  0  0  0
   68.9675   78.4642   90.1231 C   0  0  0  0  0  0  0  0  0  0  0  0
   70.3402   78.2095   90.2814 C   0  0  0  0  0  0  0  0  0  0  0  0
   71.2555   79.2623   90.2755 C   0  0  0  0  0  0  0  0  0  0  0  0
   70.8253   80.5833   90.1137 C   0  0  0  0  0  0  0  0  0  0  0  0
   71.7837   81.5948   90.2049 O   0  0  0  0  0  0  0  0  0  0  0  0
   72.6839   81.3760   90.3452 H   0  0  0  0  0  0  0  0  0  0  0  0
   69.2019   83.1588   90.4084 O   0  0  0  0  0  0  0  0  0  0  0  0
   68.9415   82.2111   89.6191 C   0  0  0  0  0  0  0  0  0  0  0  0
   68.1237   82.4476   88.5190 O   0  0  0  0  0  0  0  0  0  0  0  0
   67.9235   81.7506   87.9256 H   0  0  0  0  0  0  0  0  0  0  0  0
  1  2  2  0  0  0  0
  2  3  1  0  0  0  0
  3  4  2  0  0  0  0
  4  5  1  0  0  0  0
  5  7  1  0  0  0  0
  5  6  2  0  0  0  0
  6  1  1  0  0  0  0
  7  8  2  0  0  0  0
  8  9  1  0  0  0  0
  9 10  2  0  0  0  0
 10 11  1  0  0  0  0
 11 13  1  0  0  0  0
 11 12  2  0  0  0  0
 12  7  1  0  0  0  0
 13 14  1  0  0  0  0
 14 15  1  0  0  0  0
 15 16  2  0  0  0  0
 16 17  1  0  0  0  0
 17 18  2  0  0  0  0
 18 21  1  0  0  0  0
 18 19  1  0  0  0  0
 19 20  2  0  0  0  0
 20 15  1  0  0  0  0
 21 22  1  0  0  0  0
 22 23  1  0  0  0  0
 22 24  1  0  0  0  0
 22 25  1  0  0  0  0
 26  1  1  0  0  0  0
 27 26  1  0  0  0  0
 28 29  2  0  0  0  0
 29 30  1  0  0  0  0
 30 27  1  0  0  0  0
 30 31  2  0  0  0  0
 31 32  1  0  0  0  0
 32 33  2  0  0  0  0
 33 34  1  0  0  0  0
 33 28  1  0  0  0  0
 34 35  1  0  0  0  0
 36 37  2  0  0  0  0
 37 38  1  0  0  0  0
 37 28  1  0  0  0  0
 38 39  1  0  0  0  0
M  END
>  <Activity>
3.2

>  <minimizedAffinity>
-9.63069

>  <RFScoreVS_v2>
6.14579740988

$$$$
HIPS7002
 OpenBabel05252300073D

 39 42  0  0  0  0  0  0  0  0999 V2000
   68.3777   74.1412   94.4523 C   0  0  0  0  0  0  0  0  0  0  0  0
   67.3518   73.6622   95.2808 C   0  0  0  0  0  0  0  0  0  0  0  0
   66.1799   74.4025   95.4471 C   0  0  0  0  0  0  0  0  0  0  0  0
   66.0171   75.6208   94.7830 C   0  0  0  0  0  0  0  0  0  0  0  0
   67.0269   76.1100   93.9361 C   0  0  0  0  0  0  0  0  0  0  0  0
   68.2051   75.3585   93.7743 C   0  0  0  0  0  0  0  0  0  0  0  0
   66.8540   77.4010   93.2248 C   0  0  0  0  0  0  0  0  0  0  0  0
   65.9122   78.3427   93.6739 C   0  0  0  0  0  0  0  0  0  0  0  0
   65.7569   79.5592   93.0065 C   0  0  0  0  0  0  0  0  0  0  0  0
   66.5321   79.8489   91.8821 C   0  0  0  0  0  0  0  0  0  0  0  0
   67.4720   78.9138   91.4101 C   0  0  0  0  0  0  0  0  0  0  0  0
   67.6306   77.7006   92.0909 C   0  0  0  0  0  0  0  0  0  0  0  0
   68.2634   79.1434   90.2727 O   0  0  0  0  0  0  0  0  0  0  0  0
   69.6818   79.3123   90.2745 C   0  0  0  0  0  0  0  0  0  0  0  0
   70.0590   80.7233   89.9048 C   0  0  0  0  0  0  0  0  0  0  0  0
   71.3313   81.2223   90.2216 C   0  0  0  0  0  0  0  0  0  0  0  0
   71.6836   82.5314   89.8797 C   0  0  0  0  0  0  0  0  0  0  0  0
   70.7589   83.3680   89.2257 C   0  0  0  0  0  0  0  0  0  0  0  0
   69.4826   82.8735   88.9332 C   0  0  0  0  0  0  0  0  0  0  0  0
   69.1310   81.5643   89.2730 C   0  0  0  0  0  0  0  0  0  0  0  0
   71.0605   84.6869   88.8501 O   0  0  0  0  0  0  0  0  0  0  0  0
   71.3461   85.1205   87.5217 C   0  0  0  0  0  0  0  0  0  0  0  0
   70.3180   85.9163   87.0476 F   0  0  0  0  0  0  0  0  0  0  0  0
   71.5190   84.0278   86.6910 F   0  0  0  0  0  0  0  0  0  0  0  0
   72.5124   85.8602   87.5324 F   0  0  0  0  0  0  0  0  0  0  0  0
   69.6532   73.3593   94.2799 C   0  0  0  0  0  0  0  0  0  0  0  0
   69.3694   71.9934   93.9735 O   0  0  0  0  0  0  0  0  0  0  0  0
   72.3565   70.2477   92.6370 C   0  0  0  0  0  0  0  0  0  0  0  0
   71.5168   71.0601   93.4219 C   0  0  0  0  0  0  0  0  0  0  0  0
   70.1497   71.1683   93.1467 C   0  0  0  0  0  0  0  0  0  0  0  0
   69.6122   70.4605   92.0585 C   0  0  0  0  0  0  0  0  0  0  0  0
   70.4292   69.6371   91.2833 C   0  0  0  0  0  0  0  0  0  0  0  0
   71.7904   69.5014   91.5746 C   0  0  0  0  0  0  0  0  0  0  0  0
   72.5308   68.5947   90.8133 O   0  0  0  0  0  0  0  0  0  0  0  0
   72.1187   68.1201   90.1183 H   0  0  0  0  0  0  0  0  0  0  0  0
   74.3895   69.1422   93.1758 O   0  0  0  0  0  0  0  0  0  0  0  0
   73.8066   70.2330   92.9320 C   0  0  0  0  0  0  0  0  0  0  0  0
   74.5278   71.4203   93.0043 O   0  0  0  0  0  0  0  0  0  0  0  0
   74.1049   72.2370   92.8252 H   0  0  0  0  0  0  0  0  0  0  0  0
  1  2  2  0  0  0  0
  2  3  1  0  0  0  0
  3  4  2  0  0  0  0
  4  5  1  0  0  0  0
  5  7  1  0  0  0  0
  5  6  2  0  0  0  0
  6  1  1  0  0  0  0
  7  8  2  0  0  0  0
  8  9  1  0  0  0  0
  9 10  2  0  0  0  0
 10 11  1  0  0  0  0
 11 13  1  0  0  0  0
 11 12  2  0  0  0  0
 12  7  1  0  0  0  0
 13 14  1  0  0  0  0
 14 15  1  0  0  0  0
 15 16  2  0  0  0  0
 16 17  1  0  0  0  0
 17 18  2  0  0  0  0
 18 21  1  0  0  0  0
 18 19  1  0  0  0  0
 19 20  2  0  0  0  0
 20 15  1  0  0  0  0
 21 22  1  0  0  0  0
 22 23  1  0  0  0  0
 22 24  1  0  0  0  0
 22 25  1  0  0  0  0
 26  1  1  0  0  0  0
 27 26  1  0  0  0  0
 28 29  2  0  0  0  0
 29 30  1  0  0  0  0
 30 27  1  0  0  0  0
 30 31  2  0  0  0  0
 31 32  1  0  0  0  0
 32 33  2  0  0  0  0
 33 34  1  0  0  0  0
 33 28  1  0  0  0  0
 34 35  1  0  0  0  0
 36 37  2  0  0  0  0
 37 38  1  0  0  0  0
 37 28  1  0  0  0  0
 38 39  1  0  0  0  0
M  END
>  <Activity>
3.2

>  <minimizedAffinity>
-9.49765

>  <RFScoreVS_v2>
6.12737742305

$$$$
HIPS7002
 OpenBabel05252300073D

 39 42  0  0  0  0  0  0  0  0999 V2000
   67.7451   78.9975   89.3090 C   0  0  0  0  0  0  0  0  0  0  0  0
   67.1668   79.2205   88.0504 C   0  0  0  0  0  0  0  0  0  0  0  0
   66.7978   78.1410   87.2457 C   0  0  0  0  0  0  0  0  0  0  0  0
   66.9937   76.8317   87.6917 C   0  0  0  0  0  0  0  0  0  0  0  0
   67.5570   76.5877   88.9564 C   0  0  0  0  0  0  0  0  0  0  0  0
   67.9269   77.6807   89.7610 C   0  0  0  0  0  0  0  0  0  0  0  0
   67.7608   75.1977   89.4350 C   0  0  0  0  0  0  0  0  0  0  0  0
   67.0503   74.1321   88.8561 C   0  0  0  0  0  0  0  0  0  0  0  0
   67.2495   72.8248   89.3041 C   0  0  0  0  0  0  0  0  0  0  0  0
   68.1525   72.5647   90.3366 C   0  0  0  0  0  0  0  0  0  0  0  0
   68.8645   73.6198   90.9370 C   0  0  0  0  0  0  0  0  0  0  0  0
   68.6683   74.9269   90.4751 C   0  0  0  0  0  0  0  0  0  0  0  0
   69.7693   73.4190   91.9923 O   0  0  0  0  0  0  0  0  0  0  0  0
   69.4754   73.6036   93.3779 C   0  0  0  0  0  0  0  0  0  0  0  0
   68.4202   74.6616   93.5707 C   0  0  0  0  0  0  0  0  0  0  0  0
   68.7798   76.0158   93.6408 C   0  0  0  0  0  0  0  0  0  0  0  0
   67.8024   76.9994   93.8197 C   0  0  0  0  0  0  0  0  0  0  0  0
   66.4470   76.6393   93.9457 C   0  0  0  0  0  0  0  0  0  0  0  0
   66.0958   75.2852   93.8993 C   0  0  0  0  0  0  0  0  0  0  0  0
   67.0724   74.3021   93.7183 C   0  0  0  0  0  0  0  0  0  0  0  0
   65.4224   77.5840   94.1174 O   0  0  0  0  0  0  0  0  0  0  0  0
   65.4306   78.9121   93.5974 C   0  0  0  0  0  0  0  0  0  0  0  0
   66.2791   79.7117   94.3427 F   0  0  0  0  0  0  0  0  0  0  0  0
   64.1509   79.4376   93.6136 F   0  0  0  0  0  0  0  0  0  0  0  0
   65.8819   78.8798   92.2925 F   0  0  0  0  0  0  0  0  0  0  0  0
   68.1632   80.1546   90.1775 C   0  0  0  0  0  0  0  0  0  0  0  0
   68.4560   81.3030   89.3803 O   0  0  0  0  0  0  0  0  0  0  0  0
   71.0141   83.8195   88.4425 C   0  0  0  0  0  0  0  0  0  0  0  0
   69.8076   83.0992   88.5240 C   0  0  0  0  0  0  0  0  0  0  0  0
   69.6908   81.9717   89.3433 C   0  0  0  0  0  0  0  0  0  0  0  0
   70.8048   81.5474   90.0871 C   0  0  0  0  0  0  0  0  0  0  0  0
   72.0014   82.2625   90.0302 C   0  0  0  0  0  0  0  0  0  0  0  0
   72.1126   83.4088   89.2367 C   0  0  0  0  0  0  0  0  0  0  0  0
   73.3099   84.1252   89.2939 O   0  0  0  0  0  0  0  0  0  0  0  0
   74.0134   83.8197   89.8320 H   0  0  0  0  0  0  0  0  0  0  0  0
   70.5920   84.8646   86.3509 O   0  0  0  0  0  0  0  0  0  0  0  0
   71.0976   84.9588   87.5017 C   0  0  0  0  0  0  0  0  0  0  0  0
   71.7838   86.1176   87.8501 O   0  0  0  0  0  0  0  0  0  0  0  0
   72.1637   86.1987   88.7028 H   0  0  0  0  0  0  0  0  0  0  0  0
  1  2  2  0  0  0  0
  2  3  1  0  0  0  0
  3  4  2  0  0  0  0
  4  5  1  0  0  0  0
  5  7  1  0  0  0  0
  5  6  2  0  0  0  0
  6  1  1  0  0  0  0
  7  8  2  0  0  0  0
  8  9  1  0  0  0  0
  9 10  2  0  0  0  0
 10 11  1  0  0  0  0
 11 13  1  0  0  0  0
 11 12  2  0  0  0  0
 12  7  1  0  0  0  0
 13 14  1  0  0  0  0
 14 15  1  0  0  0  0
 15 16  2  0  0  0  0
 16 17  1  0  0  0  0
 17 18  2  0  0  0  0
 18 21  1  0  0  0  0
 18 19  1  0  0  0  0
 19 20  2  0  0  0  0
 20 15  1  0  0  0  0
 21 22  1  0  0  0  0
 22 23  1  0  0  0  0
 22 24  1  0  0  0  0
 22 25  1  0  0  0  0
 26  1  1  0  0  0  0
 27 26  1  0  0  0  0
 28 29  2  0  0  0  0
 29 30  1  0  0  0  0
 30 27  1  0  0  0  0
 30 31  2  0  0  0  0
 31 32  1  0  0  0  0
 32 33  2  0  0  0  0
 33 34  1  0  0  0  0
 33 28  1  0  0  0  0
 34 35  1  0  0  0  0
 36 37  2  0  0  0  0
 37 38  1  0  0  0  0
 37 28  1  0  0  0  0
 38 39  1  0  0  0  0
M  END
>  <Activity>
3.2

>  <minimizedAffinity>
-9.47284

>  <RFScoreVS_v2>
6.18345498502

$$$$
HIPS7002
 OpenBabel05252300073D

 39 42  0  0  0  0  0  0  0  0999 V2000
   69.7643   76.9702   92.2387 C   0  0  0  0  0  0  0  0  0  0  0  0
   71.1396   76.9467   91.9624 C   0  0  0  0  0  0  0  0  0  0  0  0
   71.6409   77.6006   90.8354 C   0  0  0  0  0  0  0  0  0  0  0  0
   70.7780   78.2900   89.9800 C   0  0  0  0  0  0  0  0  0  0  0  0
   69.3989   78.3384   90.2483 C   0  0  0  0  0  0  0  0  0  0  0  0
   68.9013   77.6765   91.3855 C   0  0  0  0  0  0  0  0  0  0  0  0
   68.4808   79.0751   89.3443 C   0  0  0  0  0  0  0  0  0  0  0  0
   67.7614   78.3934   88.3477 C   0  0  0  0  0  0  0  0  0  0  0  0
   66.8932   79.0885   87.5035 C   0  0  0  0  0  0  0  0  0  0  0  0
   66.7367   80.4694   87.6377 C   0  0  0  0  0  0  0  0  0  0  0  0
   67.4574   81.1713   88.6217 C   0  0  0  0  0  0  0  0  0  0  0  0
   68.3176   80.4664   89.4723 C   0  0  0  0  0  0  0  0  0  0  0  0
   67.3547   82.5622   88.7880 O   0  0  0  0  0  0  0  0  0  0  0  0
   67.4972   83.5306   87.7476 C   0  0  0  0  0  0  0  0  0  0  0  0
   68.8757   84.1386   87.7598 C   0  0  0  0  0  0  0  0  0  0  0  0
   69.7283   83.9384   88.8558 C   0  0  0  0  0  0  0  0  0  0  0  0
   71.0078   84.5017   88.8694 C   0  0  0  0  0  0  0  0  0  0  0  0
   71.4491   85.2885   87.7882 C   0  0  0  0  0  0  0  0  0  0  0  0
   70.5860   85.5053   86.7079 C   0  0  0  0  0  0  0  0  0  0  0  0
   69.3077   84.9406   86.6932 C   0  0  0  0  0  0  0  0  0  0  0  0
   72.7260   85.8708   87.7433 O   0  0  0  0  0  0  0  0  0  0  0  0
   73.0624   87.1594   88.2537 C   0  0  0  0  0  0  0  0  0  0  0  0
   73.9667   87.0400   89.2942 F   0  0  0  0  0  0  0  0  0  0  0  0
   71.9227   87.8107   88.6909 F   0  0  0  0  0  0  0  0  0  0  0  0
   73.6410   87.9042   87.2447 F   0  0  0  0  0  0  0  0  0  0  0  0
   69.2107   76.2533   93.4417 C   0  0  0  0  0  0  0  0  0  0  0  0
   68.3828   75.1607   93.0405 O   0  0  0  0  0  0  0  0  0  0  0  0
   70.1811   71.9169   93.0629 C   0  0  0  0  0  0  0  0  0  0  0  0
   69.6834   73.1775   93.4429 C   0  0  0  0  0  0  0  0  0  0  0  0
   68.8469   73.9116   92.5958 C   0  0  0  0  0  0  0  0  0  0  0  0
   68.5102   73.3819   91.3387 C   0  0  0  0  0  0  0  0  0  0  0  0
   68.9812   72.1255   90.9566 C   0  0  0  0  0  0  0  0  0  0  0  0
   69.7920   71.3745   91.8137 C   0  0  0  0  0  0  0  0  0  0  0  0
   70.1560   70.0899   91.4045 O   0  0  0  0  0  0  0  0  0  0  0  0
   69.8780   69.7678   90.5697 H   0  0  0  0  0  0  0  0  0  0  0  0
   72.3641   71.3119   93.7799 O   0  0  0  0  0  0  0  0  0  0  0  0
   71.1213   71.2227   93.9708 C   0  0  0  0  0  0  0  0  0  0  0  0
   70.6478   70.4184   95.0023 O   0  0  0  0  0  0  0  0  0  0  0  0
   69.7260   70.3446   95.1535 H   0  0  0  0  0  0  0  0  0  0  0  0
  1  2  2  0  0  0  0
  2  3  1  0  0  0  0
  3  4  2  0  0  0  0
  4  5  1  0  0  0  0
  5  7  1  0  0  0  0
  5  6  2  0  0  0  0
  6  1  1  0  0  0  0
  7  8  2  0  0  0  0
  8  9  1  0  0  0  0
  9 10  2  0  0  0  0
 10 11  1  0  0  0  0
 11 13  1  0  0  0  0
 11 12  2  0  0  0  0
 12  7  1  0  0  0  0
 13 14  1  0  0  0  0
 14 15  1  0  0  0  0
 15 16  2  0  0  0  0
 16 17  1  0  0  0  0
 17 18  2  0  0  0  0
 18 21  1  0  0  0  0
 18 19  1  0  0  0  0
 19 20  2  0  0  0  0
 20 15  1  0  0  0  0
 21 22  1  0  0  0  0
 22 23  1  0  0  0  0
 22 24  1  0  0  0  0
 22 25  1  0  0  0  0
 26  1  1  0  0  0  0
 27 26  1  0  0  0  0
 28 29  2  0  0  0  0
 29 30  1  0  0  0  0
 30 27  1  0  0  0  0
 30 31  2  0  0  0  0
 31 32  1  0  0  0  0
 32 33  2  0  0  0  0
 33 34  1  0  0  0  0
 33 28  1  0  0  0  0
 34 35  1  0  0  0  0
 36 37  2  0  0  0  0
 37 38  1  0  0  0  0
 37 28  1  0  0  0  0
 38 39  1  0  0  0  0
M  END
>  <Activity>
3.2

>  <minimizedAffinity>
-9.44533

>  <RFScoreVS_v2>
6.11152254122

$$$$
HIPS7002
 OpenBabel05252300073D

 39 42  0  0  0  0  0  0  0  0999 V2000
   69.1434   73.4498   91.5254 C   0  0  0  0  0  0  0  0  0  0  0  0
   68.5164   72.3971   90.8422 C   0  0  0  0  0  0  0  0  0  0  0  0
   67.6941   72.6625   89.7457 C   0  0  0  0  0  0  0  0  0  0  0  0
   67.4969   73.9770   89.3159 C   0  0  0  0  0  0  0  0  0  0  0  0
   68.1291   75.0442   89.9775 C   0  0  0  0  0  0  0  0  0  0  0  0
   68.9556   74.7687   91.0820 C   0  0  0  0  0  0  0  0  0  0  0  0
   67.9260   76.4411   89.5191 C   0  0  0  0  0  0  0  0  0  0  0  0
   67.0716   76.7208   88.4389 C   0  0  0  0  0  0  0  0  0  0  0  0
   66.8774   78.0368   88.0148 C   0  0  0  0  0  0  0  0  0  0  0  0
   67.5360   79.0874   88.6565 C   0  0  0  0  0  0  0  0  0  0  0  0
   68.4048   78.8263   89.7324 C   0  0  0  0  0  0  0  0  0  0  0  0
   68.5861   77.5054   90.1598 C   0  0  0  0  0  0  0  0  0  0  0  0
   69.1087   79.8413   90.4009 O   0  0  0  0  0  0  0  0  0  0  0  0
   70.4891   80.1536   90.2074 C   0  0  0  0  0  0  0  0  0  0  0  0
   70.6599   81.5670   89.7142 C   0  0  0  0  0  0  0  0  0  0  0  0
   69.6161   82.2098   89.0319 C   0  0  0  0  0  0  0  0  0  0  0  0
   69.7723   83.5213   88.5732 C   0  0  0  0  0  0  0  0  0  0  0  0
   70.9853   84.2062   88.7792 C   0  0  0  0  0  0  0  0  0  0  0  0
   72.0321   83.5522   89.4392 C   0  0  0  0  0  0  0  0  0  0  0  0
   71.8754   82.2420   89.8997 C   0  0  0  0  0  0  0  0  0  0  0  0
   71.1951   85.5263   88.3493 O   0  0  0  0  0  0  0  0  0  0  0  0
   70.2492   86.5883   88.4573 C   0  0  0  0  0  0  0  0  0  0  0  0
   69.3893   86.5741   87.3732 F   0  0  0  0  0  0  0  0  0  0  0  0
   70.9047   87.8048   88.5244 F   0  0  0  0  0  0  0  0  0  0  0  0
   69.5117   86.4160   89.6123 F   0  0  0  0  0  0  0  0  0  0  0  0
   70.0182   73.1763   92.7204 C   0  0  0  0  0  0  0  0  0  0  0  0
   69.9887   71.7891   93.0594 O   0  0  0  0  0  0  0  0  0  0  0  0
   73.4080   70.5859   93.8452 C   0  0  0  0  0  0  0  0  0  0  0  0
   72.3267   71.2521   93.2383 C   0  0  0  0  0  0  0  0  0  0  0  0
   71.0197   71.0906   93.7094 C   0  0  0  0  0  0  0  0  0  0  0  0
   70.7858   70.2373   94.8009 C   0  0  0  0  0  0  0  0  0  0  0  0
   71.8503   69.5851   95.4237 C   0  0  0  0  0  0  0  0  0  0  0  0
   73.1624   69.7688   94.9756 C   0  0  0  0  0  0  0  0  0  0  0  0
   74.1878   69.1554   95.6983 O   0  0  0  0  0  0  0  0  0  0  0  0
   73.9833   68.6219   96.4409 H   0  0  0  0  0  0  0  0  0  0  0  0
   75.7034   71.1900   93.9538 O   0  0  0  0  0  0  0  0  0  0  0  0
   74.7564   70.7387   93.2548 C   0  0  0  0  0  0  0  0  0  0  0  0
   74.9807   70.4464   91.9134 O   0  0  0  0  0  0  0  0  0  0  0  0
   74.2842   70.1104   91.3843 H   0  0  0  0  0  0  0  0  0  0  0  0
  1  2  2  0  0  0  0
  2  3  1  0  0  0  0
  3  4  2  0  0  0  0
  4  5  1  0  0  0  0
  5  7  1  0  0  0  0
  5  6  2  0  0  0  0
  6  1  1  0  0  0  0
  7  8  2  0  0  0  0
  8  9  1  0  0  0  0
  9 10  2  0  0  0  0
 10 11  1  0  0  0  0
 11 13  1  0  0  0  0
 11 12  2  0  0  0  0
 12  7  1  0  0  0  0
 13 14  1  0  0  0  0
 14 15  1  0  0  0  0
 15 16  2  0  0  0  0
 16 17  1  0  0  0  0
 17 18  2  0  0  0  0
 18 21  1  0  0  0  0
 18 19  1  0  0  0  0
 19 20  2  0  0  0  0
 20 15  1  0  0  0  0
 21 22  1  0  0  0  0
 22 23  1  0  0  0  0
 22 24  1  0  0  0  0
 22 25  1  0  0  0  0
 26  1  1  0  0  0  0
 27 26  1  0  0  0  0
 28 29  2  0  0  0  0
 29 30  1  0  0  0  0
 30 27  1  0  0  0  0
 30 31  2  0  0  0  0
 31 32  1  0  0  0  0
 32 33  2  0  0  0  0
 33 34  1  0  0  0  0
 33 28  1  0  0  0  0
 34 35  1  0  0  0  0
 36 37  2  0  0  0  0
 37 38  1  0  0  0  0
 37 28  1  0  0  0  0
 38 39  1  0  0  0  0
M  END
>  <Activity>
3.2

>  <minimizedAffinity>
-9.42336

>  <RFScoreVS_v2>
6.05979607155

$$$$
HIPS7002
 OpenBabel05252300073D

 39 42  0  0  0  0  0  0  0  0999 V2000
   68.3250   73.7917   90.8497 C   0  0  0  0  0  0  0  0  0  0  0  0
   67.7337   72.7026   90.1922 C   0  0  0  0  0  0  0  0  0  0  0  0
   67.0226   72.8994   89.0070 C   0  0  0  0  0  0  0  0  0  0  0  0
   66.9024   74.1804   88.4630 C   0  0  0  0  0  0  0  0  0  0  0  0
   67.5012   75.2823   89.0985 C   0  0  0  0  0  0  0  0  0  0  0  0
   68.2155   75.0759   90.2927 C   0  0  0  0  0  0  0  0  0  0  0  0
   67.3800   76.6434   88.5195 C   0  0  0  0  0  0  0  0  0  0  0  0
   67.1286   76.8157   87.1474 C   0  0  0  0  0  0  0  0  0  0  0  0
   67.0082   78.0976   86.6073 C   0  0  0  0  0  0  0  0  0  0  0  0
   67.1430   79.2212   87.4249 C   0  0  0  0  0  0  0  0  0  0  0  0
   67.4068   79.0694   88.7990 C   0  0  0  0  0  0  0  0  0  0  0  0
   67.5149   77.7809   89.3361 C   0  0  0  0  0  0  0  0  0  0  0  0
   67.5722   80.1635   89.6639 O   0  0  0  0  0  0  0  0  0  0  0  0
   68.7265   80.4134   90.4674 C   0  0  0  0  0  0  0  0  0  0  0  0
   69.6164   81.4478   89.8287 C   0  0  0  0  0  0  0  0  0  0  0  0
   70.9177   81.6566   90.3097 C   0  0  0  0  0  0  0  0  0  0  0  0
   71.7454   82.6160   89.7187 C   0  0  0  0  0  0  0  0  0  0  0  0
   71.2759   83.3932   88.6425 C   0  0  0  0  0  0  0  0  0  0  0  0
   69.9688   83.1980   88.1818 C   0  0  0  0  0  0  0  0  0  0  0  0
   69.1420   82.2375   88.7710 C   0  0  0  0  0  0  0  0  0  0  0  0
   72.0653   84.3636   88.0046 O   0  0  0  0  0  0  0  0  0  0  0  0
   71.6539   85.6972   87.7106 C   0  0  0  0  0  0  0  0  0  0  0  0
   70.9313   85.7250   86.5307 F   0  0  0  0  0  0  0  0  0  0  0  0
   72.7581   86.5243   87.6077 F   0  0  0  0  0  0  0  0  0  0  0  0
   70.8493   86.1545   88.7358 F   0  0  0  0  0  0  0  0  0  0  0  0
   69.0791   73.5933   92.1380 C   0  0  0  0  0  0  0  0  0  0  0  0
   68.2079   73.1128   93.1629 O   0  0  0  0  0  0  0  0  0  0  0  0
   66.2021   76.0069   94.3280 C   0  0  0  0  0  0  0  0  0  0  0  0
   66.9844   75.1511   93.5299 C   0  0  0  0  0  0  0  0  0  0  0  0
   67.4351   73.9191   94.0149 C   0  0  0  0  0  0  0  0  0  0  0  0
   67.1085   73.5390   95.3276 C   0  0  0  0  0  0  0  0  0  0  0  0
   66.3185   74.3689   96.1235 C   0  0  0  0  0  0  0  0  0  0  0  0
   65.8393   75.5872   95.6312 C   0  0  0  0  0  0  0  0  0  0  0  0
   64.9830   76.3271   96.4493 O   0  0  0  0  0  0  0  0  0  0  0  0
   64.7674   76.0147   97.3060 H   0  0  0  0  0  0  0  0  0  0  0  0
   64.8047   77.9264   94.2369 O   0  0  0  0  0  0  0  0  0  0  0  0
   65.8186   77.3290   93.7849 C   0  0  0  0  0  0  0  0  0  0  0  0
   66.5307   77.8978   92.7340 O   0  0  0  0  0  0  0  0  0  0  0  0
   67.2859   77.4627   92.3900 H   0  0  0  0  0  0  0  0  0  0  0  0
  1  2  2  0  0  0  0
  2  3  1  0  0  0  0
  3  4  2  0  0  0  0
  4  5  1  0  0  0  0
  5  7  1  0  0  0  0
  5  6  2  0  0  0  0
  6  1  1  0  0  0  0
  7  8  2  0  0  0  0
  8  9  1  0  0  0  0
  9 10  2  0  0  0  0
 10 11  1  0  0  0  0
 11 13  1  0  0  0  0
 11 12  2  0  0  0  0
 12  7  1  0  0  0  0
 13 14  1  0  0  0  0
 14 15  1  0  0  0  0
 15 16  2  0  0  0  0
 16 17  1  0  0  0  0
 17 18  2  0  0  0  0
 18 21  1  0  0  0  0
 18 19  1  0  0  0  0
 19 20  2  0  0  0  0
 20 15  1  0  0  0  0
 21 22  1  0  0  0  0
 22 23  1  0  0  0  0
 22 24  1  0  0  0  0
 22 25  1  0  0  0  0
 26  1  1  0  0  0  0
 27 26  1  0  0  0  0
 28 29  2  0  0  0  0
 29 30  1  0  0  0  0
 30 27  1  0  0  0  0
 30 31  2  0  0  0  0
 31 32  1  0  0  0  0
 32 33  2  0  0  0  0
 33 34  1  0  0  0  0
 33 28  1  0  0  0  0
 34 35  1  0  0  0  0
 36 37  2  0  0  0  0
 37 38  1  0  0  0  0
 37 28  1  0  0  0  0
 38 39  1  0  0  0  0
M  END
>  <Activity>
3.2

>  <minimizedAffinity>
-9.26975

>  <RFScoreVS_v2>
6.43790690353

$$$$
HIPS7002
 OpenBabel05252300073D

 39 42  0  0  0  0  0  0  0  0999 V2000
   68.9517   77.9916   89.9022 C   0  0  0  0  0  0  0  0  0  0  0  0
   70.3462   77.9142   90.0350 C   0  0  0  0  0  0  0  0  0  0  0  0
   71.1044   79.0784   90.1723 C   0  0  0  0  0  0  0  0  0  0  0  0
   70.4792   80.3275   90.1873 C   0  0  0  0  0  0  0  0  0  0  0  0
   69.0816   80.4251   90.0716 C   0  0  0  0  0  0  0  0  0  0  0  0
   68.3246   79.2475   89.9329 C   0  0  0  0  0  0  0  0  0  0  0  0
   68.4144   81.7506   90.0932 C   0  0  0  0  0  0  0  0  0  0  0  0
   68.0308   82.3368   91.3117 C   0  0  0  0  0  0  0  0  0  0  0  0
   67.4097   83.5871   91.3289 C   0  0  0  0  0  0  0  0  0  0  0  0
   67.1578   84.2642   90.1342 C   0  0  0  0  0  0  0  0  0  0  0  0
   67.5236   83.6882   88.9033 C   0  0  0  0  0  0  0  0  0  0  0  0
   68.1565   82.4393   88.8941 C   0  0  0  0  0  0  0  0  0  0  0  0
   67.2762   84.3145   87.6707 O   0  0  0  0  0  0  0  0  0  0  0  0
   68.2201   84.4438   86.6064 C   0  0  0  0  0  0  0  0  0  0  0  0
   69.5178   85.0269   87.1023 C   0  0  0  0  0  0  0  0  0  0  0  0
   70.7057   84.2853   87.0171 C   0  0  0  0  0  0  0  0  0  0  0  0
   71.9111   84.8243   87.4767 C   0  0  0  0  0  0  0  0  0  0  0  0
   71.9428   86.1129   88.0433 C   0  0  0  0  0  0  0  0  0  0  0  0
   70.7510   86.8394   88.1482 C   0  0  0  0  0  0  0  0  0  0  0  0
   69.5464   86.3017   87.6869 C   0  0  0  0  0  0  0  0  0  0  0  0
   73.1250   86.7081   88.5123 O   0  0  0  0  0  0  0  0  0  0  0  0
   73.5549   88.0345   88.2122 C   0  0  0  0  0  0  0  0  0  0  0  0
   74.6975   88.3403   88.9305 F   0  0  0  0  0  0  0  0  0  0  0  0
   72.5522   88.9393   88.5121 F   0  0  0  0  0  0  0  0  0  0  0  0
   73.8414   88.1186   86.8638 F   0  0  0  0  0  0  0  0  0  0  0  0
   68.1260   76.7433   89.7356 C   0  0  0  0  0  0  0  0  0  0  0  0
   67.5225   76.3692   90.9749 O   0  0  0  0  0  0  0  0  0  0  0  0
   67.6345   74.0374   93.8570 C   0  0  0  0  0  0  0  0  0  0  0  0
   67.2188   75.0304   92.9503 C   0  0  0  0  0  0  0  0  0  0  0  0
   68.0001   75.3723   91.8417 C   0  0  0  0  0  0  0  0  0  0  0  0
   69.2272   74.7179   91.6409 C   0  0  0  0  0  0  0  0  0  0  0  0
   69.6430   73.7186   92.5212 C   0  0  0  0  0  0  0  0  0  0  0  0
   68.8496   73.3518   93.6132 C   0  0  0  0  0  0  0  0  0  0  0  0
   69.2842   72.2856   94.4033 O   0  0  0  0  0  0  0  0  0  0  0  0
   70.0950   71.8581   94.2085 H   0  0  0  0  0  0  0  0  0  0  0  0
   65.5575   73.9788   95.0096 O   0  0  0  0  0  0  0  0  0  0  0  0
   66.8006   73.7731   95.0507 C   0  0  0  0  0  0  0  0  0  0  0  0
   67.3816   73.3561   96.2438 O   0  0  0  0  0  0  0  0  0  0  0  0
   68.3046   73.2002   96.2860 H   0  0  0  0  0  0  0  0  0  0  0  0
  1  2  2  0  0  0  0
  2  3  1  0  0  0  0
  3  4  2  0  0  0  0
  4  5  1  0  0  0  0
  5  7  1  0  0  0  0
  5  6  2  0  0  0  0
  6  1  1  0  0  0  0
  7  8  2  0  0  0  0
  8  9  1  0  0  0  0
  9 10  2  0  0  0  0
 10 11  1  0  0  0  0
 11 13  1  0  0  0  0
 11 12  2  0  0  0  0
 12  7  1  0  0  0  0
 13 14  1  0  0  0  0
 14 15  1  0  0  0  0
 15 16  2  0  0  0  0
 16 17  1  0  0  0  0
 17 18  2  0  0  0  0
 18 21  1  0  0  0  0
 18 19  1  0  0  0  0
 19 20  2  0  0  0  0
 20 15  1  0  0  0  0
 21 22  1  0  0  0  0
 22 23  1  0  0  0  0
 22 24  1  0  0  0  0
 22 25  1  0  0  0  0
 26  1  1  0  0  0  0
 27 26  1  0  0  0  0
 28 29  2  0  0  0  0
 29 30  1  0  0  0  0
 30 27  1  0  0  0  0
 30 31  2  0  0  0  0
 31 32  1  0  0  0  0
 32 33  2  0  0  0  0
 33 34  1  0  0  0  0
 33 28  1  0  0  0  0
 34 35  1  0  0  0  0
 36 37  2  0  0  0  0
 37 38  1  0  0  0  0
 37 28  1  0  0  0  0
 38 39  1  0  0  0  0
M  END
>  <Activity>
3.2

>  <minimizedAffinity>
-9.20213

>  <RFScoreVS_v2>
6.13557598041

$$$$
HIPS7002
 OpenBabel05252300073D

 39 42  0  0  0  0  0  0  0  0999 V2000
   68.8112   73.8803   91.0969 C   0  0  0  0  0  0  0  0  0  0  0  0
   68.2018   72.7344   90.5643 C   0  0  0  0  0  0  0  0  0  0  0  0
   67.3314   72.8422   89.4782 C   0  0  0  0  0  0  0  0  0  0  0  0
   67.0680   74.0904   88.9088 C   0  0  0  0  0  0  0  0  0  0  0  0
   67.6812   75.2484   89.4181 C   0  0  0  0  0  0  0  0  0  0  0  0
   68.5565   75.1316   90.5131 C   0  0  0  0  0  0  0  0  0  0  0  0
   67.4077   76.5749   88.8112 C   0  0  0  0  0  0  0  0  0  0  0  0
   67.0241   76.6775   87.4630 C   0  0  0  0  0  0  0  0  0  0  0  0
   66.7608   77.9265   86.8971 C   0  0  0  0  0  0  0  0  0  0  0  0
   66.8826   79.0865   87.6645 C   0  0  0  0  0  0  0  0  0  0  0  0
   67.2771   79.0051   89.0129 C   0  0  0  0  0  0  0  0  0  0  0  0
   67.5285   77.7486   89.5771 C   0  0  0  0  0  0  0  0  0  0  0  0
   67.4357   80.1397   89.8255 O   0  0  0  0  0  0  0  0  0  0  0  0
   68.6089   80.4613   90.5742 C   0  0  0  0  0  0  0  0  0  0  0  0
   69.4595   81.4661   89.8417 C   0  0  0  0  0  0  0  0  0  0  0  0
   70.7682   81.7331   90.2712 C   0  0  0  0  0  0  0  0  0  0  0  0
   71.5594   82.6652   89.5930 C   0  0  0  0  0  0  0  0  0  0  0  0
   71.0455   83.3567   88.4793 C   0  0  0  0  0  0  0  0  0  0  0  0
   69.7312   83.1045   88.0693 C   0  0  0  0  0  0  0  0  0  0  0  0
   68.9409   82.1713   88.7457 C   0  0  0  0  0  0  0  0  0  0  0  0
   71.7970   84.2957   87.7547 O   0  0  0  0  0  0  0  0  0  0  0  0
   71.4831   85.6813   87.6282 C   0  0  0  0  0  0  0  0  0  0  0  0
   70.6095   85.8787   86.5733 F   0  0  0  0  0  0  0  0  0  0  0  0
   72.6388   86.4149   87.4279 F   0  0  0  0  0  0  0  0  0  0  0  0
   70.8787   86.1122   88.7929 F   0  0  0  0  0  0  0  0  0  0  0  0
   69.7378   73.7776   92.2796 C   0  0  0  0  0  0  0  0  0  0  0  0
   69.4254   72.6269   93.0660 O   0  0  0  0  0  0  0  0  0  0  0  0
   71.6710   69.7399   92.4501 C   0  0  0  0  0  0  0  0  0  0  0  0
   70.7842   70.8153   92.2545 C   0  0  0  0  0  0  0  0  0  0  0  0
   70.3043   71.5642   93.3339 C   0  0  0  0  0  0  0  0  0  0  0  0
   70.7084   71.2251   94.6361 C   0  0  0  0  0  0  0  0  0  0  0  0
   71.6014   70.1734   94.8433 C   0  0  0  0  0  0  0  0  0  0  0  0
   72.1083   69.4424   93.7640 C   0  0  0  0  0  0  0  0  0  0  0  0
   73.0641   68.4611   94.0353 O   0  0  0  0  0  0  0  0  0  0  0  0
   73.3266   68.2945   94.9192 H   0  0  0  0  0  0  0  0  0  0  0  0
   73.2866   68.5818   91.1486 O   0  0  0  0  0  0  0  0  0  0  0  0
   72.0846   68.9393   91.2762 C   0  0  0  0  0  0  0  0  0  0  0  0
   71.1718   68.6255   90.2745 O   0  0  0  0  0  0  0  0  0  0  0  0
   70.2758   68.8862   90.3587 H   0  0  0  0  0  0  0  0  0  0  0  0
  1  2  2  0  0  0  0
  2  3  1  0  0  0  0
  3  4  2  0  0  0  0
  4  5  1  0  0  0  0
  5  7  1  0  0  0  0
  5  6  2  0  0  0  0
  6  1  1  0  0  0  0
  7  8  2  0  0  0  0
  8  9  1  0  0  0  0
  9 10  2  0  0  0  0
 10 11  1  0  0  0  0
 11 13  1  0  0  0  0
 11 12  2  0  0  0  0
 12  7  1  0  0  0  0
 13 14  1  0  0  0  0
 14 15  1  0  0  0  0
 15 16  2  0  0  0  0
 16 17  1  0  0  0  0
 17 18  2  0  0  0  0
 18 21  1  0  0  0  0
 18 19  1  0  0  0  0
 19 20  2  0  0  0  0
 20 15  1  0  0  0  0
 21 22  1  0  0  0  0
 22 23  1  0  0  0  0
 22 24  1  0  0  0  0
 22 25  1  0  0  0  0
 26  1  1  0  0  0  0
 27 26  1  0  0  0  0
 28 29  2  0  0  0  0
 29 30  1  0  0  0  0
 30 27  1  0  0  0  0
 30 31  2  0  0  0  0
 31 32  1  0  0  0  0
 32 33  2  0  0  0  0
 33 34  1  0  0  0  0
 33 28  1  0  0  0  0
 34 35  1  0  0  0  0
 36 37  2  0  0  0  0
 37 38  1  0  0  0  0
 37 28  1  0  0  0  0
 38 39  1  0  0  0  0
M  END
>  <Activity>
3.2

>  <minimizedAffinity>
-9.14730

>  <RFScoreVS_v2>
6.08486906514

$$$$
HIPS7002
 OpenBabel05252300073D

 39 42  0  0  0  0  0  0  0  0999 V2000
   67.9478   79.7266   89.4374 C   0  0  0  0  0  0  0  0  0  0  0  0
   67.3503   80.0757   88.2170 C   0  0  0  0  0  0  0  0  0  0  0  0
   66.8586   79.0838   87.3665 C   0  0  0  0  0  0  0  0  0  0  0  0
   66.9503   77.7376   87.7285 C   0  0  0  0  0  0  0  0  0  0  0  0
   67.5313   77.3686   88.9544 C   0  0  0  0  0  0  0  0  0  0  0  0
   68.0250   78.3739   89.8056 C   0  0  0  0  0  0  0  0  0  0  0  0
   67.6245   75.9395   89.3441 C   0  0  0  0  0  0  0  0  0  0  0  0
   67.0271   74.9435   88.5527 C   0  0  0  0  0  0  0  0  0  0  0  0
   67.1227   73.5994   88.9185 C   0  0  0  0  0  0  0  0  0  0  0  0
   67.8079   73.2329   90.0784 C   0  0  0  0  0  0  0  0  0  0  0  0
   68.4025   74.2168   90.8902 C   0  0  0  0  0  0  0  0  0  0  0  0
   68.3126   75.5617   90.5114 C   0  0  0  0  0  0  0  0  0  0  0  0
   69.0857   73.9074   92.0778 O   0  0  0  0  0  0  0  0  0  0  0  0
   68.8053   72.7918   92.9247 C   0  0  0  0  0  0  0  0  0  0  0  0
   69.9178   71.7774   92.8690 C   0  0  0  0  0  0  0  0  0  0  0  0
   69.9296   70.7934   91.8691 C   0  0  0  0  0  0  0  0  0  0  0  0
   70.9609   69.8510   91.8155 C   0  0  0  0  0  0  0  0  0  0  0  0
   71.9921   69.8711   92.7742 C   0  0  0  0  0  0  0  0  0  0  0  0
   71.9631   70.8398   93.7841 C   0  0  0  0  0  0  0  0  0  0  0  0
   70.9334   71.7832   93.8365 C   0  0  0  0  0  0  0  0  0  0  0  0
   73.0573   68.9563   92.7639 O   0  0  0  0  0  0  0  0  0  0  0  0
   74.2506   69.0898   91.9943 C   0  0  0  0  0  0  0  0  0  0  0  0
   74.6654   70.4099   91.9812 F   0  0  0  0  0  0  0  0  0  0  0  0
   74.0345   68.6499   90.7005 F   0  0  0  0  0  0  0  0  0  0  0  0
   75.2422   68.3176   92.5670 F   0  0  0  0  0  0  0  0  0  0  0  0
   68.4975   80.7874   90.3541 C   0  0  0  0  0  0  0  0  0  0  0  0
   69.9099   80.9167   90.1854 O   0  0  0  0  0  0  0  0  0  0  0  0
   70.4514   83.8179   87.9390 C   0  0  0  0  0  0  0  0  0  0  0  0
   69.8643   82.7171   88.5907 C   0  0  0  0  0  0  0  0  0  0  0  0
   70.5579   82.0018   89.5723 C   0  0  0  0  0  0  0  0  0  0  0  0
   71.8688   82.3858   89.9015 C   0  0  0  0  0  0  0  0  0  0  0  0
   72.4564   83.4863   89.2769 C   0  0  0  0  0  0  0  0  0  0  0  0
   71.7545   84.2234   88.3176 C   0  0  0  0  0  0  0  0  0  0  0  0
   72.3695   85.3636   87.7963 O   0  0  0  0  0  0  0  0  0  0  0  0
   73.2335   85.5979   88.0729 H   0  0  0  0  0  0  0  0  0  0  0  0
   68.4989   84.1621   86.6295 O   0  0  0  0  0  0  0  0  0  0  0  0
   69.6953   84.4874   86.8573 C   0  0  0  0  0  0  0  0  0  0  0  0
   70.3093   85.4339   86.0436 O   0  0  0  0  0  0  0  0  0  0  0  0
   71.1982   85.6834   86.2035 H   0  0  0  0  0  0  0  0  0  0  0  0
  1  2  2  0  0  0  0
  2  3  1  0  0  0  0
  3  4  2  0  0  0  0
  4  5  1  0  0  0  0
  5  7  1  0  0  0  0
  5  6  2  0  0  0  0
  6  1  1  0  0  0  0
  7  8  2  0  0  0  0
  8  9  1  0  0  0  0
  9 10  2  0  0  0  0
 10 11  1  0  0  0  0
 11 13  1  0  0  0  0
 11 12  2  0  0  0  0
 12  7  1  0  0  0  0
 13 14  1  0  0  0  0
 14 15  1  0  0  0  0
 15 16  2  0  0  0  0
 16 17  1  0  0  0  0
 17 18  2  0  0  0  0
 18 21  1  0  0  0  0
 18 19  1  0  0  0  0
 19 20  2  0  0  0  0
 20 15  1  0  0  0  0
 21 22  1  0  0  0  0
 22 23  1  0  0  0  0
 22 24  1  0  0  0  0
 22 25  1  0  0  0  0
 26  1  1  0  0  0  0
 27 26  1  0  0  0  0
 28 29  2  0  0  0  0
 29 30  1  0  0  0  0
 30 27  1  0  0  0  0
 30 31  2  0  0  0  0
 31 32  1  0  0  0  0
 32 33  2  0  0  0  0
 33 34  1  0  0  0  0
 33 28  1  0  0  0  0
 34 35  1  0  0  0  0
 36 37  2  0  0  0  0
 37 38  1  0  0  0  0
 37 28  1  0  0  0  0
 38 39  1  0  0  0  0
M  END
>  <Activity>
3.2

>  <minimizedAffinity>
-9.10289

>  <RFScoreVS_v2>
6.09264413156

$$$$
HIPS7000
 OpenBabel05252300073D

 38 41  0  0  0  0  0  0  0  0999 V2000
   69.7253   76.4930   91.9765 C   0  0  0  0  0  0  0  0  0  0  0  0
   71.1015   76.7624   91.9493 C   0  0  0  0  0  0  0  0  0  0  0  0
   71.6162   77.7063   91.0591 C   0  0  0  0  0  0  0  0  0  0  0  0
   70.7633   78.3910   90.1906 C   0  0  0  0  0  0  0  0  0  0  0  0
   69.3788   78.1432   90.2095 C   0  0  0  0  0  0  0  0  0  0  0  0
   68.8671   77.1963   91.1152 C   0  0  0  0  0  0  0  0  0  0  0  0
   68.4728   78.8652   89.2811 C   0  0  0  0  0  0  0  0  0  0  0  0
   67.5671   78.1590   88.4706 C   0  0  0  0  0  0  0  0  0  0  0  0
   66.7109   78.8443   87.6061 C   0  0  0  0  0  0  0  0  0  0  0  0
   66.7432   80.2389   87.5454 C   0  0  0  0  0  0  0  0  0  0  0  0
   67.6327   80.9638   88.3452 C   0  0  0  0  0  0  0  0  0  0  0  0
   68.5072   80.2692   89.2032 C   0  0  0  0  0  0  0  0  0  0  0  0
   67.6126   82.3657   88.2594 O   0  0  0  0  0  0  0  0  0  0  0  0
   67.9477   83.1258   87.0969 C   0  0  0  0  0  0  0  0  0  0  0  0
   69.1268   84.0244   87.3651 C   0  0  0  0  0  0  0  0  0  0  0  0
   70.4086   83.4759   87.5186 C   0  0  0  0  0  0  0  0  0  0  0  0
   71.5081   84.3051   87.7581 C   0  0  0  0  0  0  0  0  0  0  0  0
   71.3455   85.6992   87.8361 C   0  0  0  0  0  0  0  0  0  0  0  0
   70.0542   86.2419   87.7221 C   0  0  0  0  0  0  0  0  0  0  0  0
   68.9549   85.4119   87.4853 C   0  0  0  0  0  0  0  0  0  0  0  0
   72.5233   86.5910   88.1383 C   0  0  0  0  0  0  0  0  0  0  0  0
   73.1695   86.9613   86.9717 F   0  0  0  0  0  0  0  0  0  0  0  0
   72.1097   87.7417   88.7872 F   0  0  0  0  0  0  0  0  0  0  0  0
   73.4123   85.9111   88.9495 F   0  0  0  0  0  0  0  0  0  0  0  0
   69.1800   75.4603   92.9277 C   0  0  0  0  0  0  0  0  0  0  0  0
   70.1766   74.4868   93.2431 O   0  0  0  0  0  0  0  0  0  0  0  0
   70.4650   70.7553   93.4698 C   0  0  0  0  0  0  0  0  0  0  0  0
   70.5839   72.1175   93.8024 C   0  0  0  0  0  0  0  0  0  0  0  0
   70.1018   73.1176   92.9374 C   0  0  0  0  0  0  0  0  0  0  0  0
   69.5177   72.7446   91.7250 C   0  0  0  0  0  0  0  0  0  0  0  0
   69.4160   71.3991   91.3712 C   0  0  0  0  0  0  0  0  0  0  0  0
   69.8997   70.3992   92.2212 C   0  0  0  0  0  0  0  0  0  0  0  0
   69.8340   69.0776   91.7750 O   0  0  0  0  0  0  0  0  0  0  0  0
   69.4520   68.8828   90.9419 H   0  0  0  0  0  0  0  0  0  0  0  0
   70.5269   69.8336   95.6587 O   0  0  0  0  0  0  0  0  0  0  0  0
   70.9011   69.7442   94.4580 C   0  0  0  0  0  0  0  0  0  0  0  0
   71.6722   68.6547   94.0634 O   0  0  0  0  0  0  0  0  0  0  0  0
   71.9553   68.5789   93.1734 H   0  0  0  0  0  0  0  0  0  0  0  0
  1  2  2  0  0  0  0
  2  3  1  0  0  0  0
  3  4  2  0  0  0  0
  4  5  1  0  0  0  0
  5  7  1  0  0  0  0
  5  6  2  0  0  0  0
  6  1  1  0  0  0  0
  7  8  2  0  0  0  0
  8  9  1  0  0  0  0
  9 10  2  0  0  0  0
 10 11  1  0  0  0  0
 11 13  1  0  0  0  0
 11 12  2  0  0  0  0
 12  7  1  0  0  0  0
 13 14  1  0  0  0  0
 14 15  1  0  0  0  0
 15 16  2  0  0  0  0
 16 17  1  0  0  0  0
 17 18  2  0  0  0  0
 18 21  1  0  0  0  0
 18 19  1  0  0  0  0
 19 20  2  0  0  0  0
 20 15  1  0  0  0  0
 21 22  1  0  0  0  0
 21 23  1  0  0  0  0
 21 24  1  0  0  0  0
 25  1  1  0  0  0  0
 26 25  1  0  0  0  0
 27 28  2  0  0  0  0
 28 29  1  0  0  0  0
 29 26  1  0  0  0  0
 29 30  2  0  0  0  0
 30 31  1  0  0  0  0
 31 32  2  0  0  0  0
 32 33  1  0  0  0  0
 32 27  1  0  0  0  0
 33 34  1  0  0  0  0
 35 36  2  0  0  0  0
 36 37  1  0  0  0  0
 36 27  1  0  0  0  0
 37 38  1  0  0  0  0
M  END
>  <Activity>
3.5

>  <minimizedAffinity>
-9.94016

>  <RFScoreVS_v2>
6.1158540862

$$$$
HIPS7000
 OpenBabel05252300073D

 38 41  0  0  0  0  0  0  0  0999 V2000
   68.7516   73.8017   91.2219 C   0  0  0  0  0  0  0  0  0  0  0  0
   68.1238   72.7024   90.6180 C   0  0  0  0  0  0  0  0  0  0  0  0
   67.3241   72.8822   89.4882 C   0  0  0  0  0  0  0  0  0  0  0  0
   67.1457   74.1584   88.9496 C   0  0  0  0  0  0  0  0  0  0  0  0
   67.7753   75.2724   89.5339 C   0  0  0  0  0  0  0  0  0  0  0  0
   68.5859   75.0817   90.6676 C   0  0  0  0  0  0  0  0  0  0  0  0
   67.5797   76.6303   88.9664 C   0  0  0  0  0  0  0  0  0  0  0  0
   67.1679   76.7966   87.6327 C   0  0  0  0  0  0  0  0  0  0  0  0
   66.9766   78.0763   87.1075 C   0  0  0  0  0  0  0  0  0  0  0  0
   67.1864   79.2019   87.9066 C   0  0  0  0  0  0  0  0  0  0  0  0
   67.5922   79.0617   89.2378 C   0  0  0  0  0  0  0  0  0  0  0  0
   67.8014   77.7705   89.7597 C   0  0  0  0  0  0  0  0  0  0  0  0
   67.7720   80.2253   90.0039 O   0  0  0  0  0  0  0  0  0  0  0  0
   67.5862   81.5608   89.5315 C   0  0  0  0  0  0  0  0  0  0  0  0
   68.9122   82.2307   89.2816 C   0  0  0  0  0  0  0  0  0  0  0  0
   69.9699   82.0563   90.1861 C   0  0  0  0  0  0  0  0  0  0  0  0
   71.2056   82.6674   89.9550 C   0  0  0  0  0  0  0  0  0  0  0  0
   71.4079   83.4541   88.8078 C   0  0  0  0  0  0  0  0  0  0  0  0
   70.3341   83.6598   87.9247 C   0  0  0  0  0  0  0  0  0  0  0  0
   69.0981   83.0505   88.1580 C   0  0  0  0  0  0  0  0  0  0  0  0
   72.7262   84.1498   88.5799 C   0  0  0  0  0  0  0  0  0  0  0  0
   72.5868   85.5202   88.7151 F   0  0  0  0  0  0  0  0  0  0  0  0
   73.6699   83.7189   89.4964 F   0  0  0  0  0  0  0  0  0  0  0  0
   73.1753   83.8664   87.3037 F   0  0  0  0  0  0  0  0  0  0  0  0
   69.5985   73.6019   92.4512 C   0  0  0  0  0  0  0  0  0  0  0  0
   69.5181   72.2505   92.9067 O   0  0  0  0  0  0  0  0  0  0  0  0
   72.6840   70.3688   93.6106 C   0  0  0  0  0  0  0  0  0  0  0  0
   71.6782   71.3498   93.6910 C   0  0  0  0  0  0  0  0  0  0  0  0
   70.5569   71.3068   92.8415 C   0  0  0  0  0  0  0  0  0  0  0  0
   70.4596   70.2849   91.8948 C   0  0  0  0  0  0  0  0  0  0  0  0
   71.4615   69.3202   91.7871 C   0  0  0  0  0  0  0  0  0  0  0  0
   72.5830   69.3600   92.6218 C   0  0  0  0  0  0  0  0  0  0  0  0
   73.5839   68.4088   92.4131 O   0  0  0  0  0  0  0  0  0  0  0  0
   73.4793   67.7569   91.7481 H   0  0  0  0  0  0  0  0  0  0  0  0
   74.7665   71.1859   94.4106 O   0  0  0  0  0  0  0  0  0  0  0  0
   73.7912   70.4073   94.5911 C   0  0  0  0  0  0  0  0  0  0  0  0
   73.7393   69.6365   95.7488 O   0  0  0  0  0  0  0  0  0  0  0  0
   73.0189   69.0549   95.8925 H   0  0  0  0  0  0  0  0  0  0  0  0
  1  2  2  0  0  0  0
  2  3  1  0  0  0  0
  3  4  2  0  0  0  0
  4  5  1  0  0  0  0
  5  7  1  0  0  0  0
  5  6  2  0  0  0  0
  6  1  1  0  0  0  0
  7  8  2  0  0  0  0
  8  9  1  0  0  0  0
  9 10  2  0  0  0  0
 10 11  1  0  0  0  0
 11 13  1  0  0  0  0
 11 12  2  0  0  0  0
 12  7  1  0  0  0  0
 13 14  1  0  0  0  0
 14 15  1  0  0  0  0
 15 16  2  0  0  0  0
 16 17  1  0  0  0  0
 17 18  2  0  0  0  0
 18 21  1  0  0  0  0
 18 19  1  0  0  0  0
 19 20  2  0  0  0  0
 20 15  1  0  0  0  0
 21 22  1  0  0  0  0
 21 23  1  0  0  0  0
 21 24  1  0  0  0  0
 25  1  1  0  0  0  0
 26 25  1  0  0  0  0
 27 28  2  0  0  0  0
 28 29  1  0  0  0  0
 29 26  1  0  0  0  0
 29 30  2  0  0  0  0
 30 31  1  0  0  0  0
 31 32  2  0  0  0  0
 32 33  1  0  0  0  0
 32 27  1  0  0  0  0
 33 34  1  0  0  0  0
 35 36  2  0  0  0  0
 36 37  1  0  0  0  0
 36 27  1  0  0  0  0
 37 38  1  0  0  0  0
M  END
>  <Activity>
3.5

>  <minimizedAffinity>
-9.81621

>  <RFScoreVS_v2>
6.13471232249

$$$$
HIPS7000
 OpenBabel05252300073D

 38 41  0  0  0  0  0  0  0  0999 V2000
   67.5200   79.1698   88.9741 C   0  0  0  0  0  0  0  0  0  0  0  0
   67.2109   79.3249   87.6148 C   0  0  0  0  0  0  0  0  0  0  0  0
   67.0134   78.2045   86.8060 C   0  0  0  0  0  0  0  0  0  0  0  0
   67.1198   76.9209   87.3457 C   0  0  0  0  0  0  0  0  0  0  0  0
   67.4184   76.7439   88.7089 C   0  0  0  0  0  0  0  0  0  0  0  0
   67.6082   77.8781   89.5190 C   0  0  0  0  0  0  0  0  0  0  0  0
   67.5393   75.3794   89.2814 C   0  0  0  0  0  0  0  0  0  0  0  0
   66.9855   74.2720   88.6159 C   0  0  0  0  0  0  0  0  0  0  0  0
   67.1106   72.9898   89.1548 C   0  0  0  0  0  0  0  0  0  0  0  0
   67.7941   72.7970   90.3571 C   0  0  0  0  0  0  0  0  0  0  0  0
   68.3573   73.8828   91.0354 C   0  0  0  0  0  0  0  0  0  0  0  0
   68.2143   75.1770   90.4987 C   0  0  0  0  0  0  0  0  0  0  0  0
   69.0499   73.6325   92.2316 O   0  0  0  0  0  0  0  0  0  0  0  0
   68.5636   73.9247   93.5429 C   0  0  0  0  0  0  0  0  0  0  0  0
   67.8528   75.2527   93.5678 C   0  0  0  0  0  0  0  0  0  0  0  0
   68.5842   76.4443   93.4556 C   0  0  0  0  0  0  0  0  0  0  0  0
   67.9295   77.6792   93.4685 C   0  0  0  0  0  0  0  0  0  0  0  0
   66.5299   77.7426   93.5817 C   0  0  0  0  0  0  0  0  0  0  0  0
   65.8040   76.5489   93.7346 C   0  0  0  0  0  0  0  0  0  0  0  0
   66.4596   75.3145   93.7243 C   0  0  0  0  0  0  0  0  0  0  0  0
   65.8265   79.0751   93.6403 C   0  0  0  0  0  0  0  0  0  0  0  0
   65.5376   79.5330   92.3665 F   0  0  0  0  0  0  0  0  0  0  0  0
   64.6377   78.9687   94.3414 F   0  0  0  0  0  0  0  0  0  0  0  0
   66.6429   79.9929   94.2745 F   0  0  0  0  0  0  0  0  0  0  0  0
   67.7492   80.3833   89.8362 C   0  0  0  0  0  0  0  0  0  0  0  0
   68.0397   81.5276   89.0321 O   0  0  0  0  0  0  0  0  0  0  0  0
   70.7720   83.9213   88.1026 C   0  0  0  0  0  0  0  0  0  0  0  0
   69.5288   83.2619   88.1008 C   0  0  0  0  0  0  0  0  0  0  0  0
   69.2750   82.1951   88.9830 C   0  0  0  0  0  0  0  0  0  0  0  0
   70.2837   81.7781   89.8541 C   0  0  0  0  0  0  0  0  0  0  0  0
   71.5293   82.4062   89.8492 C   0  0  0  0  0  0  0  0  0  0  0  0
   71.7926   83.4619   88.9703 C   0  0  0  0  0  0  0  0  0  0  0  0
   73.0821   83.9980   88.9647 O   0  0  0  0  0  0  0  0  0  0  0  0
   73.7299   83.6664   89.5549 H   0  0  0  0  0  0  0  0  0  0  0  0
   71.8007   85.9813   87.5176 O   0  0  0  0  0  0  0  0  0  0  0  0
   70.9516   85.0971   87.2228 C   0  0  0  0  0  0  0  0  0  0  0  0
   70.2354   85.2087   86.0346 O   0  0  0  0  0  0  0  0  0  0  0  0
   69.6021   84.5569   85.8064 H   0  0  0  0  0  0  0  0  0  0  0  0
  1  2  2  0  0  0  0
  2  3  1  0  0  0  0
  3  4  2  0  0  0  0
  4  5  1  0  0  0  0
  5  7  1  0  0  0  0
  5  6  2  0  0  0  0
  6  1  1  0  0  0  0
  7  8  2  0  0  0  0
  8  9  1  0  0  0  0
  9 10  2  0  0  0  0
 10 11  1  0  0  0  0
 11 13  1  0  0  0  0
 11 12  2  0  0  0  0
 12  7  1  0  0  0  0
 13 14  1  0  0  0  0
 14 15  1  0  0  0  0
 15 16  2  0  0  0  0
 16 17  1  0  0  0  0
 17 18  2  0  0  0  0
 18 21  1  0  0  0  0
 18 19  1  0  0  0  0
 19 20  2  0  0  0  0
 20 15  1  0  0  0  0
 21 22  1  0  0  0  0
 21 23  1  0  0  0  0
 21 24  1  0  0  0  0
 25  1  1  0  0  0  0
 26 25  1  0  0  0  0
 27 28  2  0  0  0  0
 28 29  1  0  0  0  0
 29 26  1  0  0  0  0
 29 30  2  0  0  0  0
 30 31  1  0  0  0  0
 31 32  2  0  0  0  0
 32 33  1  0  0  0  0
 32 27  1  0  0  0  0
 33 34  1  0  0  0  0
 35 36  2  0  0  0  0
 36 37  1  0  0  0  0
 36 27  1  0  0  0  0
 37 38  1  0  0  0  0
M  END
>  <Activity>
3.5

>  <minimizedAffinity>
-9.71457

>  <RFScoreVS_v2>
6.12976923288

$$$$
HIPS7000
 OpenBabel05252300073D

 38 41  0  0  0  0  0  0  0  0999 V2000
   68.3297   74.3828   94.8395 C   0  0  0  0  0  0  0  0  0  0  0  0
   67.3197   73.8088   95.6255 C   0  0  0  0  0  0  0  0  0  0  0  0
   66.0769   74.4338   95.7404 C   0  0  0  0  0  0  0  0  0  0  0  0
   65.8298   75.6344   95.0711 C   0  0  0  0  0  0  0  0  0  0  0  0
   66.8258   76.2209   94.2693 C   0  0  0  0  0  0  0  0  0  0  0  0
   68.0728   75.5807   94.1523 C   0  0  0  0  0  0  0  0  0  0  0  0
   66.5662   77.5012   93.5639 C   0  0  0  0  0  0  0  0  0  0  0  0
   65.4293   78.2694   93.8691 C   0  0  0  0  0  0  0  0  0  0  0  0
   65.1955   79.4774   93.2088 C   0  0  0  0  0  0  0  0  0  0  0  0
   66.0946   79.9355   92.2437 C   0  0  0  0  0  0  0  0  0  0  0  0
   67.2352   79.1908   91.9258 C   0  0  0  0  0  0  0  0  0  0  0  0
   67.4592   77.9643   92.5807 C   0  0  0  0  0  0  0  0  0  0  0  0
   68.1170   79.7049   90.9607 O   0  0  0  0  0  0  0  0  0  0  0  0
   67.7608   80.6178   89.9209 C   0  0  0  0  0  0  0  0  0  0  0  0
   68.9248   81.5050   89.5641 C   0  0  0  0  0  0  0  0  0  0  0  0
   70.1563   81.3461   90.2165 C   0  0  0  0  0  0  0  0  0  0  0  0
   71.2428   82.1599   89.8833 C   0  0  0  0  0  0  0  0  0  0  0  0
   71.1191   83.1391   88.8824 C   0  0  0  0  0  0  0  0  0  0  0  0
   69.8728   83.3226   88.2592 C   0  0  0  0  0  0  0  0  0  0  0  0
   68.7861   82.5103   88.5949 C   0  0  0  0  0  0  0  0  0  0  0  0
   72.2771   84.0469   88.5528 C   0  0  0  0  0  0  0  0  0  0  0  0
   73.3748   83.7465   89.3405 F   0  0  0  0  0  0  0  0  0  0  0  0
   72.6455   83.9054   87.2260 F   0  0  0  0  0  0  0  0  0  0  0  0
   71.9054   85.3588   88.7798 F   0  0  0  0  0  0  0  0  0  0  0  0
   69.6738   73.7114   94.7349 C   0  0  0  0  0  0  0  0  0  0  0  0
   70.1855   73.8083   93.4048 O   0  0  0  0  0  0  0  0  0  0  0  0
   68.2347   74.5654   90.2935 C   0  0  0  0  0  0  0  0  0  0  0  0
   68.9661   74.7579   91.4803 C   0  0  0  0  0  0  0  0  0  0  0  0
   69.4298   73.6605   92.2296 C   0  0  0  0  0  0  0  0  0  0  0  0
   69.1376   72.3666   91.7932 C   0  0  0  0  0  0  0  0  0  0  0  0
   68.3920   72.1613   90.6322 C   0  0  0  0  0  0  0  0  0  0  0  0
   67.9205   73.2461   89.8858 C   0  0  0  0  0  0  0  0  0  0  0  0
   67.1184   72.9730   88.7758 O   0  0  0  0  0  0  0  0  0  0  0  0
   66.9335   72.0857   88.5383 H   0  0  0  0  0  0  0  0  0  0  0  0
   66.8202   75.7225   88.7754 O   0  0  0  0  0  0  0  0  0  0  0  0
   67.8551   75.7517   89.4950 C   0  0  0  0  0  0  0  0  0  0  0  0
   68.5954   76.9274   89.5774 O   0  0  0  0  0  0  0  0  0  0  0  0
   69.3660   76.9595   90.1094 H   0  0  0  0  0  0  0  0  0  0  0  0
  1  2  2  0  0  0  0
  2  3  1  0  0  0  0
  3  4  2  0  0  0  0
  4  5  1  0  0  0  0
  5  7  1  0  0  0  0
  5  6  2  0  0  0  0
  6  1  1  0  0  0  0
  7  8  2  0  0  0  0
  8  9  1  0  0  0  0
  9 10  2  0  0  0  0
 10 11  1  0  0  0  0
 11 13  1  0  0  0  0
 11 12  2  0  0  0  0
 12  7  1  0  0  0  0
 13 14  1  0  0  0  0
 14 15  1  0  0  0  0
 15 16  2  0  0  0  0
 16 17  1  0  0  0  0
 17 18  2  0  0  0  0
 18 21  1  0  0  0  0
 18 19  1  0  0  0  0
 19 20  2  0  0  0  0
 20 15  1  0  0  0  0
 21 22  1  0  0  0  0
 21 23  1  0  0  0  0
 21 24  1  0  0  0  0
 25  1  1  0  0  0  0
 26 25  1  0  0  0  0
 27 28  2  0  0  0  0
 28 29  1  0  0  0  0
 29 26  1  0  0  0  0
 29 30  2  0  0  0  0
 30 31  1  0  0  0  0
 31 32  2  0  0  0  0
 32 33  1  0  0  0  0
 32 27  1  0  0  0  0
 33 34  1  0  0  0  0
 35 36  2  0  0  0  0
 36 37  1  0  0  0  0
 36 27  1  0  0  0  0
 37 38  1  0  0  0  0
M  END
>  <Activity>
3.5

>  <minimizedAffinity>
-9.65703

>  <RFScoreVS_v2>
6.15234589124

$$$$
HIPS7000
 OpenBabel05252300073D

 38 41  0  0  0  0  0  0  0  0999 V2000
   68.1417   74.9743   94.6861 C   0  0  0  0  0  0  0  0  0  0  0  0
   66.9119   74.3485   94.9374 C   0  0  0  0  0  0  0  0  0  0  0  0
   65.7168   74.9809   94.5905 C   0  0  0  0  0  0  0  0  0  0  0  0
   65.7379   76.2407   93.9881 C   0  0  0  0  0  0  0  0  0  0  0  0
   66.9611   76.8805   93.7178 C   0  0  0  0  0  0  0  0  0  0  0  0
   68.1611   76.2331   94.0633 C   0  0  0  0  0  0  0  0  0  0  0  0
   66.9837   78.2232   93.0846 C   0  0  0  0  0  0  0  0  0  0  0  0
   66.5263   79.3530   93.7847 C   0  0  0  0  0  0  0  0  0  0  0  0
   66.5588   80.6147   93.1871 C   0  0  0  0  0  0  0  0  0  0  0  0
   67.0533   80.7646   91.8899 C   0  0  0  0  0  0  0  0  0  0  0  0
   67.5180   79.6560   91.1748 C   0  0  0  0  0  0  0  0  0  0  0  0
   67.4676   78.3822   91.7734 C   0  0  0  0  0  0  0  0  0  0  0  0
   68.0220   79.8637   89.8802 O   0  0  0  0  0  0  0  0  0  0  0  0
   67.7686   81.0137   89.0711 C   0  0  0  0  0  0  0  0  0  0  0  0
   69.0135   81.8488   88.9210 C   0  0  0  0  0  0  0  0  0  0  0  0
   69.1061   82.7943   87.8890 C   0  0  0  0  0  0  0  0  0  0  0  0
   70.2546   83.5788   87.7503 C   0  0  0  0  0  0  0  0  0  0  0  0
   71.3259   83.4391   88.6495 C   0  0  0  0  0  0  0  0  0  0  0  0
   71.2463   82.4629   89.6575 C   0  0  0  0  0  0  0  0  0  0  0  0
   70.0986   81.6770   89.7940 C   0  0  0  0  0  0  0  0  0  0  0  0
   72.5829   84.2533   88.4745 C   0  0  0  0  0  0  0  0  0  0  0  0
   73.5276   83.9065   89.4248 F   0  0  0  0  0  0  0  0  0  0  0  0
   73.1316   84.0399   87.2216 F   0  0  0  0  0  0  0  0  0  0  0  0
   72.2786   85.5948   88.6105 F   0  0  0  0  0  0  0  0  0  0  0  0
   69.4261   74.2931   95.0796 C   0  0  0  0  0  0  0  0  0  0  0  0
   70.1650   73.8992   93.9224 O   0  0  0  0  0  0  0  0  0  0  0  0
   70.5330   70.2044   93.4011 C   0  0  0  0  0  0  0  0  0  0  0  0
   70.5970   71.4707   94.0117 C   0  0  0  0  0  0  0  0  0  0  0  0
   70.1434   72.6211   93.3395 C   0  0  0  0  0  0  0  0  0  0  0  0
   69.6440   72.4979   92.0413 C   0  0  0  0  0  0  0  0  0  0  0  0
   69.5980   71.2524   91.4145 C   0  0  0  0  0  0  0  0  0  0  0  0
   70.0540   70.1054   92.0721 C   0  0  0  0  0  0  0  0  0  0  0  0
   70.0489   68.9027   91.3623 O   0  0  0  0  0  0  0  0  0  0  0  0
   69.7234   68.8785   90.4840 H   0  0  0  0  0  0  0  0  0  0  0  0
   71.9199   68.3222   93.8232 O   0  0  0  0  0  0  0  0  0  0  0  0
   70.9333   69.0174   94.1883 C   0  0  0  0  0  0  0  0  0  0  0  0
   70.2697   68.6930   95.3679 O   0  0  0  0  0  0  0  0  0  0  0  0
   69.5355   69.2033   95.6480 H   0  0  0  0  0  0  0  0  0  0  0  0
  1  2  2  0  0  0  0
  2  3  1  0  0  0  0
  3  4  2  0  0  0  0
  4  5  1  0  0  0  0
  5  7  1  0  0  0  0
  5  6  2  0  0  0  0
  6  1  1  0  0  0  0
  7  8  2  0  0  0  0
  8  9  1  0  0  0  0
  9 10  2  0  0  0  0
 10 11  1  0  0  0  0
 11 13  1  0  0  0  0
 11 12  2  0  0  0  0
 12  7  1  0  0  0  0
 13 14  1  0  0  0  0
 14 15  1  0  0  0  0
 15 16  2  0  0  0  0
 16 17  1  0  0  0  0
 17 18  2  0  0  0  0
 18 21  1  0  0  0  0
 18 19  1  0  0  0  0
 19 20  2  0  0  0  0
 20 15  1  0  0  0  0
 21 22  1  0  0  0  0
 21 23  1  0  0  0  0
 21 24  1  0  0  0  0
 25  1  1  0  0  0  0
 26 25  1  0  0  0  0
 27 28  2  0  0  0  0
 28 29  1  0  0  0  0
 29 26  1  0  0  0  0
 29 30  2  0  0  0  0
 30 31  1  0  0  0  0
 31 32  2  0  0  0  0
 32 33  1  0  0  0  0
 32 27  1  0  0  0  0
 33 34  1  0  0  0  0
 35 36  2  0  0  0  0
 36 37  1  0  0  0  0
 36 27  1  0  0  0  0
 37 38  1  0  0  0  0
M  END
>  <Activity>
3.5

>  <minimizedAffinity>
-9.58379

>  <RFScoreVS_v2>
6.10752688821

$$$$
HIPS7000
 OpenBabel05252300073D

 38 41  0  0  0  0  0  0  0  0999 V2000
   68.4464   74.2808   94.4577 C   0  0  0  0  0  0  0  0  0  0  0  0
   67.5972   73.6683   95.3910 C   0  0  0  0  0  0  0  0  0  0  0  0
   66.3760   74.2571   95.7236 C   0  0  0  0  0  0  0  0  0  0  0  0
   65.9904   75.4595   95.1271 C   0  0  0  0  0  0  0  0  0  0  0  0
   66.8228   76.0843   94.1808 C   0  0  0  0  0  0  0  0  0  0  0  0
   68.0481   75.4805   93.8452 C   0  0  0  0  0  0  0  0  0  0  0  0
   66.4167   77.3666   93.5523 C   0  0  0  0  0  0  0  0  0  0  0  0
   65.3555   78.1200   94.0834 C   0  0  0  0  0  0  0  0  0  0  0  0
   64.9844   79.3300   93.4932 C   0  0  0  0  0  0  0  0  0  0  0  0
   65.6704   79.8047   92.3735 C   0  0  0  0  0  0  0  0  0  0  0  0
   66.7324   79.0749   91.8296 C   0  0  0  0  0  0  0  0  0  0  0  0
   67.0931   77.8464   92.4161 C   0  0  0  0  0  0  0  0  0  0  0  0
   67.4009   79.6053   90.7138 O   0  0  0  0  0  0  0  0  0  0  0  0
   66.7675   80.1413   89.5507 C   0  0  0  0  0  0  0  0  0  0  0  0
   67.6458   81.1701   88.8875 C   0  0  0  0  0  0  0  0  0  0  0  0
   67.3160   81.6621   87.6161 C   0  0  0  0  0  0  0  0  0  0  0  0
   68.1217   82.6236   86.9995 C   0  0  0  0  0  0  0  0  0  0  0  0
   69.2653   83.1184   87.6502 C   0  0  0  0  0  0  0  0  0  0  0  0
   69.6150   82.5938   88.9063 C   0  0  0  0  0  0  0  0  0  0  0  0
   68.8103   81.6304   89.5209 C   0  0  0  0  0  0  0  0  0  0  0  0
   70.1594   84.1228   86.9678 C   0  0  0  0  0  0  0  0  0  0  0  0
   69.4301   84.9199   86.1028 F   0  0  0  0  0  0  0  0  0  0  0  0
   70.7712   84.9433   87.8998 F   0  0  0  0  0  0  0  0  0  0  0  0
   71.1323   83.4521   86.2505 F   0  0  0  0  0  0  0  0  0  0  0  0
   69.7702   73.6483   94.1174 C   0  0  0  0  0  0  0  0  0  0  0  0
   70.1452   73.9519   92.7729 O   0  0  0  0  0  0  0  0  0  0  0  0
   68.0153   75.0009   89.8708 C   0  0  0  0  0  0  0  0  0  0  0  0
   68.8544   75.0810   90.9977 C   0  0  0  0  0  0  0  0  0  0  0  0
   69.2866   73.9175   91.6614 C   0  0  0  0  0  0  0  0  0  0  0  0
   68.8550   72.6718   91.2011 C   0  0  0  0  0  0  0  0  0  0  0  0
   68.0029   72.5788   90.1005 C   0  0  0  0  0  0  0  0  0  0  0  0
   67.5622   73.7302   89.4400 C   0  0  0  0  0  0  0  0  0  0  0  0
   66.6526   73.5717   88.3923 O   0  0  0  0  0  0  0  0  0  0  0  0
   66.3770   72.7134   88.1369 H   0  0  0  0  0  0  0  0  0  0  0  0
   66.5241   76.3877   88.6472 O   0  0  0  0  0  0  0  0  0  0  0  0
   67.6700   76.2485   89.1545 C   0  0  0  0  0  0  0  0  0  0  0  0
   68.5779   77.3013   89.0877 O   0  0  0  0  0  0  0  0  0  0  0  0
   69.4319   77.2080   89.4616 H   0  0  0  0  0  0  0  0  0  0  0  0
  1  2  2  0  0  0  0
  2  3  1  0  0  0  0
  3  4  2  0  0  0  0
  4  5  1  0  0  0  0
  5  7  1  0  0  0  0
  5  6  2  0  0  0  0
  6  1  1  0  0  0  0
  7  8  2  0  0  0  0
  8  9  1  0  0  0  0
  9 10  2  0  0  0  0
 10 11  1  0  0  0  0
 11 13  1  0  0  0  0
 11 12  2  0  0  0  0
 12  7  1  0  0  0  0
 13 14  1  0  0  0  0
 14 15  1  0  0  0  0
 15 16  2  0  0  0  0
 16 17  1  0  0  0  0
 17 18  2  0  0  0  0
 18 21  1  0  0  0  0
 18 19  1  0  0  0  0
 19 20  2  0  0  0  0
 20 15  1  0  0  0  0
 21 22  1  0  0  0  0
 21 23  1  0  0  0  0
 21 24  1  0  0  0  0
 25  1  1  0  0  0  0
 26 25  1  0  0  0  0
 27 28  2  0  0  0  0
 28 29  1  0  0  0  0
 29 26  1  0  0  0  0
 29 30  2  0  0  0  0
 30 31  1  0  0  0  0
 31 32  2  0  0  0  0
 32 33  1  0  0  0  0
 32 27  1  0  0  0  0
 33 34  1  0  0  0  0
 35 36  2  0  0  0  0
 36 37  1  0  0  0  0
 36 27  1  0  0  0  0
 37 38  1  0  0  0  0
M  END
>  <Activity>
3.5

>  <minimizedAffinity>
-9.57621

>  <RFScoreVS_v2>
6.15308367585

$$$$
HIPS7000
 OpenBabel05252300073D

 38 41  0  0  0  0  0  0  0  0999 V2000
   67.6390   76.1603   89.1132 C   0  0  0  0  0  0  0  0  0  0  0  0
   67.0923   75.8939   87.8493 C   0  0  0  0  0  0  0  0  0  0  0  0
   66.7165   76.9440   87.0099 C   0  0  0  0  0  0  0  0  0  0  0  0
   66.8847   78.2676   87.4222 C   0  0  0  0  0  0  0  0  0  0  0  0
   67.4411   78.5561   88.6816 C   0  0  0  0  0  0  0  0  0  0  0  0
   67.8246   77.4923   89.5183 C   0  0  0  0  0  0  0  0  0  0  0  0
   67.6129   79.9630   89.1235 C   0  0  0  0  0  0  0  0  0  0  0  0
   68.0527   80.2558   90.4261 C   0  0  0  0  0  0  0  0  0  0  0  0
   68.2214   81.5810   90.8329 C   0  0  0  0  0  0  0  0  0  0  0  0
   67.9607   82.6266   89.9450 C   0  0  0  0  0  0  0  0  0  0  0  0
   67.5262   82.3602   88.6425 C   0  0  0  0  0  0  0  0  0  0  0  0
   67.3400   81.0233   88.2405 C   0  0  0  0  0  0  0  0  0  0  0  0
   67.2954   83.4473   87.7833 O   0  0  0  0  0  0  0  0  0  0  0  0
   68.0977   83.7890   86.6516 C   0  0  0  0  0  0  0  0  0  0  0  0
   69.3081   84.5814   87.0718 C   0  0  0  0  0  0  0  0  0  0  0  0
   70.5696   83.9695   87.1138 C   0  0  0  0  0  0  0  0  0  0  0  0
   71.6980   84.7019   87.4936 C   0  0  0  0  0  0  0  0  0  0  0  0
   71.5853   86.0628   87.8265 C   0  0  0  0  0  0  0  0  0  0  0  0
   70.3140   86.6622   87.8225 C   0  0  0  0  0  0  0  0  0  0  0  0
   69.1859   85.9286   87.4451 C   0  0  0  0  0  0  0  0  0  0  0  0
   72.7941   86.8425   88.2790 C   0  0  0  0  0  0  0  0  0  0  0  0
   73.6283   86.0502   89.0484 F   0  0  0  0  0  0  0  0  0  0  0  0
   73.5156   87.2992   87.1895 F   0  0  0  0  0  0  0  0  0  0  0  0
   72.3810   87.9256   89.0319 F   0  0  0  0  0  0  0  0  0  0  0  0
   68.0256   75.0217   90.0201 C   0  0  0  0  0  0  0  0  0  0  0  0
   68.7940   75.4952   91.1272 O   0  0  0  0  0  0  0  0  0  0  0  0
   69.8942   72.9038   93.6037 C   0  0  0  0  0  0  0  0  0  0  0  0
   69.6762   73.5583   92.3771 C   0  0  0  0  0  0  0  0  0  0  0  0
   69.0086   74.7962   92.3269 C   0  0  0  0  0  0  0  0  0  0  0  0
   68.5409   75.3655   93.5132 C   0  0  0  0  0  0  0  0  0  0  0  0
   68.7278   74.7156   94.7334 C   0  0  0  0  0  0  0  0  0  0  0  0
   69.3831   73.4814   94.7915 C   0  0  0  0  0  0  0  0  0  0  0  0
   69.4721   72.8494   96.0336 O   0  0  0  0  0  0  0  0  0  0  0  0
   69.1214   73.2649   96.7968 H   0  0  0  0  0  0  0  0  0  0  0  0
   71.7558   71.5820   92.9468 O   0  0  0  0  0  0  0  0  0  0  0  0
   70.6851   71.6535   93.6088 C   0  0  0  0  0  0  0  0  0  0  0  0
   70.2927   70.5703   94.3897 O   0  0  0  0  0  0  0  0  0  0  0  0
   69.4988   70.6133   94.8855 H   0  0  0  0  0  0  0  0  0  0  0  0
  1  2  2  0  0  0  0
  2  3  1  0  0  0  0
  3  4  2  0  0  0  0
  4  5  1  0  0  0  0
  5  7  1  0  0  0  0
  5  6  2  0  0  0  0
  6  1  1  0  0  0  0
  7  8  2  0  0  0  0
  8  9  1  0  0  0  0
  9 10  2  0  0  0  0
 10 11  1  0  0  0  0
 11 13  1  0  0  0  0
 11 12  2  0  0  0  0
 12  7  1  0  0  0  0
 13 14  1  0  0  0  0
 14 15  1  0  0  0  0
 15 16  2  0  0  0  0
 16 17  1  0  0  0  0
 17 18  2  0  0  0  0
 18 21  1  0  0  0  0
 18 19  1  0  0  0  0
 19 20  2  0  0  0  0
 20 15  1  0  0  0  0
 21 22  1  0  0  0  0
 21 23  1  0  0  0  0
 21 24  1  0  0  0  0
 25  1  1  0  0  0  0
 26 25  1  0  0  0  0
 27 28  2  0  0  0  0
 28 29  1  0  0  0  0
 29 26  1  0  0  0  0
 29 30  2  0  0  0  0
 30 31  1  0  0  0  0
 31 32  2  0  0  0  0
 32 33  1  0  0  0  0
 32 27  1  0  0  0  0
 33 34  1  0  0  0  0
 35 36  2  0  0  0  0
 36 37  1  0  0  0  0
 36 27  1  0  0  0  0
 37 38  1  0  0  0  0
M  END
>  <Activity>
3.5

>  <minimizedAffinity>
-9.47472

>  <RFScoreVS_v2>
6.16880943953

$$$$
HIPS7000
 OpenBabel05252300073D

 38 41  0  0  0  0  0  0  0  0999 V2000
   69.2372   78.0706   89.8824 C   0  0  0  0  0  0  0  0  0  0  0  0
   70.6170   77.8594   90.0195 C   0  0  0  0  0  0  0  0  0  0  0  0
   71.4791   78.9413   90.2065 C   0  0  0  0  0  0  0  0  0  0  0  0
   70.9728   80.2417   90.2608 C   0  0  0  0  0  0  0  0  0  0  0  0
   69.5910   80.4739   90.1361 C   0  0  0  0  0  0  0  0  0  0  0  0
   68.7282   79.3777   89.9559 C   0  0  0  0  0  0  0  0  0  0  0  0
   69.0532   81.8568   90.1859 C   0  0  0  0  0  0  0  0  0  0  0  0
   68.9511   82.5418   91.4091 C   0  0  0  0  0  0  0  0  0  0  0  0
   68.4531   83.8459   91.4483 C   0  0  0  0  0  0  0  0  0  0  0  0
   68.0589   84.4826   90.2698 C   0  0  0  0  0  0  0  0  0  0  0  0
   68.1551   83.8231   89.0402 C   0  0  0  0  0  0  0  0  0  0  0  0
   68.6411   82.5017   89.0058 C   0  0  0  0  0  0  0  0  0  0  0  0
   67.7622   84.5147   87.8824 O   0  0  0  0  0  0  0  0  0  0  0  0
   68.6269   84.8752   86.8036 C   0  0  0  0  0  0  0  0  0  0  0  0
   69.8336   85.6217   87.3100 C   0  0  0  0  0  0  0  0  0  0  0  0
   71.1088   85.0457   87.2129 C   0  0  0  0  0  0  0  0  0  0  0  0
   72.2334   85.7372   87.6722 C   0  0  0  0  0  0  0  0  0  0  0  0
   72.1026   87.0226   88.2257 C   0  0  0  0  0  0  0  0  0  0  0  0
   70.8192   87.5799   88.3584 C   0  0  0  0  0  0  0  0  0  0  0  0
   69.6949   86.8867   87.9013 C   0  0  0  0  0  0  0  0  0  0  0  0
   73.3091   87.7512   88.7618 C   0  0  0  0  0  0  0  0  0  0  0  0
   74.1270   86.8889   89.4711 F   0  0  0  0  0  0  0  0  0  0  0  0
   74.0495   88.2960   87.7268 F   0  0  0  0  0  0  0  0  0  0  0  0
   72.8911   88.7675   89.6003 F   0  0  0  0  0  0  0  0  0  0  0  0
   68.3157   76.8996   89.6632 C   0  0  0  0  0  0  0  0  0  0  0  0
   67.6331   76.5600   90.8711 O   0  0  0  0  0  0  0  0  0  0  0  0
   67.6349   74.1426   93.7374 C   0  0  0  0  0  0  0  0  0  0  0  0
   67.2734   75.2280   92.9177 C   0  0  0  0  0  0  0  0  0  0  0  0
   67.9776   75.5034   91.7307 C   0  0  0  0  0  0  0  0  0  0  0  0
   69.0617   74.6961   91.3800 C   0  0  0  0  0  0  0  0  0  0  0  0
   69.4468   73.6322   92.1960 C   0  0  0  0  0  0  0  0  0  0  0  0
   68.7576   73.3563   93.3814 C   0  0  0  0  0  0  0  0  0  0  0  0
   69.2393   72.3240   94.1892 O   0  0  0  0  0  0  0  0  0  0  0  0
   69.9854   71.8263   93.9182 H   0  0  0  0  0  0  0  0  0  0  0  0
   65.5539   74.0183   94.8768 O   0  0  0  0  0  0  0  0  0  0  0  0
   66.8015   73.8410   94.9220 C   0  0  0  0  0  0  0  0  0  0  0  0
   67.3724   73.3018   96.0710 O   0  0  0  0  0  0  0  0  0  0  0  0
   68.2985   73.1661   96.1147 H   0  0  0  0  0  0  0  0  0  0  0  0
  1  2  2  0  0  0  0
  2  3  1  0  0  0  0
  3  4  2  0  0  0  0
  4  5  1  0  0  0  0
  5  7  1  0  0  0  0
  5  6  2  0  0  0  0
  6  1  1  0  0  0  0
  7  8  2  0  0  0  0
  8  9  1  0  0  0  0
  9 10  2  0  0  0  0
 10 11  1  0  0  0  0
 11 13  1  0  0  0  0
 11 12  2  0  0  0  0
 12  7  1  0  0  0  0
 13 14  1  0  0  0  0
 14 15  1  0  0  0  0
 15 16  2  0  0  0  0
 16 17  1  0  0  0  0
 17 18  2  0  0  0  0
 18 21  1  0  0  0  0
 18 19  1  0  0  0  0
 19 20  2  0  0  0  0
 20 15  1  0  0  0  0
 21 22  1  0  0  0  0
 21 23  1  0  0  0  0
 21 24  1  0  0  0  0
 25  1  1  0  0  0  0
 26 25  1  0  0  0  0
 27 28  2  0  0  0  0
 28 29  1  0  0  0  0
 29 26  1  0  0  0  0
 29 30  2  0  0  0  0
 30 31  1  0  0  0  0
 31 32  2  0  0  0  0
 32 33  1  0  0  0  0
 32 27  1  0  0  0  0
 33 34  1  0  0  0  0
 35 36  2  0  0  0  0
 36 37  1  0  0  0  0
 36 27  1  0  0  0  0
 37 38  1  0  0  0  0
M  END
>  <Activity>
3.5

>  <minimizedAffinity>
-9.44820

>  <RFScoreVS_v2>
6.12369054438

$$$$
HIPS7000
 OpenBabel05252300073D

 38 41  0  0  0  0  0  0  0  0999 V2000
   69.2790   77.4749   90.8958 C   0  0  0  0  0  0  0  0  0  0  0  0
   70.4378   76.7202   91.1300 C   0  0  0  0  0  0  0  0  0  0  0  0
   71.6975   77.3091   91.0080 C   0  0  0  0  0  0  0  0  0  0  0  0
   71.8124   78.6551   90.6541 C   0  0  0  0  0  0  0  0  0  0  0  0
   70.6623   79.4321   90.4254 C   0  0  0  0  0  0  0  0  0  0  0  0
   69.3964   78.8333   90.5581 C   0  0  0  0  0  0  0  0  0  0  0  0
   70.7841   80.8611   90.0415 C   0  0  0  0  0  0  0  0  0  0  0  0
   71.9791   81.5648   90.2706 C   0  0  0  0  0  0  0  0  0  0  0  0
   72.0907   82.9062   89.8988 C   0  0  0  0  0  0  0  0  0  0  0  0
   71.0166   83.5575   89.2892 C   0  0  0  0  0  0  0  0  0  0  0  0
   69.8187   82.8772   89.0470 C   0  0  0  0  0  0  0  0  0  0  0  0
   69.7030   81.5295   89.4390 C   0  0  0  0  0  0  0  0  0  0  0  0
   68.7751   83.5731   88.4147 O   0  0  0  0  0  0  0  0  0  0  0  0
   67.3864   83.2563   88.5258 C   0  0  0  0  0  0  0  0  0  0  0  0
   67.1515   81.7861   88.2958 C   0  0  0  0  0  0  0  0  0  0  0  0
   67.5127   81.1988   87.0743 C   0  0  0  0  0  0  0  0  0  0  0  0
   67.3062   79.8333   86.8583 C   0  0  0  0  0  0  0  0  0  0  0  0
   66.7454   79.0293   87.8657 C   0  0  0  0  0  0  0  0  0  0  0  0
   66.3475   79.6287   89.0731 C   0  0  0  0  0  0  0  0  0  0  0  0
   66.5519   80.9946   89.2873 C   0  0  0  0  0  0  0  0  0  0  0  0
   66.4812   77.5656   87.6181 C   0  0  0  0  0  0  0  0  0  0  0  0
   65.8671   77.3791   86.3918 F   0  0  0  0  0  0  0  0  0  0  0  0
   67.6655   76.8489   87.6218 F   0  0  0  0  0  0  0  0  0  0  0  0
   65.6562   77.0774   88.6140 F   0  0  0  0  0  0  0  0  0  0  0  0
   67.9240   76.8276   91.0122 C   0  0  0  0  0  0  0  0  0  0  0  0
   67.3818   77.0207   92.3194 O   0  0  0  0  0  0  0  0  0  0  0  0
   68.2465   74.1995   94.6329 C   0  0  0  0  0  0  0  0  0  0  0  0
   68.3581   75.1523   93.6033 C   0  0  0  0  0  0  0  0  0  0  0  0
   67.3015   76.0378   93.3202 C   0  0  0  0  0  0  0  0  0  0  0  0
   66.1219   75.9487   94.0623 C   0  0  0  0  0  0  0  0  0  0  0  0
   65.9881   74.9924   95.0690 C   0  0  0  0  0  0  0  0  0  0  0  0
   67.0301   74.1033   95.3516 C   0  0  0  0  0  0  0  0  0  0  0  0
   66.8047   73.1231   96.3205 O   0  0  0  0  0  0  0  0  0  0  0  0
   65.9856   73.0928   96.7745 H   0  0  0  0  0  0  0  0  0  0  0  0
   69.4615   72.7143   96.0338 O   0  0  0  0  0  0  0  0  0  0  0  0
   69.4220   73.3593   94.9511 C   0  0  0  0  0  0  0  0  0  0  0  0
   70.4625   73.2217   94.0371 O   0  0  0  0  0  0  0  0  0  0  0  0
   70.4427   73.6966   93.2296 H   0  0  0  0  0  0  0  0  0  0  0  0
  1  2  2  0  0  0  0
  2  3  1  0  0  0  0
  3  4  2  0  0  0  0
  4  5  1  0  0  0  0
  5  7  1  0  0  0  0
  5  6  2  0  0  0  0
  6  1  1  0  0  0  0
  7  8  2  0  0  0  0
  8  9  1  0  0  0  0
  9 10  2  0  0  0  0
 10 11  1  0  0  0  0
 11 13  1  0  0  0  0
 11 12  2  0  0  0  0
 12  7  1  0  0  0  0
 13 14  1  0  0  0  0
 14 15  1  0  0  0  0
 15 16  2  0  0  0  0
 16 17  1  0  0  0  0
 17 18  2  0  0  0  0
 18 21  1  0  0  0  0
 18 19  1  0  0  0  0
 19 20  2  0  0  0  0
 20 15  1  0  0  0  0
 21 22  1  0  0  0  0
 21 23  1  0  0  0  0
 21 24  1  0  0  0  0
 25  1  1  0  0  0  0
 26 25  1  0  0  0  0
 27 28  2  0  0  0  0
 28 29  1  0  0  0  0
 29 26  1  0  0  0  0
 29 30  2  0  0  0  0
 30 31  1  0  0  0  0
 31 32  2  0  0  0  0
 32 33  1  0  0  0  0
 32 27  1  0  0  0  0
 33 34  1  0  0  0  0
 35 36  2  0  0  0  0
 36 37  1  0  0  0  0
 36 27  1  0  0  0  0
 37 38  1  0  0  0  0
M  END
>  <Activity>
3.5

>  <minimizedAffinity>
-9.40361

>  <RFScoreVS_v2>
6.23593103702

$$$$
HIPS7000
 OpenBabel05252300073D

 38 41  0  0  0  0  0  0  0  0999 V2000
   66.9161   75.5467   87.8707 C   0  0  0  0  0  0  0  0  0  0  0  0
   67.1382   75.5681   86.4860 C   0  0  0  0  0  0  0  0  0  0  0  0
   67.2940   76.7834   85.8172 C   0  0  0  0  0  0  0  0  0  0  0  0
   67.2324   77.9867   86.5233 C   0  0  0  0  0  0  0  0  0  0  0  0
   67.0213   77.9865   87.9140 C   0  0  0  0  0  0  0  0  0  0  0  0
   66.8731   76.7573   88.5818 C   0  0  0  0  0  0  0  0  0  0  0  0
   66.9479   79.2657   88.6639 C   0  0  0  0  0  0  0  0  0  0  0  0
   66.6077   79.2779   90.0277 C   0  0  0  0  0  0  0  0  0  0  0  0
   66.5494   80.4836   90.7298 C   0  0  0  0  0  0  0  0  0  0  0  0
   66.8361   81.6874   90.0830 C   0  0  0  0  0  0  0  0  0  0  0  0
   67.1812   81.7003   88.7276 C   0  0  0  0  0  0  0  0  0  0  0  0
   67.2219   80.4846   88.0177 C   0  0  0  0  0  0  0  0  0  0  0  0
   67.4778   82.9359   88.1289 O   0  0  0  0  0  0  0  0  0  0  0  0
   68.3173   83.1190   86.9874 C   0  0  0  0  0  0  0  0  0  0  0  0
   69.4427   84.0716   87.2963 C   0  0  0  0  0  0  0  0  0  0  0  0
   70.7666   83.6094   87.3288 C   0  0  0  0  0  0  0  0  0  0  0  0
   71.8161   84.4902   87.6055 C   0  0  0  0  0  0  0  0  0  0  0  0
   71.5598   85.8518   87.8427 C   0  0  0  0  0  0  0  0  0  0  0  0
   70.2289   86.3034   87.8493 C   0  0  0  0  0  0  0  0  0  0  0  0
   69.1799   85.4215   87.5752 C   0  0  0  0  0  0  0  0  0  0  0  0
   72.6862   86.7941   88.1848 C   0  0  0  0  0  0  0  0  0  0  0  0
   73.5820   86.1925   89.0516 F   0  0  0  0  0  0  0  0  0  0  0  0
   73.3739   87.1671   87.0428 F   0  0  0  0  0  0  0  0  0  0  0  0
   72.1665   87.9245   88.7872 F   0  0  0  0  0  0  0  0  0  0  0  0
   66.7313   74.2321   88.5822 C   0  0  0  0  0  0  0  0  0  0  0  0
   67.9235   73.8600   89.2754 O   0  0  0  0  0  0  0  0  0  0  0  0
   68.9871   74.5696   92.8002 C   0  0  0  0  0  0  0  0  0  0  0  0
   68.8957   74.6591   91.3987 C   0  0  0  0  0  0  0  0  0  0  0  0
   68.0639   73.7874   90.6714 C   0  0  0  0  0  0  0  0  0  0  0  0
   67.3391   72.8096   91.3559 C   0  0  0  0  0  0  0  0  0  0  0  0
   67.4395   72.6932   92.7425 C   0  0  0  0  0  0  0  0  0  0  0  0
   68.2698   73.5501   93.4722 C   0  0  0  0  0  0  0  0  0  0  0  0
   68.3818   73.3331   94.8471 O   0  0  0  0  0  0  0  0  0  0  0  0
   67.8900   72.6477   95.2549 H   0  0  0  0  0  0  0  0  0  0  0  0
   69.6766   75.7045   94.7701 O   0  0  0  0  0  0  0  0  0  0  0  0
   69.8011   75.5719   93.5224 C   0  0  0  0  0  0  0  0  0  0  0  0
   70.7528   76.3308   92.8476 O   0  0  0  0  0  0  0  0  0  0  0  0
   70.8532   76.2398   91.9205 H   0  0  0  0  0  0  0  0  0  0  0  0
  1  2  2  0  0  0  0
  2  3  1  0  0  0  0
  3  4  2  0  0  0  0
  4  5  1  0  0  0  0
  5  7  1  0  0  0  0
  5  6  2  0  0  0  0
  6  1  1  0  0  0  0
  7  8  2  0  0  0  0
  8  9  1  0  0  0  0
  9 10  2  0  0  0  0
 10 11  1  0  0  0  0
 11 13  1  0  0  0  0
 11 12  2  0  0  0  0
 12  7  1  0  0  0  0
 13 14  1  0  0  0  0
 14 15  1  0  0  0  0
 15 16  2  0  0  0  0
 16 17  1  0  0  0  0
 17 18  2  0  0  0  0
 18 21  1  0  0  0  0
 18 19  1  0  0  0  0
 19 20  2  0  0  0  0
 20 15  1  0  0  0  0
 21 22  1  0  0  0  0
 21 23  1  0  0  0  0
 21 24  1  0  0  0  0
 25  1  1  0  0  0  0
 26 25  1  0  0  0  0
 27 28  2  0  0  0  0
 28 29  1  0  0  0  0
 29 26  1  0  0  0  0
 29 30  2  0  0  0  0
 30 31  1  0  0  0  0
 31 32  2  0  0  0  0
 32 33  1  0  0  0  0
 32 27  1  0  0  0  0
 33 34  1  0  0  0  0
 35 36  2  0  0  0  0
 36 37  1  0  0  0  0
 36 27  1  0  0  0  0
 37 38  1  0  0  0  0
M  END
>  <Activity>
3.5

>  <minimizedAffinity>
-9.37747

>  <RFScoreVS_v2>
6.3246574485

$$$$
HIPS6994
 OpenBabel05252300073D

 34 37  0  0  0  0  0  0  0  0999 V2000
   67.5445   76.9172   88.9503 C   0  0  0  0  0  0  0  0  0  0  0  0
   66.6758   77.6033   88.0845 C   0  0  0  0  0  0  0  0  0  0  0  0
   66.8123   78.9799   87.8902 C   0  0  0  0  0  0  0  0  0  0  0  0
   67.8185   79.6864   88.5524 C   0  0  0  0  0  0  0  0  0  0  0  0
   68.6865   79.0213   89.4306 C   0  0  0  0  0  0  0  0  0  0  0  0
   68.5475   77.6376   89.6232 C   0  0  0  0  0  0  0  0  0  0  0  0
   67.8381   73.4408   90.4467 C   0  0  0  0  0  0  0  0  0  0  0  0
   67.2414   72.6636   89.4496 C   0  0  0  0  0  0  0  0  0  0  0  0
   66.7230   73.2726   88.3053 C   0  0  0  0  0  0  0  0  0  0  0  0
   66.8082   74.6586   88.1470 C   0  0  0  0  0  0  0  0  0  0  0  0
   67.4228   75.4507   89.1336 C   0  0  0  0  0  0  0  0  0  0  0  0
   67.9346   74.8290   90.2876 C   0  0  0  0  0  0  0  0  0  0  0  0
   68.3392   72.8280   91.5973 O   0  0  0  0  0  0  0  0  0  0  0  0
   66.7100   74.4451   96.8334 C   0  0  0  0  0  0  0  0  0  0  0  0
   67.1579   74.0187   95.4679 C   0  0  0  0  0  0  0  0  0  0  0  0
   66.2088   73.7431   94.4751 C   0  0  0  0  0  0  0  0  0  0  0  0
   66.6152   73.3380   93.2011 C   0  0  0  0  0  0  0  0  0  0  0  0
   67.9754   73.2027   92.8994 C   0  0  0  0  0  0  0  0  0  0  0  0
   68.9291   73.4670   93.8999 C   0  0  0  0  0  0  0  0  0  0  0  0
   68.5228   73.8705   95.1750 C   0  0  0  0  0  0  0  0  0  0  0  0
   69.8001   79.7630   90.1115 C   0  0  0  0  0  0  0  0  0  0  0  0
   69.4555   81.1430   90.2017 O   0  0  0  0  0  0  0  0  0  0  0  0
   70.1579   82.1837   89.5765 C   0  0  0  0  0  0  0  0  0  0  0  0
   71.5026   82.3642   89.9067 C   0  0  0  0  0  0  0  0  0  0  0  0
   72.2458   83.3855   89.3176 C   0  0  0  0  0  0  0  0  0  0  0  0
   71.6566   84.2438   88.3807 C   0  0  0  0  0  0  0  0  0  0  0  0
   72.4243   85.2564   87.8067 O   0  0  0  0  0  0  0  0  0  0  0  0
   70.2974   84.0759   88.0282 C   0  0  0  0  0  0  0  0  0  0  0  0
   69.5586   83.0421   88.6361 C   0  0  0  0  0  0  0  0  0  0  0  0
   73.3239   85.3569   88.0490 H   0  0  0  0  0  0  0  0  0  0  0  0
   69.6304   84.9559   87.0341 C   0  0  0  0  0  0  0  0  0  0  0  0
   68.4417   85.3387   87.2025 O   0  0  0  0  0  0  0  0  0  0  0  0
   70.3161   85.3717   85.8958 O   0  0  0  0  0  0  0  0  0  0  0  0
   71.2006   85.0964   85.7549 H   0  0  0  0  0  0  0  0  0  0  0  0
  1  2  2  0  0  0  0
  2  3  1  0  0  0  0
  3  4  2  0  0  0  0
  4  5  1  0  0  0  0
  5 21  1  0  0  0  0
  5  6  2  0  0  0  0
  6  1  1  0  0  0  0
  7  8  2  0  0  0  0
  8  9  1  0  0  0  0
  9 10  2  0  0  0  0
 10 11  1  0  0  0  0
 11  1  1  0  0  0  0
 11 12  2  0  0  0  0
 12  7  1  0  0  0  0
 13  7  1  0  0  0  0
 14 15  1  0  0  0  0
 15 16  2  0  0  0  0
 16 17  1  0  0  0  0
 17 18  2  0  0  0  0
 18 13  1  0  0  0  0
 18 19  1  0  0  0  0
 19 20  2  0  0  0  0
 20 15  1  0  0  0  0
 21 22  1  0  0  0  0
 22 23  1  0  0  0  0
 23 24  2  0  0  0  0
 24 25  1  0  0  0  0
 25 26  2  0  0  0  0
 26 27  1  0  0  0  0
 26 28  1  0  0  0  0
 27 30  1  0  0  0  0
 28 31  1  0  0  0  0
 28 29  2  0  0  0  0
 29 23  1  0  0  0  0
 31 32  2  0  0  0  0
 31 33  1  0  0  0  0
 33 34  1  0  0  0  0
M  END
>  <Activity>
4.7

>  <minimizedAffinity>
-9.61011

>  <RFScoreVS_v2>
6.00622798467

$$$$
HIPS6994
 OpenBabel05252300073D

 34 37  0  0  0  0  0  0  0  0999 V2000
   68.8147   80.0800   90.2495 C   0  0  0  0  0  0  0  0  0  0  0  0
   70.1868   79.8044   90.1216 C   0  0  0  0  0  0  0  0  0  0  0  0
   70.6605   78.4965   90.2496 C   0  0  0  0  0  0  0  0  0  0  0  0
   69.7719   77.4490   90.5015 C   0  0  0  0  0  0  0  0  0  0  0  0
   68.4008   77.7064   90.6456 C   0  0  0  0  0  0  0  0  0  0  0  0
   67.9274   79.0218   90.5155 C   0  0  0  0  0  0  0  0  0  0  0  0
   68.3456   83.6070   88.9260 C   0  0  0  0  0  0  0  0  0  0  0  0
   67.3771   84.1012   89.8044 C   0  0  0  0  0  0  0  0  0  0  0  0
   66.8605   83.2804   90.8088 C   0  0  0  0  0  0  0  0  0  0  0  0
   67.3170   81.9668   90.9468 C   0  0  0  0  0  0  0  0  0  0  0  0
   68.3049   81.4624   90.0818 C   0  0  0  0  0  0  0  0  0  0  0  0
   68.8133   82.2942   89.0670 C   0  0  0  0  0  0  0  0  0  0  0  0
   68.8460   84.4269   87.9122 O   0  0  0  0  0  0  0  0  0  0  0  0
   73.4493   87.7815   88.4054 C   0  0  0  0  0  0  0  0  0  0  0  0
   72.2556   86.8844   88.2737 C   0  0  0  0  0  0  0  0  0  0  0  0
   70.9752   87.3787   88.5539 C   0  0  0  0  0  0  0  0  0  0  0  0
   69.8565   86.5490   88.4413 C   0  0  0  0  0  0  0  0  0  0  0  0
   69.9998   85.2138   88.0465 C   0  0  0  0  0  0  0  0  0  0  0  0
   71.2870   84.7129   87.7772 C   0  0  0  0  0  0  0  0  0  0  0  0
   72.4065   85.5421   87.8914 C   0  0  0  0  0  0  0  0  0  0  0  0
   67.4320   76.5819   90.8704 C   0  0  0  0  0  0  0  0  0  0  0  0
   66.8071   76.7505   92.1401 O   0  0  0  0  0  0  0  0  0  0  0  0
   66.9253   75.8548   93.2131 C   0  0  0  0  0  0  0  0  0  0  0  0
   65.8425   75.7226   94.0850 C   0  0  0  0  0  0  0  0  0  0  0  0
   65.9086   74.8495   95.1693 C   0  0  0  0  0  0  0  0  0  0  0  0
   67.0607   74.0869   95.3985 C   0  0  0  0  0  0  0  0  0  0  0  0
   67.0987   73.2209   96.4907 O   0  0  0  0  0  0  0  0  0  0  0  0
   68.1672   74.2017   94.5253 C   0  0  0  0  0  0  0  0  0  0  0  0
   68.0865   75.0920   93.4368 C   0  0  0  0  0  0  0  0  0  0  0  0
   66.3588   73.1542   97.0617 H   0  0  0  0  0  0  0  0  0  0  0  0
   69.4077   73.4082   94.7225 C   0  0  0  0  0  0  0  0  0  0  0  0
   69.5948   72.7511   95.7814 O   0  0  0  0  0  0  0  0  0  0  0  0
   70.3860   73.3805   93.7320 O   0  0  0  0  0  0  0  0  0  0  0  0
   70.2630   73.8634   92.9385 H   0  0  0  0  0  0  0  0  0  0  0  0
  1  2  2  0  0  0  0
  2  3  1  0  0  0  0
  3  4  2  0  0  0  0
  4  5  1  0  0  0  0
  5 21  1  0  0  0  0
  5  6  2  0  0  0  0
  6  1  1  0  0  0  0
  7  8  2  0  0  0  0
  8  9  1  0  0  0  0
  9 10  2  0  0  0  0
 10 11  1  0  0  0  0
 11  1  1  0  0  0  0
 11 12  2  0  0  0  0
 12  7  1  0  0  0  0
 13  7  1  0  0  0  0
 14 15  1  0  0  0  0
 15 16  2  0  0  0  0
 16 17  1  0  0  0  0
 17 18  2  0  0  0  0
 18 13  1  0  0  0  0
 18 19  1  0  0  0  0
 19 20  2  0  0  0  0
 20 15  1  0  0  0  0
 21 22  1  0  0  0  0
 22 23  1  0  0  0  0
 23 24  2  0  0  0  0
 24 25  1  0  0  0  0
 25 26  2  0  0  0  0
 26 27  1  0  0  0  0
 26 28  1  0  0  0  0
 27 30  1  0  0  0  0
 28 31  1  0  0  0  0
 28 29  2  0  0  0  0
 29 23  1  0  0  0  0
 31 32  2  0  0  0  0
 31 33  1  0  0  0  0
 33 34  1  0  0  0  0
M  END
>  <Activity>
4.7

>  <minimizedAffinity>
-9.36366

>  <RFScoreVS_v2>
6.01354512658

$$$$
HIPS6994
 OpenBabel05252300073D

 34 37  0  0  0  0  0  0  0  0999 V2000
   68.6015   78.5873   89.2084 C   0  0  0  0  0  0  0  0  0  0  0  0
   67.8374   77.7092   88.4209 C   0  0  0  0  0  0  0  0  0  0  0  0
   66.8116   78.1983   87.6086 C   0  0  0  0  0  0  0  0  0  0  0  0
   66.5395   79.5674   87.5685 C   0  0  0  0  0  0  0  0  0  0  0  0
   67.2824   80.4576   88.3575 C   0  0  0  0  0  0  0  0  0  0  0  0
   68.3135   79.9634   89.1722 C   0  0  0  0  0  0  0  0  0  0  0  0
   70.6359   76.3735   91.5260 C   0  0  0  0  0  0  0  0  0  0  0  0
   71.7974   77.1357   91.6810 C   0  0  0  0  0  0  0  0  0  0  0  0
   71.9277   78.3547   91.0131 C   0  0  0  0  0  0  0  0  0  0  0  0
   70.8943   78.8226   90.1967 C   0  0  0  0  0  0  0  0  0  0  0  0
   69.7123   78.0750   90.0467 C   0  0  0  0  0  0  0  0  0  0  0  0
   69.5936   76.8434   90.7169 C   0  0  0  0  0  0  0  0  0  0  0  0
   70.5183   75.1465   92.1827 O   0  0  0  0  0  0  0  0  0  0  0  0
   66.3084   73.8888   95.8408 C   0  0  0  0  0  0  0  0  0  0  0  0
   67.4036   74.2042   94.8671 C   0  0  0  0  0  0  0  0  0  0  0  0
   68.2613   75.2858   95.1059 C   0  0  0  0  0  0  0  0  0  0  0  0
   69.2810   75.5929   94.2012 C   0  0  0  0  0  0  0  0  0  0  0  0
   69.4597   74.8242   93.0451 C   0  0  0  0  0  0  0  0  0  0  0  0
   68.5905   73.7453   92.7981 C   0  0  0  0  0  0  0  0  0  0  0  0
   67.5693   73.4389   93.7020 C   0  0  0  0  0  0  0  0  0  0  0  0
   67.0286   81.9356   88.2867 C   0  0  0  0  0  0  0  0  0  0  0  0
   67.7995   82.4915   87.2246 O   0  0  0  0  0  0  0  0  0  0  0  0
   68.9017   83.3414   87.3984 C   0  0  0  0  0  0  0  0  0  0  0  0
   68.9229   84.5473   86.6945 C   0  0  0  0  0  0  0  0  0  0  0  0
   69.9960   85.4266   86.8278 C   0  0  0  0  0  0  0  0  0  0  0  0
   71.0678   85.1167   87.6744 C   0  0  0  0  0  0  0  0  0  0  0  0
   72.1277   86.0155   87.7890 O   0  0  0  0  0  0  0  0  0  0  0  0
   71.0645   83.9031   88.4003 C   0  0  0  0  0  0  0  0  0  0  0  0
   69.9750   83.0229   88.2509 C   0  0  0  0  0  0  0  0  0  0  0  0
   72.1176   86.8163   87.3026 H   0  0  0  0  0  0  0  0  0  0  0  0
   72.1745   83.5340   89.3163 C   0  0  0  0  0  0  0  0  0  0  0  0
   73.3289   84.0152   89.1619 O   0  0  0  0  0  0  0  0  0  0  0  0
   71.9509   82.6453   90.3647 O   0  0  0  0  0  0  0  0  0  0  0  0
   71.0986   82.2781   90.4940 H   0  0  0  0  0  0  0  0  0  0  0  0
  1  2  2  0  0  0  0
  2  3  1  0  0  0  0
  3  4  2  0  0  0  0
  4  5  1  0  0  0  0
  5 21  1  0  0  0  0
  5  6  2  0  0  0  0
  6  1  1  0  0  0  0
  7  8  2  0  0  0  0
  8  9  1  0  0  0  0
  9 10  2  0  0  0  0
 10 11  1  0  0  0  0
 11  1  1  0  0  0  0
 11 12  2  0  0  0  0
 12  7  1  0  0  0  0
 13  7  1  0  0  0  0
 14 15  1  0  0  0  0
 15 16  2  0  0  0  0
 16 17  1  0  0  0  0
 17 18  2  0  0  0  0
 18 13  1  0  0  0  0
 18 19  1  0  0  0  0
 19 20  2  0  0  0  0
 20 15  1  0  0  0  0
 21 22  1  0  0  0  0
 22 23  1  0  0  0  0
 23 24  2  0  0  0  0
 24 25  1  0  0  0  0
 25 26  2  0  0  0  0
 26 27  1  0  0  0  0
 26 28  1  0  0  0  0
 27 30  1  0  0  0  0
 28 31  1  0  0  0  0
 28 29  2  0  0  0  0
 29 23  1  0  0  0  0
 31 32  2  0  0  0  0
 31 33  1  0  0  0  0
 33 34  1  0  0  0  0
M  END
>  <Activity>
4.7

>  <minimizedAffinity>
-9.36335

>  <RFScoreVS_v2>
6.00176540141

$$$$
HIPS6994
 OpenBabel05252300073D

 34 37  0  0  0  0  0  0  0  0999 V2000
   69.9392   76.7327   91.9413 C   0  0  0  0  0  0  0  0  0  0  0  0
   71.2784   76.9413   91.5698 C   0  0  0  0  0  0  0  0  0  0  0  0
   71.5982   77.8474   90.5558 C   0  0  0  0  0  0  0  0  0  0  0  0
   70.5879   78.5584   89.9048 C   0  0  0  0  0  0  0  0  0  0  0  0
   69.2448   78.3537   90.2525 C   0  0  0  0  0  0  0  0  0  0  0  0
   68.9263   77.4432   91.2726 C   0  0  0  0  0  0  0  0  0  0  0  0
   69.1051   73.5415   93.8206 C   0  0  0  0  0  0  0  0  0  0  0  0
   68.8970   74.0325   95.1127 C   0  0  0  0  0  0  0  0  0  0  0  0
   69.0521   75.3948   95.3760 C   0  0  0  0  0  0  0  0  0  0  0  0
   69.4048   76.2735   94.3481 C   0  0  0  0  0  0  0  0  0  0  0  0
   69.5989   75.7959   93.0394 C   0  0  0  0  0  0  0  0  0  0  0  0
   69.4489   74.4200   92.7852 C   0  0  0  0  0  0  0  0  0  0  0  0
   68.9657   72.1752   93.5667 O   0  0  0  0  0  0  0  0  0  0  0  0
   73.3703   68.9585   91.8525 C   0  0  0  0  0  0  0  0  0  0  0  0
   72.2021   69.7906   92.2884 C   0  0  0  0  0  0  0  0  0  0  0  0
   72.3293   70.6551   93.3833 C   0  0  0  0  0  0  0  0  0  0  0  0
   71.2446   71.4298   93.8024 C   0  0  0  0  0  0  0  0  0  0  0  0
   70.0171   71.3532   93.1340 C   0  0  0  0  0  0  0  0  0  0  0  0
   69.8848   70.4755   92.0419 C   0  0  0  0  0  0  0  0  0  0  0  0
   70.9691   69.6991   91.6235 C   0  0  0  0  0  0  0  0  0  0  0  0
   68.1551   79.1467   89.5910 C   0  0  0  0  0  0  0  0  0  0  0  0
   67.0663   78.2795   89.2850 O   0  0  0  0  0  0  0  0  0  0  0  0
   67.0877   77.2924   88.2886 C   0  0  0  0  0  0  0  0  0  0  0  0
   67.3411   77.6874   86.9734 C   0  0  0  0  0  0  0  0  0  0  0  0
   67.3699   76.7477   85.9446 C   0  0  0  0  0  0  0  0  0  0  0  0
   67.1503   75.3911   86.2147 C   0  0  0  0  0  0  0  0  0  0  0  0
   67.1857   74.4729   85.1660 O   0  0  0  0  0  0  0  0  0  0  0  0
   66.8966   74.9685   87.5403 C   0  0  0  0  0  0  0  0  0  0  0  0
   66.8660   75.9312   88.5680 C   0  0  0  0  0  0  0  0  0  0  0  0
   67.3549   74.7659   84.2922 H   0  0  0  0  0  0  0  0  0  0  0  0
   66.6655   73.5402   87.8775 C   0  0  0  0  0  0  0  0  0  0  0  0
   66.1714   72.7468   87.0322 O   0  0  0  0  0  0  0  0  0  0  0  0
   66.9949   73.0571   89.1412 O   0  0  0  0  0  0  0  0  0  0  0  0
   67.3632   73.6333   89.7817 H   0  0  0  0  0  0  0  0  0  0  0  0
  1  2  2  0  0  0  0
  2  3  1  0  0  0  0
  3  4  2  0  0  0  0
  4  5  1  0  0  0  0
  5 21  1  0  0  0  0
  5  6  2  0  0  0  0
  6  1  1  0  0  0  0
  7  8  2  0  0  0  0
  8  9  1  0  0  0  0
  9 10  2  0  0  0  0
 10 11  1  0  0  0  0
 11  1  1  0  0  0  0
 11 12  2  0  0  0  0
 12  7  1  0  0  0  0
 13  7  1  0  0  0  0
 14 15  1  0  0  0  0
 15 16  2  0  0  0  0
 16 17  1  0  0  0  0
 17 18  2  0  0  0  0
 18 13  1  0  0  0  0
 18 19  1  0  0  0  0
 19 20  2  0  0  0  0
 20 15  1  0  0  0  0
 21 22  1  0  0  0  0
 22 23  1  0  0  0  0
 23 24  2  0  0  0  0
 24 25  1  0  0  0  0
 25 26  2  0  0  0  0
 26 27  1  0  0  0  0
 26 28  1  0  0  0  0
 27 30  1  0  0  0  0
 28 31  1  0  0  0  0
 28 29  2  0  0  0  0
 29 23  1  0  0  0  0
 31 32  2  0  0  0  0
 31 33  1  0  0  0  0
 33 34  1  0  0  0  0
M  END
>  <Activity>
4.7

>  <minimizedAffinity>
-9.34744

>  <RFScoreVS_v2>
5.97975008002

$$$$
HIPS6994
 OpenBabel05252300073D

 34 37  0  0  0  0  0  0  0  0999 V2000
   69.3353   80.7120   89.9008 C   0  0  0  0  0  0  0  0  0  0  0  0
   70.7132   80.5974   90.1523 C   0  0  0  0  0  0  0  0  0  0  0  0
   71.3116   79.3391   90.2529 C   0  0  0  0  0  0  0  0  0  0  0  0
   70.5446   78.1822   90.0993 C   0  0  0  0  0  0  0  0  0  0  0  0
   69.1657   78.2765   89.8612 C   0  0  0  0  0  0  0  0  0  0  0  0
   68.5672   79.5424   89.7596 C   0  0  0  0  0  0  0  0  0  0  0  0
   68.6038   84.2405   88.7066 C   0  0  0  0  0  0  0  0  0  0  0  0
   67.5390   84.5950   89.5399 C   0  0  0  0  0  0  0  0  0  0  0  0
   67.0448   83.6791   90.4705 C   0  0  0  0  0  0  0  0  0  0  0  0
   67.6190   82.4096   90.5801 C   0  0  0  0  0  0  0  0  0  0  0  0
   68.7032   82.0462   89.7610 C   0  0  0  0  0  0  0  0  0  0  0  0
   69.1889   82.9729   88.8200 C   0  0  0  0  0  0  0  0  0  0  0  0
   69.0826   85.1546   87.7655 O   0  0  0  0  0  0  0  0  0  0  0  0
   73.5720   88.5496   88.7683 C   0  0  0  0  0  0  0  0  0  0  0  0
   72.3814   87.6763   88.5099 C   0  0  0  0  0  0  0  0  0  0  0  0
   72.5539   86.4117   87.9326 C   0  0  0  0  0  0  0  0  0  0  0  0
   71.4502   85.5926   87.6809 C   0  0  0  0  0  0  0  0  0  0  0  0
   70.1580   86.0239   88.0027 C   0  0  0  0  0  0  0  0  0  0  0  0
   69.9826   87.2993   88.5709 C   0  0  0  0  0  0  0  0  0  0  0  0
   71.0863   88.1197   88.8212 C   0  0  0  0  0  0  0  0  0  0  0  0
   68.3410   77.0402   89.6486 C   0  0  0  0  0  0  0  0  0  0  0  0
   67.6558   76.7224   90.8572 O   0  0  0  0  0  0  0  0  0  0  0  0
   67.9857   75.6546   91.7048 C   0  0  0  0  0  0  0  0  0  0  0  0
   69.1552   74.9388   91.4403 C   0  0  0  0  0  0  0  0  0  0  0  0
   69.5276   73.8665   92.2489 C   0  0  0  0  0  0  0  0  0  0  0  0
   68.7370   73.4933   93.3430 C   0  0  0  0  0  0  0  0  0  0  0  0
   69.1344   72.4169   94.1354 O   0  0  0  0  0  0  0  0  0  0  0  0
   67.5510   74.2074   93.6319 C   0  0  0  0  0  0  0  0  0  0  0  0
   67.1860   75.2856   92.8022 C   0  0  0  0  0  0  0  0  0  0  0  0
   69.9224   71.9520   93.9332 H   0  0  0  0  0  0  0  0  0  0  0  0
   66.6841   73.8543   94.7856 C   0  0  0  0  0  0  0  0  0  0  0  0
   65.4373   74.0305   94.7367 O   0  0  0  0  0  0  0  0  0  0  0  0
   67.2430   73.3199   95.9436 O   0  0  0  0  0  0  0  0  0  0  0  0
   68.1683   73.1823   95.9969 H   0  0  0  0  0  0  0  0  0  0  0  0
  1  2  2  0  0  0  0
  2  3  1  0  0  0  0
  3  4  2  0  0  0  0
  4  5  1  0  0  0  0
  5 21  1  0  0  0  0
  5  6  2  0  0  0  0
  6  1  1  0  0  0  0
  7  8  2  0  0  0  0
  8  9  1  0  0  0  0
  9 10  2  0  0  0  0
 10 11  1  0  0  0  0
 11  1  1  0  0  0  0
 11 12  2  0  0  0  0
 12  7  1  0  0  0  0
 13  7  1  0  0  0  0
 14 15  1  0  0  0  0
 15 16  2  0  0  0  0
 16 17  1  0  0  0  0
 17 18  2  0  0  0  0
 18 13  1  0  0  0  0
 18 19  1  0  0  0  0
 19 20  2  0  0  0  0
 20 15  1  0  0  0  0
 21 22  1  0  0  0  0
 22 23  1  0  0  0  0
 23 24  2  0  0  0  0
 24 25  1  0  0  0  0
 25 26  2  0  0  0  0
 26 27  1  0  0  0  0
 26 28  1  0  0  0  0
 27 30  1  0  0  0  0
 28 31  1  0  0  0  0
 28 29  2  0  0  0  0
 29 23  1  0  0  0  0
 31 32  2  0  0  0  0
 31 33  1  0  0  0  0
 33 34  1  0  0  0  0
M  END
>  <Activity>
4.7

>  <minimizedAffinity>
-9.21634

>  <RFScoreVS_v2>
5.99708819749

$$$$
HIPS6994
 OpenBabel05252300073D

 34 37  0  0  0  0  0  0  0  0999 V2000
   67.2734   78.5561   87.4709 C   0  0  0  0  0  0  0  0  0  0  0  0
   67.6464   78.2851   86.1434 C   0  0  0  0  0  0  0  0  0  0  0  0
   67.6202   76.9769   85.6542 C   0  0  0  0  0  0  0  0  0  0  0  0
   67.2176   75.9258   86.4809 C   0  0  0  0  0  0  0  0  0  0  0  0
   66.8547   76.1749   87.8125 C   0  0  0  0  0  0  0  0  0  0  0  0
   66.8810   77.4908   88.3010 C   0  0  0  0  0  0  0  0  0  0  0  0
   67.6809   82.3260   87.6515 C   0  0  0  0  0  0  0  0  0  0  0  0
   67.3142   82.5767   88.9769 C   0  0  0  0  0  0  0  0  0  0  0  0
   66.9118   81.5245   89.8017 C   0  0  0  0  0  0  0  0  0  0  0  0
   66.8845   80.2168   89.3094 C   0  0  0  0  0  0  0  0  0  0  0  0
   67.2689   79.9477   87.9834 C   0  0  0  0  0  0  0  0  0  0  0  0
   67.6647   81.0157   87.1570 C   0  0  0  0  0  0  0  0  0  0  0  0
   68.0658   83.3847   86.8260 O   0  0  0  0  0  0  0  0  0  0  0  0
   72.6430   86.6162   87.9631 C   0  0  0  0  0  0  0  0  0  0  0  0
   71.4304   85.7871   87.6646 C   0  0  0  0  0  0  0  0  0  0  0  0
   71.5732   84.4340   87.3313 C   0  0  0  0  0  0  0  0  0  0  0  0
   70.4499   83.6540   87.0442 C   0  0  0  0  0  0  0  0  0  0  0  0
   69.1675   84.2134   87.0864 C   0  0  0  0  0  0  0  0  0  0  0  0
   69.0241   85.5757   87.4087 C   0  0  0  0  0  0  0  0  0  0  0  0
   70.1476   86.3568   87.6942 C   0  0  0  0  0  0  0  0  0  0  0  0
   66.3763   75.0589   88.6953 C   0  0  0  0  0  0  0  0  0  0  0  0
   67.4320   74.1179   88.8719 O   0  0  0  0  0  0  0  0  0  0  0  0
   68.2007   73.9902   90.0383 C   0  0  0  0  0  0  0  0  0  0  0  0
   68.4068   72.7099   90.5563 C   0  0  0  0  0  0  0  0  0  0  0  0
   69.1596   72.5272   91.7148 C   0  0  0  0  0  0  0  0  0  0  0  0
   69.7258   73.6250   92.3750 C   0  0  0  0  0  0  0  0  0  0  0  0
   70.4750   73.4125   93.5317 O   0  0  0  0  0  0  0  0  0  0  0  0
   69.5336   74.9300   91.8651 C   0  0  0  0  0  0  0  0  0  0  0  0
   68.7662   75.0983   90.6960 C   0  0  0  0  0  0  0  0  0  0  0  0
   70.5948   72.5427   93.8591 H   0  0  0  0  0  0  0  0  0  0  0  0
   70.1205   76.1245   92.5255 C   0  0  0  0  0  0  0  0  0  0  0  0
   70.7112   77.0115   91.8531 O   0  0  0  0  0  0  0  0  0  0  0  0
   70.0240   76.2795   93.9059 O   0  0  0  0  0  0  0  0  0  0  0  0
   69.5881   75.6294   94.4210 H   0  0  0  0  0  0  0  0  0  0  0  0
  1  2  2  0  0  0  0
  2  3  1  0  0  0  0
  3  4  2  0  0  0  0
  4  5  1  0  0  0  0
  5 21  1  0  0  0  0
  5  6  2  0  0  0  0
  6  1  1  0  0  0  0
  7  8  2  0  0  0  0
  8  9  1  0  0  0  0
  9 10  2  0  0  0  0
 10 11  1  0  0  0  0
 11  1  1  0  0  0  0
 11 12  2  0  0  0  0
 12  7  1  0  0  0  0
 13  7  1  0  0  0  0
 14 15  1  0  0  0  0
 15 16  2  0  0  0  0
 16 17  1  0  0  0  0
 17 18  2  0  0  0  0
 18 13  1  0  0  0  0
 18 19  1  0  0  0  0
 19 20  2  0  0  0  0
 20 15  1  0  0  0  0
 21 22  1  0  0  0  0
 22 23  1  0  0  0  0
 23 24  2  0  0  0  0
 24 25  1  0  0  0  0
 25 26  2  0  0  0  0
 26 27  1  0  0  0  0
 26 28  1  0  0  0  0
 27 30  1  0  0  0  0
 28 31  1  0  0  0  0
 28 29  2  0  0  0  0
 29 23  1  0  0  0  0
 31 32  2  0  0  0  0
 31 33  1  0  0  0  0
 33 34  1  0  0  0  0
M  END
>  <Activity>
4.7

>  <minimizedAffinity>
-9.21281

>  <RFScoreVS_v2>
6.00098870242

$$$$
HIPS6994
 OpenBabel05252300073D

 34 37  0  0  0  0  0  0  0  0999 V2000
   70.2118   76.7492   91.8941 C   0  0  0  0  0  0  0  0  0  0  0  0
   71.5671   76.7089   91.5246 C   0  0  0  0  0  0  0  0  0  0  0  0
   72.0645   77.5914   90.5628 C   0  0  0  0  0  0  0  0  0  0  0  0
   71.2182   78.5262   89.9626 C   0  0  0  0  0  0  0  0  0  0  0  0
   69.8599   78.5725   90.3086 C   0  0  0  0  0  0  0  0  0  0  0  0
   69.3630   77.6850   91.2764 C   0  0  0  0  0  0  0  0  0  0  0  0
   69.0327   73.6033   93.6617 C   0  0  0  0  0  0  0  0  0  0  0  0
   68.6402   74.1177   94.9008 C   0  0  0  0  0  0  0  0  0  0  0  0
   68.7822   75.4805   95.1685 C   0  0  0  0  0  0  0  0  0  0  0  0
   69.3065   76.3367   94.1962 C   0  0  0  0  0  0  0  0  0  0  0  0
   69.6879   75.8357   92.9383 C   0  0  0  0  0  0  0  0  0  0  0  0
   69.5492   74.4593   92.6807 C   0  0  0  0  0  0  0  0  0  0  0  0
   68.9045   72.2363   93.4057 O   0  0  0  0  0  0  0  0  0  0  0  0
   73.1052   68.7843   91.6381 C   0  0  0  0  0  0  0  0  0  0  0  0
   72.0182   69.6998   92.1148 C   0  0  0  0  0  0  0  0  0  0  0  0
   70.7769   69.7089   91.4655 C   0  0  0  0  0  0  0  0  0  0  0  0
   69.7592   70.5635   91.8972 C   0  0  0  0  0  0  0  0  0  0  0  0
   69.9656   71.4211   92.9840 C   0  0  0  0  0  0  0  0  0  0  0  0
   71.2165   71.4218   93.6288 C   0  0  0  0  0  0  0  0  0  0  0  0
   72.2354   70.5683   93.1961 C   0  0  0  0  0  0  0  0  0  0  0  0
   68.9522   79.6038   89.7035 C   0  0  0  0  0  0  0  0  0  0  0  0
   69.2108   80.8672   90.3103 O   0  0  0  0  0  0  0  0  0  0  0  0
   69.9782   81.8886   89.7314 C   0  0  0  0  0  0  0  0  0  0  0  0
   71.2878   82.0668   90.1822 C   0  0  0  0  0  0  0  0  0  0  0  0
   72.0923   83.0693   89.6435 C   0  0  0  0  0  0  0  0  0  0  0  0
   71.6012   83.9107   88.6373 C   0  0  0  0  0  0  0  0  0  0  0  0
   72.4286   84.9047   88.1161 O   0  0  0  0  0  0  0  0  0  0  0  0
   70.2794   83.7448   88.1626 C   0  0  0  0  0  0  0  0  0  0  0  0
   69.4776   82.7302   88.7207 C   0  0  0  0  0  0  0  0  0  0  0  0
   73.3025   85.0041   88.4394 H   0  0  0  0  0  0  0  0  0  0  0  0
   69.7166   84.6072   87.0917 C   0  0  0  0  0  0  0  0  0  0  0  0
   70.4245   84.9724   86.1152 O   0  0  0  0  0  0  0  0  0  0  0  0
   68.3899   85.0253   87.1544 O   0  0  0  0  0  0  0  0  0  0  0  0
   67.8495   84.7630   87.8735 H   0  0  0  0  0  0  0  0  0  0  0  0
  1  2  2  0  0  0  0
  2  3  1  0  0  0  0
  3  4  2  0  0  0  0
  4  5  1  0  0  0  0
  5 21  1  0  0  0  0
  5  6  2  0  0  0  0
  6  1  1  0  0  0  0
  7  8  2  0  0  0  0
  8  9  1  0  0  0  0
  9 10  2  0  0  0  0
 10 11  1  0  0  0  0
 11  1  1  0  0  0  0
 11 12  2  0  0  0  0
 12  7  1  0  0  0  0
 13  7  1  0  0  0  0
 14 15  1  0  0  0  0
 15 16  2  0  0  0  0
 16 17  1  0  0  0  0
 17 18  2  0  0  0  0
 18 13  1  0  0  0  0
 18 19  1  0  0  0  0
 19 20  2  0  0  0  0
 20 15  1  0  0  0  0
 21 22  1  0  0  0  0
 22 23  1  0  0  0  0
 23 24  2  0  0  0  0
 24 25  1  0  0  0  0
 25 26  2  0  0  0  0
 26 27  1  0  0  0  0
 26 28  1  0  0  0  0
 27 30  1  0  0  0  0
 28 31  1  0  0  0  0
 28 29  2  0  0  0  0
 29 23  1  0  0  0  0
 31 32  2  0  0  0  0
 31 33  1  0  0  0  0
 33 34  1  0  0  0  0
M  END
>  <Activity>
4.7

>  <minimizedAffinity>
-9.21114

>  <RFScoreVS_v2>
5.9727240023

$$$$
HIPS6994
 OpenBabel05252300073D

 34 37  0  0  0  0  0  0  0  0999 V2000
   66.8512   76.1599   93.9245 C   0  0  0  0  0  0  0  0  0  0  0  0
   66.0417   75.6023   94.9289 C   0  0  0  0  0  0  0  0  0  0  0  0
   66.3993   74.3970   95.5377 C   0  0  0  0  0  0  0  0  0  0  0  0
   67.5692   73.7370   95.1557 C   0  0  0  0  0  0  0  0  0  0  0  0
   68.3827   74.2711   94.1458 C   0  0  0  0  0  0  0  0  0  0  0  0
   68.0214   75.4832   93.5364 C   0  0  0  0  0  0  0  0  0  0  0  0
   66.7995   79.1149   91.5420 C   0  0  0  0  0  0  0  0  0  0  0  0
   65.8477   79.9386   92.1500 C   0  0  0  0  0  0  0  0  0  0  0  0
   65.2069   79.5219   93.3183 C   0  0  0  0  0  0  0  0  0  0  0  0
   65.5220   78.2862   93.8901 C   0  0  0  0  0  0  0  0  0  0  0  0
   66.4914   77.4556   93.2994 C   0  0  0  0  0  0  0  0  0  0  0  0
   67.1256   77.8801   92.1171 C   0  0  0  0  0  0  0  0  0  0  0  0
   67.4245   79.5292   90.3638 O   0  0  0  0  0  0  0  0  0  0  0  0
   72.2950   82.5155   90.1464 C   0  0  0  0  0  0  0  0  0  0  0  0
   71.0297   81.7139   90.2056 C   0  0  0  0  0  0  0  0  0  0  0  0
   69.7950   82.3643   90.3278 C   0  0  0  0  0  0  0  0  0  0  0  0
   68.6102   81.6263   90.3911 C   0  0  0  0  0  0  0  0  0  0  0  0
   68.6406   80.2281   90.3327 C   0  0  0  0  0  0  0  0  0  0  0  0
   69.8814   79.5734   90.2228 C   0  0  0  0  0  0  0  0  0  0  0  0
   71.0671   80.3112   90.1612 C   0  0  0  0  0  0  0  0  0  0  0  0
   69.6658   73.5936   93.7604 C   0  0  0  0  0  0  0  0  0  0  0  0
   69.9991   73.9516   92.4218 O   0  0  0  0  0  0  0  0  0  0  0  0
   69.1113   73.8999   91.3370 C   0  0  0  0  0  0  0  0  0  0  0  0
   68.6426   72.6502   90.9266 C   0  0  0  0  0  0  0  0  0  0  0  0
   67.7618   72.5419   89.8520 C   0  0  0  0  0  0  0  0  0  0  0  0
   67.3287   73.6859   89.1699 C   0  0  0  0  0  0  0  0  0  0  0  0
   66.4467   73.5478   88.0988 O   0  0  0  0  0  0  0  0  0  0  0  0
   67.7872   74.9619   89.5718 C   0  0  0  0  0  0  0  0  0  0  0  0
   68.6809   75.0541   90.6567 C   0  0  0  0  0  0  0  0  0  0  0  0
   66.1504   72.6966   87.8426 H   0  0  0  0  0  0  0  0  0  0  0  0
   67.3502   76.2047   88.8848 C   0  0  0  0  0  0  0  0  0  0  0  0
   66.1348   76.4045   88.6188 O   0  0  0  0  0  0  0  0  0  0  0  0
   68.2855   77.1710   88.5239 O   0  0  0  0  0  0  0  0  0  0  0  0
   69.1934   77.0385   88.7142 H   0  0  0  0  0  0  0  0  0  0  0  0
  1  2  2  0  0  0  0
  2  3  1  0  0  0  0
  3  4  2  0  0  0  0
  4  5  1  0  0  0  0
  5 21  1  0  0  0  0
  5  6  2  0  0  0  0
  6  1  1  0  0  0  0
  7  8  2  0  0  0  0
  8  9  1  0  0  0  0
  9 10  2  0  0  0  0
 10 11  1  0  0  0  0
 11  1  1  0  0  0  0
 11 12  2  0  0  0  0
 12  7  1  0  0  0  0
 13  7  1  0  0  0  0
 14 15  1  0  0  0  0
 15 16  2  0  0  0  0
 16 17  1  0  0  0  0
 17 18  2  0  0  0  0
 18 13  1  0  0  0  0
 18 19  1  0  0  0  0
 19 20  2  0  0  0  0
 20 15  1  0  0  0  0
 21 22  1  0  0  0  0
 22 23  1  0  0  0  0
 23 24  2  0  0  0  0
 24 25  1  0  0  0  0
 25 26  2  0  0  0  0
 26 27  1  0  0  0  0
 26 28  1  0  0  0  0
 27 30  1  0  0  0  0
 28 31  1  0  0  0  0
 28 29  2  0  0  0  0
 29 23  1  0  0  0  0
 31 32  2  0  0  0  0
 31 33  1  0  0  0  0
 33 34  1  0  0  0  0
M  END
>  <Activity>
4.7

>  <minimizedAffinity>
-9.15539

>  <RFScoreVS_v2>
6.00832835538

$$$$
HIPS6994
 OpenBabel05252300073D

 34 37  0  0  0  0  0  0  0  0999 V2000
   68.4436   78.4723   89.1205 C   0  0  0  0  0  0  0  0  0  0  0  0
   67.8437   77.6938   88.1160 C   0  0  0  0  0  0  0  0  0  0  0  0
   66.9846   78.2812   87.1843 C   0  0  0  0  0  0  0  0  0  0  0  0
   66.7179   79.6508   87.2405 C   0  0  0  0  0  0  0  0  0  0  0  0
   67.2967   80.4416   88.2439 C   0  0  0  0  0  0  0  0  0  0  0  0
   68.1606   79.8486   89.1783 C   0  0  0  0  0  0  0  0  0  0  0  0
   69.8130   76.3327   91.9416 C   0  0  0  0  0  0  0  0  0  0  0  0
   71.1505   76.7383   91.9668 C   0  0  0  0  0  0  0  0  0  0  0  0
   71.6104   77.6871   91.0517 C   0  0  0  0  0  0  0  0  0  0  0  0
   70.7343   78.2427   90.1153 C   0  0  0  0  0  0  0  0  0  0  0  0
   69.3816   77.8577   90.0910 C   0  0  0  0  0  0  0  0  0  0  0  0
   68.9291   76.8943   91.0114 C   0  0  0  0  0  0  0  0  0  0  0  0
   69.3625   75.3703   92.8479 O   0  0  0  0  0  0  0  0  0  0  0  0
   69.8596   69.7433   91.9670 C   0  0  0  0  0  0  0  0  0  0  0  0
   69.7405   71.2165   92.2169 C   0  0  0  0  0  0  0  0  0  0  0  0
   69.2620   72.0606   91.2065 C   0  0  0  0  0  0  0  0  0  0  0  0
   69.1539   73.4362   91.4265 C   0  0  0  0  0  0  0  0  0  0  0  0
   69.5212   73.9892   92.6588 C   0  0  0  0  0  0  0  0  0  0  0  0
   70.0140   73.1436   93.6701 C   0  0  0  0  0  0  0  0  0  0  0  0
   70.1240   71.7677   93.4498 C   0  0  0  0  0  0  0  0  0  0  0  0
   67.0533   81.9224   88.2850 C   0  0  0  0  0  0  0  0  0  0  0  0
   67.7789   82.5445   87.2278 O   0  0  0  0  0  0  0  0  0  0  0  0
   68.9134   83.3502   87.4046 C   0  0  0  0  0  0  0  0  0  0  0  0
   68.9837   84.5547   86.7017 C   0  0  0  0  0  0  0  0  0  0  0  0
   70.0903   85.3910   86.8380 C   0  0  0  0  0  0  0  0  0  0  0  0
   71.1472   85.0385   87.6867 C   0  0  0  0  0  0  0  0  0  0  0  0
   72.2415   85.8947   87.8042 O   0  0  0  0  0  0  0  0  0  0  0  0
   71.0945   83.8254   88.4117 C   0  0  0  0  0  0  0  0  0  0  0  0
   69.9715   82.9890   88.2592 C   0  0  0  0  0  0  0  0  0  0  0  0
   72.2640   86.6956   87.3183 H   0  0  0  0  0  0  0  0  0  0  0  0
   72.1870   83.4123   89.3298 C   0  0  0  0  0  0  0  0  0  0  0  0
   73.3886   83.6933   89.0746 O   0  0  0  0  0  0  0  0  0  0  0  0
   71.8942   82.7043   90.4925 O   0  0  0  0  0  0  0  0  0  0  0  0
   71.0061   82.4870   90.6976 H   0  0  0  0  0  0  0  0  0  0  0  0
  1  2  2  0  0  0  0
  2  3  1  0  0  0  0
  3  4  2  0  0  0  0
  4  5  1  0  0  0  0
  5 21  1  0  0  0  0
  5  6  2  0  0  0  0
  6  1  1  0  0  0  0
  7  8  2  0  0  0  0
  8  9  1  0  0  0  0
  9 10  2  0  0  0  0
 10 11  1  0  0  0  0
 11  1  1  0  0  0  0
 11 12  2  0  0  0  0
 12  7  1  0  0  0  0
 13  7  1  0  0  0  0
 14 15  1  0  0  0  0
 15 16  2  0  0  0  0
 16 17  1  0  0  0  0
 17 18  2  0  0  0  0
 18 13  1  0  0  0  0
 18 19  1  0  0  0  0
 19 20  2  0  0  0  0
 20 15  1  0  0  0  0
 21 22  1  0  0  0  0
 22 23  1  0  0  0  0
 23 24  2  0  0  0  0
 24 25  1  0  0  0  0
 25 26  2  0  0  0  0
 26 27  1  0  0  0  0
 26 28  1  0  0  0  0
 27 30  1  0  0  0  0
 28 31  1  0  0  0  0
 28 29  2  0  0  0  0
 29 23  1  0  0  0  0
 31 32  2  0  0  0  0
 31 33  1  0  0  0  0
 33 34  1  0  0  0  0
M  END
>  <Activity>
4.7

>  <minimizedAffinity>
-9.15264

>  <RFScoreVS_v2>
5.99116133453

$$$$
HIPS6994
 OpenBabel05252300073D

 34 37  0  0  0  0  0  0  0  0999 V2000
   67.1118   78.2916   87.9462 C   0  0  0  0  0  0  0  0  0  0  0  0
   67.0208   78.0119   86.5719 C   0  0  0  0  0  0  0  0  0  0  0  0
   66.9932   76.6907   86.1193 C   0  0  0  0  0  0  0  0  0  0  0  0
   67.0510   75.6344   87.0310 C   0  0  0  0  0  0  0  0  0  0  0  0
   67.1556   75.8938   88.4053 C   0  0  0  0  0  0  0  0  0  0  0  0
   67.1821   77.2227   88.8574 C   0  0  0  0  0  0  0  0  0  0  0  0
   67.4845   82.0682   88.0421 C   0  0  0  0  0  0  0  0  0  0  0  0
   67.1565   82.3408   89.3733 C   0  0  0  0  0  0  0  0  0  0  0  0
   66.7911   81.3008   90.2301 C   0  0  0  0  0  0  0  0  0  0  0  0
   66.7624   79.9836   89.7639 C   0  0  0  0  0  0  0  0  0  0  0  0
   67.1084   79.6927   88.4319 C   0  0  0  0  0  0  0  0  0  0  0  0
   67.4669   80.7484   87.5734 C   0  0  0  0  0  0  0  0  0  0  0  0
   67.8323   83.1145   87.1849 O   0  0  0  0  0  0  0  0  0  0  0  0
   72.3929   86.5091   87.7888 C   0  0  0  0  0  0  0  0  0  0  0  0
   71.2102   85.6014   87.6333 C   0  0  0  0  0  0  0  0  0  0  0  0
   69.9156   86.1364   87.6172 C   0  0  0  0  0  0  0  0  0  0  0  0
   68.8058   85.2985   87.4801 C   0  0  0  0  0  0  0  0  0  0  0  0
   68.9723   83.9142   87.3563 C   0  0  0  0  0  0  0  0  0  0  0  0
   70.2717   83.3747   87.3852 C   0  0  0  0  0  0  0  0  0  0  0  0
   71.3821   84.2124   87.5242 C   0  0  0  0  0  0  0  0  0  0  0  0
   67.1717   74.7663   89.3964 C   0  0  0  0  0  0  0  0  0  0  0  0
   68.4829   74.6416   89.9407 O   0  0  0  0  0  0  0  0  0  0  0  0
   68.8269   74.9336   91.2689 C   0  0  0  0  0  0  0  0  0  0  0  0
   68.8091   76.2688   91.6771 C   0  0  0  0  0  0  0  0  0  0  0  0
   69.1459   76.6144   92.9847 C   0  0  0  0  0  0  0  0  0  0  0  0
   69.5025   75.6266   93.9114 C   0  0  0  0  0  0  0  0  0  0  0  0
   69.8340   76.0012   95.2130 O   0  0  0  0  0  0  0  0  0  0  0  0
   69.5225   74.2677   93.5205 C   0  0  0  0  0  0  0  0  0  0  0  0
   69.1842   73.9354   92.1942 C   0  0  0  0  0  0  0  0  0  0  0  0
   69.8168   76.9051   95.4592 H   0  0  0  0  0  0  0  0  0  0  0  0
   69.8863   73.1838   94.4693 C   0  0  0  0  0  0  0  0  0  0  0  0
   69.2136   72.9870   95.5166 O   0  0  0  0  0  0  0  0  0  0  0  0
   70.9831   72.3660   94.2108 O   0  0  0  0  0  0  0  0  0  0  0  0
   71.4942   72.4985   93.4367 H   0  0  0  0  0  0  0  0  0  0  0  0
  1  2  2  0  0  0  0
  2  3  1  0  0  0  0
  3  4  2  0  0  0  0
  4  5  1  0  0  0  0
  5 21  1  0  0  0  0
  5  6  2  0  0  0  0
  6  1  1  0  0  0  0
  7  8  2  0  0  0  0
  8  9  1  0  0  0  0
  9 10  2  0  0  0  0
 10 11  1  0  0  0  0
 11  1  1  0  0  0  0
 11 12  2  0  0  0  0
 12  7  1  0  0  0  0
 13  7  1  0  0  0  0
 14 15  1  0  0  0  0
 15 16  2  0  0  0  0
 16 17  1  0  0  0  0
 17 18  2  0  0  0  0
 18 13  1  0  0  0  0
 18 19  1  0  0  0  0
 19 20  2  0  0  0  0
 20 15  1  0  0  0  0
 21 22  1  0  0  0  0
 22 23  1  0  0  0  0
 23 24  2  0  0  0  0
 24 25  1  0  0  0  0
 25 26  2  0  0  0  0
 26 27  1  0  0  0  0
 26 28  1  0  0  0  0
 27 30  1  0  0  0  0
 28 31  1  0  0  0  0
 28 29  2  0  0  0  0
 29 23  1  0  0  0  0
 31 32  2  0  0  0  0
 31 33  1  0  0  0  0
 33 34  1  0  0  0  0
M  END
>  <Activity>
4.7

>  <minimizedAffinity>
-9.08116

>  <RFScoreVS_v2>
6.03755619582

$$$$
HIPS6991
 OpenBabel05252300073D

 34 37  0  0  0  0  0  0  0  0999 V2000
   68.2206   79.2229   89.5804 C   0  0  0  0  0  0  0  0  0  0  0  0
   67.5154   79.7935   88.5094 C   0  0  0  0  0  0  0  0  0  0  0  0
   66.8575   78.9745   87.5834 C   0  0  0  0  0  0  0  0  0  0  0  0
   66.9052   77.5847   87.7167 C   0  0  0  0  0  0  0  0  0  0  0  0
   67.6238   76.9979   88.7724 C   0  0  0  0  0  0  0  0  0  0  0  0
   68.2992   77.8269   89.6870 C   0  0  0  0  0  0  0  0  0  0  0  0
   67.5965   75.5334   88.9891 C   0  0  0  0  0  0  0  0  0  0  0  0
   66.8704   74.7094   88.1134 C   0  0  0  0  0  0  0  0  0  0  0  0
   66.6894   73.3547   88.4044 C   0  0  0  0  0  0  0  0  0  0  0  0
   67.2326   72.8123   89.5711 C   0  0  0  0  0  0  0  0  0  0  0  0
   67.9934   73.6145   90.4336 C   0  0  0  0  0  0  0  0  0  0  0  0
   68.1959   74.9653   90.1277 C   0  0  0  0  0  0  0  0  0  0  0  0
   68.5573   73.0775   91.5922 O   0  0  0  0  0  0  0  0  0  0  0  0
   68.1078   73.4440   92.8635 C   0  0  0  0  0  0  0  0  0  0  0  0
   69.0201   73.8157   93.8628 C   0  0  0  0  0  0  0  0  0  0  0  0
   68.5576   74.1741   95.1334 C   0  0  0  0  0  0  0  0  0  0  0  0
   67.1836   74.1691   95.4081 C   0  0  0  0  0  0  0  0  0  0  0  0
   66.6042   74.6165   96.9994 Cl  0  0  0  0  0  0  0  0  0  0  0  0
   66.2702   73.8076   94.4076 C   0  0  0  0  0  0  0  0  0  0  0  0
   66.7313   73.4428   93.1400 C   0  0  0  0  0  0  0  0  0  0  0  0
   68.8842   80.0848   90.6166 C   0  0  0  0  0  0  0  0  0  0  0  0
   69.6919   81.0582   89.9768 O   0  0  0  0  0  0  0  0  0  0  0  0
   70.3867   84.1458   88.0695 C   0  0  0  0  0  0  0  0  0  0  0  0
   69.7039   83.0575   88.6316 C   0  0  0  0  0  0  0  0  0  0  0  0
   70.3685   82.1572   89.4717 C   0  0  0  0  0  0  0  0  0  0  0  0
   71.7189   82.3545   89.7781 C   0  0  0  0  0  0  0  0  0  0  0  0
   72.4061   83.4413   89.2425 C   0  0  0  0  0  0  0  0  0  0  0  0
   71.7470   84.3513   88.4016 C   0  0  0  0  0  0  0  0  0  0  0  0
   72.4592   85.4701   87.9588 O   0  0  0  0  0  0  0  0  0  0  0  0
   73.3593   85.5767   88.1964 H   0  0  0  0  0  0  0  0  0  0  0  0
   68.5487   85.5049   87.4307 O   0  0  0  0  0  0  0  0  0  0  0  0
   69.6708   85.0206   87.1193 C   0  0  0  0  0  0  0  0  0  0  0  0
   70.2285   85.3101   85.8759 O   0  0  0  0  0  0  0  0  0  0  0  0
   71.0620   84.9519   85.6413 H   0  0  0  0  0  0  0  0  0  0  0  0
  1  2  2  0  0  0  0
  2  3  1  0  0  0  0
  3  4  2  0  0  0  0
  4  5  1  0  0  0  0
  5  7  1  0  0  0  0
  5  6  2  0  0  0  0
  6  1  1  0  0  0  0
  7  8  2  0  0  0  0
  8  9  1  0  0  0  0
  9 10  2  0  0  0  0
 10 11  1  0  0  0  0
 11 13  1  0  0  0  0
 11 12  2  0  0  0  0
 12  7  1  0  0  0  0
 13 14  1  0  0  0  0
 14 15  2  0  0  0  0
 15 16  1  0  0  0  0
 16 17  2  0  0  0  0
 17 18  1  0  0  0  0
 17 19  1  0  0  0  0
 19 20  2  0  0  0  0
 20 14  1  0  0  0  0
 21  1  1  0  0  0  0
 22 21  1  0  0  0  0
 23 24  2  0  0  0  0
 24 25  1  0  0  0  0
 25 22  1  0  0  0  0
 25 26  2  0  0  0  0
 26 27  1  0  0  0  0
 27 28  2  0  0  0  0
 28 29  1  0  0  0  0
 28 23  1  0  0  0  0
 29 30  1  0  0  0  0
 31 32  2  0  0  0  0
 32 33  1  0  0  0  0
 32 23  1  0  0  0  0
 33 34  1  0  0  0  0
M  END
>  <Activity>
5.0

>  <minimizedAffinity>
-9.43784

>  <RFScoreVS_v2>
5.98431284295

$$$$
HIPS6991
 OpenBabel05252300073D

 34 37  0  0  0  0  0  0  0  0999 V2000
   66.9286   75.7092   87.2599 C   0  0  0  0  0  0  0  0  0  0  0  0
   67.3127   75.6196   85.9130 C   0  0  0  0  0  0  0  0  0  0  0  0
   67.6854   76.7712   85.2088 C   0  0  0  0  0  0  0  0  0  0  0  0
   67.6702   78.0168   85.8413 C   0  0  0  0  0  0  0  0  0  0  0  0
   67.2688   78.1255   87.1838 C   0  0  0  0  0  0  0  0  0  0  0  0
   66.8763   76.9665   87.8786 C   0  0  0  0  0  0  0  0  0  0  0  0
   67.3484   79.4196   87.8987 C   0  0  0  0  0  0  0  0  0  0  0  0
   67.1172   79.4701   89.2833 C   0  0  0  0  0  0  0  0  0  0  0  0
   67.0139   80.7001   89.9382 C   0  0  0  0  0  0  0  0  0  0  0  0
   67.1413   81.8888   89.2162 C   0  0  0  0  0  0  0  0  0  0  0  0
   67.4120   81.8525   87.8409 C   0  0  0  0  0  0  0  0  0  0  0  0
   67.5412   80.6197   87.1907 C   0  0  0  0  0  0  0  0  0  0  0  0
   67.5608   83.0348   87.1137 O   0  0  0  0  0  0  0  0  0  0  0  0
   68.6694   83.8674   87.2881 C   0  0  0  0  0  0  0  0  0  0  0  0
   69.9709   83.3553   87.1738 C   0  0  0  0  0  0  0  0  0  0  0  0
   71.0724   84.1979   87.3571 C   0  0  0  0  0  0  0  0  0  0  0  0
   70.8781   85.5547   87.6483 C   0  0  0  0  0  0  0  0  0  0  0  0
   72.2571   86.6098   87.8794 Cl  0  0  0  0  0  0  0  0  0  0  0  0
   69.5783   86.0699   87.7529 C   0  0  0  0  0  0  0  0  0  0  0  0
   68.4772   85.2279   87.5767 C   0  0  0  0  0  0  0  0  0  0  0  0
   66.5811   74.4789   88.0490 C   0  0  0  0  0  0  0  0  0  0  0  0
   67.5098   74.3169   89.1076 O   0  0  0  0  0  0  0  0  0  0  0  0
   69.6368   74.8221   92.0866 C   0  0  0  0  0  0  0  0  0  0  0  0
   68.8327   75.0871   90.9686 C   0  0  0  0  0  0  0  0  0  0  0  0
   68.2588   74.0393   90.2401 C   0  0  0  0  0  0  0  0  0  0  0  0
   68.4639   72.7152   90.6417 C   0  0  0  0  0  0  0  0  0  0  0  0
   69.2447   72.4367   91.7609 C   0  0  0  0  0  0  0  0  0  0  0  0
   69.8216   73.4812   92.4997 C   0  0  0  0  0  0  0  0  0  0  0  0
   70.5259   73.1520   93.6619 O   0  0  0  0  0  0  0  0  0  0  0  0
   70.6305   72.2540   93.9077 H   0  0  0  0  0  0  0  0  0  0  0  0
   71.2006   76.6047   92.1880 O   0  0  0  0  0  0  0  0  0  0  0  0
   70.2942   75.9519   92.7737 C   0  0  0  0  0  0  0  0  0  0  0  0
   69.9201   76.2977   94.0704 O   0  0  0  0  0  0  0  0  0  0  0  0
   69.2471   75.8147   94.5084 H   0  0  0  0  0  0  0  0  0  0  0  0
  1  2  2  0  0  0  0
  2  3  1  0  0  0  0
  3  4  2  0  0  0  0
  4  5  1  0  0  0  0
  5  7  1  0  0  0  0
  5  6  2  0  0  0  0
  6  1  1  0  0  0  0
  7  8  2  0  0  0  0
  8  9  1  0  0  0  0
  9 10  2  0  0  0  0
 10 11  1  0  0  0  0
 11 13  1  0  0  0  0
 11 12  2  0  0  0  0
 12  7  1  0  0  0  0
 13 14  1  0  0  0  0
 14 15  2  0  0  0  0
 15 16  1  0  0  0  0
 16 17  2  0  0  0  0
 17 18  1  0  0  0  0
 17 19  1  0  0  0  0
 19 20  2  0  0  0  0
 20 14  1  0  0  0  0
 21  1  1  0  0  0  0
 22 21  1  0  0  0  0
 23 24  2  0  0  0  0
 24 25  1  0  0  0  0
 25 22  1  0  0  0  0
 25 26  2  0  0  0  0
 26 27  1  0  0  0  0
 27 28  2  0  0  0  0
 28 29  1  0  0  0  0
 28 23  1  0  0  0  0
 29 30  1  0  0  0  0
 31 32  2  0  0  0  0
 32 33  1  0  0  0  0
 32 23  1  0  0  0  0
 33 34  1  0  0  0  0
M  END
>  <Activity>
5.0

>  <minimizedAffinity>
-9.41849

>  <RFScoreVS_v2>
6.03871660356

$$$$
HIPS6991
 OpenBabel05252300073D

 34 37  0  0  0  0  0  0  0  0999 V2000
   66.6410   78.7793   91.8969 C   0  0  0  0  0  0  0  0  0  0  0  0
   65.6888   79.5881   92.5366 C   0  0  0  0  0  0  0  0  0  0  0  0
   65.0882   79.1613   93.7274 C   0  0  0  0  0  0  0  0  0  0  0  0
   65.4285   77.9249   94.2817 C   0  0  0  0  0  0  0  0  0  0  0  0
   66.3654   77.0950   93.6424 C   0  0  0  0  0  0  0  0  0  0  0  0
   66.9493   77.5219   92.4355 C   0  0  0  0  0  0  0  0  0  0  0  0
   66.8153   75.8317   94.2703 C   0  0  0  0  0  0  0  0  0  0  0  0
   66.0188   75.2135   95.2483 C   0  0  0  0  0  0  0  0  0  0  0  0
   66.5085   74.1239   95.9733 C   0  0  0  0  0  0  0  0  0  0  0  0
   67.7962   73.6429   95.7270 C   0  0  0  0  0  0  0  0  0  0  0  0
   68.5867   74.2253   94.7260 C   0  0  0  0  0  0  0  0  0  0  0  0
   68.0853   75.3001   93.9825 C   0  0  0  0  0  0  0  0  0  0  0  0
   69.8677   73.7393   94.4583 O   0  0  0  0  0  0  0  0  0  0  0  0
   70.0742   72.6422   93.6180 C   0  0  0  0  0  0  0  0  0  0  0  0
   71.0192   71.6587   93.9482 C   0  0  0  0  0  0  0  0  0  0  0  0
   71.2210   70.5687   93.0951 C   0  0  0  0  0  0  0  0  0  0  0  0
   70.4759   70.4536   91.9140 C   0  0  0  0  0  0  0  0  0  0  0  0
   70.7294   69.0894   90.8448 Cl  0  0  0  0  0  0  0  0  0  0  0  0
   69.5243   71.4301   91.5877 C   0  0  0  0  0  0  0  0  0  0  0  0
   69.3265   72.5231   92.4356 C   0  0  0  0  0  0  0  0  0  0  0  0
   67.3390   79.2442   90.6504 C   0  0  0  0  0  0  0  0  0  0  0  0
   67.1063   78.3175   89.6033 O   0  0  0  0  0  0  0  0  0  0  0  0
   66.8911   75.0977   87.8032 C   0  0  0  0  0  0  0  0  0  0  0  0
   66.8504   76.0485   88.8332 C   0  0  0  0  0  0  0  0  0  0  0  0
   67.0993   77.3992   88.5654 C   0  0  0  0  0  0  0  0  0  0  0  0
   67.3654   77.8141   87.2564 C   0  0  0  0  0  0  0  0  0  0  0  0
   67.3910   76.8844   86.2195 C   0  0  0  0  0  0  0  0  0  0  0  0
   67.1393   75.5281   86.4780 C   0  0  0  0  0  0  0  0  0  0  0  0
   67.0938   74.6502   85.3907 O   0  0  0  0  0  0  0  0  0  0  0  0
   67.2631   74.9671   84.5253 H   0  0  0  0  0  0  0  0  0  0  0  0
   67.2312   73.2030   89.1917 O   0  0  0  0  0  0  0  0  0  0  0  0
   66.7097   73.6723   88.1435 C   0  0  0  0  0  0  0  0  0  0  0  0
   65.9674   72.8407   87.3078 O   0  0  0  0  0  0  0  0  0  0  0  0
   65.5786   73.1861   86.5284 H   0  0  0  0  0  0  0  0  0  0  0  0
  1  2  2  0  0  0  0
  2  3  1  0  0  0  0
  3  4  2  0  0  0  0
  4  5  1  0  0  0  0
  5  7  1  0  0  0  0
  5  6  2  0  0  0  0
  6  1  1  0  0  0  0
  7  8  2  0  0  0  0
  8  9  1  0  0  0  0
  9 10  2  0  0  0  0
 10 11  1  0  0  0  0
 11 13  1  0  0  0  0
 11 12  2  0  0  0  0
 12  7  1  0  0  0  0
 13 14  1  0  0  0  0
 14 15  2  0  0  0  0
 15 16  1  0  0  0  0
 16 17  2  0  0  0  0
 17 18  1  0  0  0  0
 17 19  1  0  0  0  0
 19 20  2  0  0  0  0
 20 14  1  0  0  0  0
 21  1  1  0  0  0  0
 22 21  1  0  0  0  0
 23 24  2  0  0  0  0
 24 25  1  0  0  0  0
 25 22  1  0  0  0  0
 25 26  2  0  0  0  0
 26 27  1  0  0  0  0
 27 28  2  0  0  0  0
 28 29  1  0  0  0  0
 28 23  1  0  0  0  0
 29 30  1  0  0  0  0
 31 32  2  0  0  0  0
 32 33  1  0  0  0  0
 32 23  1  0  0  0  0
 33 34  1  0  0  0  0
M  END
>  <Activity>
5.0

>  <minimizedAffinity>
-9.25897

>  <RFScoreVS_v2>
5.99969293963

$$$$
HIPS6991
 OpenBabel05252300073D

 34 37  0  0  0  0  0  0  0  0999 V2000
   66.8273   79.5442   87.8595 C   0  0  0  0  0  0  0  0  0  0  0  0
   66.1975   78.4489   87.2485 C   0  0  0  0  0  0  0  0  0  0  0  0
   66.6497   77.1473   87.4981 C   0  0  0  0  0  0  0  0  0  0  0  0
   67.7348   76.9324   88.3514 C   0  0  0  0  0  0  0  0  0  0  0  0
   68.3885   78.0204   88.9550 C   0  0  0  0  0  0  0  0  0  0  0  0
   67.9410   79.3264   88.6831 C   0  0  0  0  0  0  0  0  0  0  0  0
   69.4701   77.8045   89.9429 C   0  0  0  0  0  0  0  0  0  0  0  0
   70.5613   78.6878   89.9908 C   0  0  0  0  0  0  0  0  0  0  0  0
   71.6697   78.3991   90.7912 C   0  0  0  0  0  0  0  0  0  0  0  0
   71.6969   77.2272   91.5503 C   0  0  0  0  0  0  0  0  0  0  0  0
   70.5975   76.3568   91.5427 C   0  0  0  0  0  0  0  0  0  0  0  0
   69.4769   76.6601   90.7606 C   0  0  0  0  0  0  0  0  0  0  0  0
   70.6065   75.1928   92.3132 O   0  0  0  0  0  0  0  0  0  0  0  0
   69.5265   74.8463   93.1294 C   0  0  0  0  0  0  0  0  0  0  0  0
   68.7272   73.7349   92.8210 C   0  0  0  0  0  0  0  0  0  0  0  0
   67.6449   73.4026   93.6426 C   0  0  0  0  0  0  0  0  0  0  0  0
   67.3615   74.1742   94.7775 C   0  0  0  0  0  0  0  0  0  0  0  0
   66.0055   73.7592   95.8058 Cl  0  0  0  0  0  0  0  0  0  0  0  0
   68.1653   75.2789   95.0925 C   0  0  0  0  0  0  0  0  0  0  0  0
   69.2426   75.6160   94.2688 C   0  0  0  0  0  0  0  0  0  0  0  0
   66.3212   80.9432   87.6505 C   0  0  0  0  0  0  0  0  0  0  0  0
   67.4031   81.8555   87.7305 O   0  0  0  0  0  0  0  0  0  0  0  0
   70.5482   83.7107   88.2968 C   0  0  0  0  0  0  0  0  0  0  0  0
   69.5652   82.7126   88.3612 C   0  0  0  0  0  0  0  0  0  0  0  0
   68.3866   82.8251   87.6153 C   0  0  0  0  0  0  0  0  0  0  0  0
   68.1937   83.9276   86.7764 C   0  0  0  0  0  0  0  0  0  0  0  0
   69.1690   84.9180   86.6874 C   0  0  0  0  0  0  0  0  0  0  0  0
   70.3557   84.8120   87.4292 C   0  0  0  0  0  0  0  0  0  0  0  0
   71.3374   85.7895   87.2399 O   0  0  0  0  0  0  0  0  0  0  0  0
   71.1786   86.5066   86.6581 H   0  0  0  0  0  0  0  0  0  0  0  0
   71.6419   83.0344   90.2918 O   0  0  0  0  0  0  0  0  0  0  0  0
   71.7362   83.5960   89.1664 C   0  0  0  0  0  0  0  0  0  0  0  0
   72.9622   84.1105   88.7503 O   0  0  0  0  0  0  0  0  0  0  0  0
   73.0357   84.5284   87.9148 H   0  0  0  0  0  0  0  0  0  0  0  0
  1  2  2  0  0  0  0
  2  3  1  0  0  0  0
  3  4  2  0  0  0  0
  4  5  1  0  0  0  0
  5  7  1  0  0  0  0
  5  6  2  0  0  0  0
  6  1  1  0  0  0  0
  7  8  2  0  0  0  0
  8  9  1  0  0  0  0
  9 10  2  0  0  0  0
 10 11  1  0  0  0  0
 11 13  1  0  0  0  0
 11 12  2  0  0  0  0
 12  7  1  0  0  0  0
 13 14  1  0  0  0  0
 14 15  2  0  0  0  0
 15 16  1  0  0  0  0
 16 17  2  0  0  0  0
 17 18  1  0  0  0  0
 17 19  1  0  0  0  0
 19 20  2  0  0  0  0
 20 14  1  0  0  0  0
 21  1  1  0  0  0  0
 22 21  1  0  0  0  0
 23 24  2  0  0  0  0
 24 25  1  0  0  0  0
 25 22  1  0  0  0  0
 25 26  2  0  0  0  0
 26 27  1  0  0  0  0
 27 28  2  0  0  0  0
 28 29  1  0  0  0  0
 28 23  1  0  0  0  0
 29 30  1  0  0  0  0
 31 32  2  0  0  0  0
 32 33  1  0  0  0  0
 32 23  1  0  0  0  0
 33 34  1  0  0  0  0
M  END
>  <Activity>
5.0

>  <minimizedAffinity>
-9.14056

>  <RFScoreVS_v2>
5.98308119166

$$$$
HIPS6991
 OpenBabel05252300073D

 34 37  0  0  0  0  0  0  0  0999 V2000
   69.6203   78.6028   90.4833 C   0  0  0  0  0  0  0  0  0  0  0  0
   70.9677   78.4933   90.1061 C   0  0  0  0  0  0  0  0  0  0  0  0
   71.7838   77.5138   90.6852 C   0  0  0  0  0  0  0  0  0  0  0  0
   71.2630   76.6444   91.6469 C   0  0  0  0  0  0  0  0  0  0  0  0
   69.9210   76.7545   92.0496 C   0  0  0  0  0  0  0  0  0  0  0  0
   69.1128   77.7545   91.4779 C   0  0  0  0  0  0  0  0  0  0  0  0
   69.3259   75.7753   92.9874 C   0  0  0  0  0  0  0  0  0  0  0  0
   68.9423   76.1833   94.2756 C   0  0  0  0  0  0  0  0  0  0  0  0
   68.5466   75.2398   95.2272 C   0  0  0  0  0  0  0  0  0  0  0  0
   68.5300   73.8822   94.9000 C   0  0  0  0  0  0  0  0  0  0  0  0
   68.8720   73.4650   93.6057 C   0  0  0  0  0  0  0  0  0  0  0  0
   69.2432   74.4134   92.6456 C   0  0  0  0  0  0  0  0  0  0  0  0
   68.8396   72.1122   93.2626 O   0  0  0  0  0  0  0  0  0  0  0  0
   70.0114   71.3862   93.0338 C   0  0  0  0  0  0  0  0  0  0  0  0
   71.1290   71.5554   93.8654 C   0  0  0  0  0  0  0  0  0  0  0  0
   72.2983   70.8274   93.6217 C   0  0  0  0  0  0  0  0  0  0  0  0
   72.3534   69.9241   92.5519 C   0  0  0  0  0  0  0  0  0  0  0  0
   73.8180   69.0134   92.2455 Cl  0  0  0  0  0  0  0  0  0  0  0  0
   71.2342   69.7466   91.7262 C   0  0  0  0  0  0  0  0  0  0  0  0
   70.0678   70.4782   91.9645 C   0  0  0  0  0  0  0  0  0  0  0  0
   68.7137   79.6084   89.8322 C   0  0  0  0  0  0  0  0  0  0  0  0
   69.4060   80.8344   89.6683 O   0  0  0  0  0  0  0  0  0  0  0  0
   70.1232   84.0239   87.9459 C   0  0  0  0  0  0  0  0  0  0  0  0
   69.4549   82.8696   88.3788 C   0  0  0  0  0  0  0  0  0  0  0  0
   70.0590   81.9971   89.2909 C   0  0  0  0  0  0  0  0  0  0  0  0
   71.3295   82.2878   89.7988 C   0  0  0  0  0  0  0  0  0  0  0  0
   71.9983   83.4401   89.3927 C   0  0  0  0  0  0  0  0  0  0  0  0
   71.3990   84.3226   88.4808 C   0  0  0  0  0  0  0  0  0  0  0  0
   72.0763   85.5059   88.1708 O   0  0  0  0  0  0  0  0  0  0  0  0
   72.9201   85.6737   88.5419 H   0  0  0  0  0  0  0  0  0  0  0  0
   68.2458   85.0906   86.9607 O   0  0  0  0  0  0  0  0  0  0  0  0
   69.4869   84.8704   86.9167 C   0  0  0  0  0  0  0  0  0  0  0  0
   70.2522   85.4242   85.8928 O   0  0  0  0  0  0  0  0  0  0  0  0
   71.1744   85.2626   85.8572 H   0  0  0  0  0  0  0  0  0  0  0  0
  1  2  2  0  0  0  0
  2  3  1  0  0  0  0
  3  4  2  0  0  0  0
  4  5  1  0  0  0  0
  5  7  1  0  0  0  0
  5  6  2  0  0  0  0
  6  1  1  0  0  0  0
  7  8  2  0  0  0  0
  8  9  1  0  0  0  0
  9 10  2  0  0  0  0
 10 11  1  0  0  0  0
 11 13  1  0  0  0  0
 11 12  2  0  0  0  0
 12  7  1  0  0  0  0
 13 14  1  0  0  0  0
 14 15  2  0  0  0  0
 15 16  1  0  0  0  0
 16 17  2  0  0  0  0
 17 18  1  0  0  0  0
 17 19  1  0  0  0  0
 19 20  2  0  0  0  0
 20 14  1  0  0  0  0
 21  1  1  0  0  0  0
 22 21  1  0  0  0  0
 23 24  2  0  0  0  0
 24 25  1  0  0  0  0
 25 22  1  0  0  0  0
 25 26  2  0  0  0  0
 26 27  1  0  0  0  0
 27 28  2  0  0  0  0
 28 29  1  0  0  0  0
 28 23  1  0  0  0  0
 29 30  1  0  0  0  0
 31 32  2  0  0  0  0
 32 33  1  0  0  0  0
 32 23  1  0  0  0  0
 33 34  1  0  0  0  0
M  END
>  <Activity>
5.0

>  <minimizedAffinity>
-9.10313

>  <RFScoreVS_v2>
5.99345733323

$$$$
HIPS6991
 OpenBabel05252300073D

 34 37  0  0  0  0  0  0  0  0999 V2000
   67.5914   79.1301   88.8819 C   0  0  0  0  0  0  0  0  0  0  0  0
   67.0497   79.4279   87.6219 C   0  0  0  0  0  0  0  0  0  0  0  0
   66.6840   78.3945   86.7505 C   0  0  0  0  0  0  0  0  0  0  0  0
   66.8628   77.0613   87.1279 C   0  0  0  0  0  0  0  0  0  0  0  0
   67.4225   76.7474   88.3782 C   0  0  0  0  0  0  0  0  0  0  0  0
   67.8063   77.7915   89.2399 C   0  0  0  0  0  0  0  0  0  0  0  0
   67.5204   75.3427   88.8362 C   0  0  0  0  0  0  0  0  0  0  0  0
   66.8377   74.3305   88.1416 C   0  0  0  0  0  0  0  0  0  0  0  0
   66.7758   73.0349   88.6612 C   0  0  0  0  0  0  0  0  0  0  0  0
   67.3956   72.7397   89.8774 C   0  0  0  0  0  0  0  0  0  0  0  0
   68.1143   73.7308   90.5611 C   0  0  0  0  0  0  0  0  0  0  0  0
   68.1975   75.0218   90.0266 C   0  0  0  0  0  0  0  0  0  0  0  0
   68.7541   73.4411   91.7675 O   0  0  0  0  0  0  0  0  0  0  0  0
   68.1866   73.7821   92.9980 C   0  0  0  0  0  0  0  0  0  0  0  0
   66.8801   73.3809   93.3165 C   0  0  0  0  0  0  0  0  0  0  0  0
   66.3211   73.7344   94.5490 C   0  0  0  0  0  0  0  0  0  0  0  0
   67.0664   74.4831   95.4696 C   0  0  0  0  0  0  0  0  0  0  0  0
   66.3662   74.9272   97.0126 Cl  0  0  0  0  0  0  0  0  0  0  0  0
   68.3754   74.8761   95.1569 C   0  0  0  0  0  0  0  0  0  0  0  0
   68.9326   74.5294   93.9233 C   0  0  0  0  0  0  0  0  0  0  0  0
   67.9361   80.2227   89.8538 C   0  0  0  0  0  0  0  0  0  0  0  0
   68.4118   81.3545   89.1453 O   0  0  0  0  0  0  0  0  0  0  0  0
   70.3330   84.2745   87.9465 C   0  0  0  0  0  0  0  0  0  0  0  0
   70.0258   83.0259   88.5064 C   0  0  0  0  0  0  0  0  0  0  0  0
   68.7043   82.5673   88.5417 C   0  0  0  0  0  0  0  0  0  0  0  0
   67.6802   83.3451   87.9914 C   0  0  0  0  0  0  0  0  0  0  0  0
   67.9719   84.5791   87.4150 C   0  0  0  0  0  0  0  0  0  0  0  0
   69.2947   85.0458   87.3721 C   0  0  0  0  0  0  0  0  0  0  0  0
   69.5443   86.2508   86.7082 O   0  0  0  0  0  0  0  0  0  0  0  0
   68.8343   86.7379   86.3387 H   0  0  0  0  0  0  0  0  0  0  0  0
   72.0455   85.8375   87.4391 O   0  0  0  0  0  0  0  0  0  0  0  0
   71.7267   84.7585   88.0090 C   0  0  0  0  0  0  0  0  0  0  0  0
   72.6939   84.0246   88.6922 O   0  0  0  0  0  0  0  0  0  0  0  0
   72.4604   83.2225   89.1167 H   0  0  0  0  0  0  0  0  0  0  0  0
  1  2  2  0  0  0  0
  2  3  1  0  0  0  0
  3  4  2  0  0  0  0
  4  5  1  0  0  0  0
  5  7  1  0  0  0  0
  5  6  2  0  0  0  0
  6  1  1  0  0  0  0
  7  8  2  0  0  0  0
  8  9  1  0  0  0  0
  9 10  2  0  0  0  0
 10 11  1  0  0  0  0
 11 13  1  0  0  0  0
 11 12  2  0  0  0  0
 12  7  1  0  0  0  0
 13 14  1  0  0  0  0
 14 15  2  0  0  0  0
 15 16  1  0  0  0  0
 16 17  2  0  0  0  0
 17 18  1  0  0  0  0
 17 19  1  0  0  0  0
 19 20  2  0  0  0  0
 20 14  1  0  0  0  0
 21  1  1  0  0  0  0
 22 21  1  0  0  0  0
 23 24  2  0  0  0  0
 24 25  1  0  0  0  0
 25 22  1  0  0  0  0
 25 26  2  0  0  0  0
 26 27  1  0  0  0  0
 27 28  2  0  0  0  0
 28 29  1  0  0  0  0
 28 23  1  0  0  0  0
 29 30  1  0  0  0  0
 31 32  2  0  0  0  0
 32 33  1  0  0  0  0
 32 23  1  0  0  0  0
 33 34  1  0  0  0  0
M  END
>  <Activity>
5.0

>  <minimizedAffinity>
-9.05313

>  <RFScoreVS_v2>
6.00698917815

$$$$
HIPS6991
 OpenBabel05252300073D

 34 37  0  0  0  0  0  0  0  0999 V2000
   66.9396   79.5957   87.8540 C   0  0  0  0  0  0  0  0  0  0  0  0
   66.3591   78.5289   87.1507 C   0  0  0  0  0  0  0  0  0  0  0  0
   66.7879   77.2162   87.3824 C   0  0  0  0  0  0  0  0  0  0  0  0
   67.8010   76.9618   88.3102 C   0  0  0  0  0  0  0  0  0  0  0  0
   68.4060   78.0214   89.0078 C   0  0  0  0  0  0  0  0  0  0  0  0
   67.9836   79.3395   88.7544 C   0  0  0  0  0  0  0  0  0  0  0  0
   69.4047   77.7607   90.0693 C   0  0  0  0  0  0  0  0  0  0  0  0
   70.7111   78.2605   89.9397 C   0  0  0  0  0  0  0  0  0  0  0  0
   71.7076   77.8758   90.8405 C   0  0  0  0  0  0  0  0  0  0  0  0
   71.4075   76.9902   91.8778 C   0  0  0  0  0  0  0  0  0  0  0  0
   70.0985   76.5151   92.0425 C   0  0  0  0  0  0  0  0  0  0  0  0
   69.0953   76.9216   91.1550 C   0  0  0  0  0  0  0  0  0  0  0  0
   69.7837   75.6451   93.0879 O   0  0  0  0  0  0  0  0  0  0  0  0
   69.7300   74.2617   92.8986 C   0  0  0  0  0  0  0  0  0  0  0  0
   69.4684   73.7253   91.6285 C   0  0  0  0  0  0  0  0  0  0  0  0
   69.4107   72.3387   91.4536 C   0  0  0  0  0  0  0  0  0  0  0  0
   69.6204   71.4838   92.5439 C   0  0  0  0  0  0  0  0  0  0  0  0
   69.5468   69.7473   92.3254 Cl  0  0  0  0  0  0  0  0  0  0  0  0
   69.8918   72.0181   93.8114 C   0  0  0  0  0  0  0  0  0  0  0  0
   69.9429   73.4031   93.9888 C   0  0  0  0  0  0  0  0  0  0  0  0
   66.4540   81.0044   87.6623 C   0  0  0  0  0  0  0  0  0  0  0  0
   67.5649   81.8774   87.5490 O   0  0  0  0  0  0  0  0  0  0  0  0
   70.6568   83.7727   88.2576 C   0  0  0  0  0  0  0  0  0  0  0  0
   69.7075   82.7408   88.2353 C   0  0  0  0  0  0  0  0  0  0  0  0
   68.5149   82.8860   87.5179 C   0  0  0  0  0  0  0  0  0  0  0  0
   68.2741   84.0581   86.7935 C   0  0  0  0  0  0  0  0  0  0  0  0
   69.2155   85.0846   86.7907 C   0  0  0  0  0  0  0  0  0  0  0  0
   70.4159   84.9465   87.5045 C   0  0  0  0  0  0  0  0  0  0  0  0
   71.3628   85.9701   87.4006 O   0  0  0  0  0  0  0  0  0  0  0  0
   71.1722   86.7348   86.8939 H   0  0  0  0  0  0  0  0  0  0  0  0
   72.9800   84.0161   88.6784 O   0  0  0  0  0  0  0  0  0  0  0  0
   71.8607   83.6135   89.0978 C   0  0  0  0  0  0  0  0  0  0  0  0
   71.7662   83.0153   90.3525 O   0  0  0  0  0  0  0  0  0  0  0  0
   70.9361   82.7152   90.6671 H   0  0  0  0  0  0  0  0  0  0  0  0
  1  2  2  0  0  0  0
  2  3  1  0  0  0  0
  3  4  2  0  0  0  0
  4  5  1  0  0  0  0
  5  7  1  0  0  0  0
  5  6  2  0  0  0  0
  6  1  1  0  0  0  0
  7  8  2  0  0  0  0
  8  9  1  0  0  0  0
  9 10  2  0  0  0  0
 10 11  1  0  0  0  0
 11 13  1  0  0  0  0
 11 12  2  0  0  0  0
 12  7  1  0  0  0  0
 13 14  1  0  0  0  0
 14 15  2  0  0  0  0
 15 16  1  0  0  0  0
 16 17  2  0  0  0  0
 17 18  1  0  0  0  0
 17 19  1  0  0  0  0
 19 20  2  0  0  0  0
 20 14  1  0  0  0  0
 21  1  1  0  0  0  0
 22 21  1  0  0  0  0
 23 24  2  0  0  0  0
 24 25  1  0  0  0  0
 25 22  1  0  0  0  0
 25 26  2  0  0  0  0
 26 27  1  0  0  0  0
 27 28  2  0  0  0  0
 28 29  1  0  0  0  0
 28 23  1  0  0  0  0
 29 30  1  0  0  0  0
 31 32  2  0  0  0  0
 32 33  1  0  0  0  0
 32 23  1  0  0  0  0
 33 34  1  0  0  0  0
M  END
>  <Activity>
5.0

>  <minimizedAffinity>
-9.01472

>  <RFScoreVS_v2>
5.9854800466

$$$$
HIPS6991
 OpenBabel05252300073D

 34 37  0  0  0  0  0  0  0  0999 V2000
   70.2297   76.7905   92.0263 C   0  0  0  0  0  0  0  0  0  0  0  0
   71.5872   76.9528   91.7089 C   0  0  0  0  0  0  0  0  0  0  0  0
   71.9678   77.7821   90.6467 C   0  0  0  0  0  0  0  0  0  0  0  0
   70.9978   78.4472   89.8926 C   0  0  0  0  0  0  0  0  0  0  0  0
   69.6336   78.2790   90.1855 C   0  0  0  0  0  0  0  0  0  0  0  0
   69.2583   77.4280   91.2414 C   0  0  0  0  0  0  0  0  0  0  0  0
   68.5999   79.0576   89.4659 C   0  0  0  0  0  0  0  0  0  0  0  0
   67.7978   78.4302   88.4984 C   0  0  0  0  0  0  0  0  0  0  0  0
   66.9449   79.1857   87.6895 C   0  0  0  0  0  0  0  0  0  0  0  0
   66.8858   80.5728   87.8407 C   0  0  0  0  0  0  0  0  0  0  0  0
   67.6512   81.2073   88.8295 C   0  0  0  0  0  0  0  0  0  0  0  0
   68.4856   80.4465   89.6567 C   0  0  0  0  0  0  0  0  0  0  0  0
   67.5844   82.5910   89.0022 O   0  0  0  0  0  0  0  0  0  0  0  0
   68.6659   83.4206   88.6946 C   0  0  0  0  0  0  0  0  0  0  0  0
   69.6153   83.0296   87.7381 C   0  0  0  0  0  0  0  0  0  0  0  0
   70.6970   83.8663   87.4440 C   0  0  0  0  0  0  0  0  0  0  0  0
   70.8306   85.0980   88.0987 C   0  0  0  0  0  0  0  0  0  0  0  0
   72.1859   86.1454   87.7318 Cl  0  0  0  0  0  0  0  0  0  0  0  0
   69.8775   85.4945   89.0474 C   0  0  0  0  0  0  0  0  0  0  0  0
   68.8001   84.6566   89.3469 C   0  0  0  0  0  0  0  0  0  0  0  0
   69.8038   75.9516   93.1976 C   0  0  0  0  0  0  0  0  0  0  0  0
   69.8329   74.5816   92.8348 O   0  0  0  0  0  0  0  0  0  0  0  0
   70.4508   71.0192   93.5975 C   0  0  0  0  0  0  0  0  0  0  0  0
   70.3626   72.4116   93.7390 C   0  0  0  0  0  0  0  0  0  0  0  0
   69.8646   73.2029   92.6979 C   0  0  0  0  0  0  0  0  0  0  0  0
   69.4248   72.6026   91.5135 C   0  0  0  0  0  0  0  0  0  0  0  0
   69.4886   71.2192   91.3649 C   0  0  0  0  0  0  0  0  0  0  0  0
   69.9835   70.4173   92.4049 C   0  0  0  0  0  0  0  0  0  0  0  0
   69.9478   69.0296   92.2375 O   0  0  0  0  0  0  0  0  0  0  0  0
   69.6326   68.6624   91.4352 H   0  0  0  0  0  0  0  0  0  0  0  0
   72.0394   69.4705   94.4406 O   0  0  0  0  0  0  0  0  0  0  0  0
   71.0637   70.2312   94.6855 C   0  0  0  0  0  0  0  0  0  0  0  0
   70.5649   70.3210   95.9833 O   0  0  0  0  0  0  0  0  0  0  0  0
   69.8401   70.8851   96.1687 H   0  0  0  0  0  0  0  0  0  0  0  0
  1  2  2  0  0  0  0
  2  3  1  0  0  0  0
  3  4  2  0  0  0  0
  4  5  1  0  0  0  0
  5  7  1  0  0  0  0
  5  6  2  0  0  0  0
  6  1  1  0  0  0  0
  7  8  2  0  0  0  0
  8  9  1  0  0  0  0
  9 10  2  0  0  0  0
 10 11  1  0  0  0  0
 11 13  1  0  0  0  0
 11 12  2  0  0  0  0
 12  7  1  0  0  0  0
 13 14  1  0  0  0  0
 14 15  2  0  0  0  0
 15 16  1  0  0  0  0
 16 17  2  0  0  0  0
 17 18  1  0  0  0  0
 17 19  1  0  0  0  0
 19 20  2  0  0  0  0
 20 14  1  0  0  0  0
 21  1  1  0  0  0  0
 22 21  1  0  0  0  0
 23 24  2  0  0  0  0
 24 25  1  0  0  0  0
 25 22  1  0  0  0  0
 25 26  2  0  0  0  0
 26 27  1  0  0  0  0
 27 28  2  0  0  0  0
 28 29  1  0  0  0  0
 28 23  1  0  0  0  0
 29 30  1  0  0  0  0
 31 32  2  0  0  0  0
 32 33  1  0  0  0  0
 32 23  1  0  0  0  0
 33 34  1  0  0  0  0
M  END
>  <Activity>
5.0

>  <minimizedAffinity>
-9.01389

>  <RFScoreVS_v2>
6.00214368103

$$$$
HIPS6991
 OpenBabel05252300073D

 34 37  0  0  0  0  0  0  0  0999 V2000
   67.0639   75.0460   88.1797 C   0  0  0  0  0  0  0  0  0  0  0  0
   67.0254   75.2393   86.7901 C   0  0  0  0  0  0  0  0  0  0  0  0
   67.1937   76.5214   86.2525 C   0  0  0  0  0  0  0  0  0  0  0  0
   67.3940   77.6162   87.0969 C   0  0  0  0  0  0  0  0  0  0  0  0
   67.4151   77.4417   88.4913 C   0  0  0  0  0  0  0  0  0  0  0  0
   67.2249   76.1535   89.0245 C   0  0  0  0  0  0  0  0  0  0  0  0
   67.7315   78.5717   89.3943 C   0  0  0  0  0  0  0  0  0  0  0  0
   66.6923   79.2824   90.0172 C   0  0  0  0  0  0  0  0  0  0  0  0
   66.9643   80.4550   90.7268 C   0  0  0  0  0  0  0  0  0  0  0  0
   68.2754   80.9266   90.8204 C   0  0  0  0  0  0  0  0  0  0  0  0
   69.3272   80.2055   90.2373 C   0  0  0  0  0  0  0  0  0  0  0  0
   69.0567   79.0171   89.5489 C   0  0  0  0  0  0  0  0  0  0  0  0
   70.6438   80.6577   90.3420 O   0  0  0  0  0  0  0  0  0  0  0  0
   71.0576   81.8520   89.7463 C   0  0  0  0  0  0  0  0  0  0  0  0
   72.3214   82.3909   90.0319 C   0  0  0  0  0  0  0  0  0  0  0  0
   72.7212   83.5907   89.4339 C   0  0  0  0  0  0  0  0  0  0  0  0
   71.8639   84.2521   88.5445 C   0  0  0  0  0  0  0  0  0  0  0  0
   72.3636   85.7552   87.7967 Cl  0  0  0  0  0  0  0  0  0  0  0  0
   70.6050   83.7097   88.2504 C   0  0  0  0  0  0  0  0  0  0  0  0
   70.2017   82.5148   88.8523 C   0  0  0  0  0  0  0  0  0  0  0  0
   66.9435   73.6711   88.7732 C   0  0  0  0  0  0  0  0  0  0  0  0
   67.4209   73.6876   90.1078 O   0  0  0  0  0  0  0  0  0  0  0  0
   67.6994   73.6134   93.7917 C   0  0  0  0  0  0  0  0  0  0  0  0
   67.1642   73.7527   92.5030 C   0  0  0  0  0  0  0  0  0  0  0  0
   67.9499   73.4948   91.3742 C   0  0  0  0  0  0  0  0  0  0  0  0
   69.2733   73.0685   91.5271 C   0  0  0  0  0  0  0  0  0  0  0  0
   69.8135   72.9074   92.8007 C   0  0  0  0  0  0  0  0  0  0  0  0
   69.0321   73.1606   93.9387 C   0  0  0  0  0  0  0  0  0  0  0  0
   69.5954   72.9030   95.1922 O   0  0  0  0  0  0  0  0  0  0  0  0
   70.4811   72.6039   95.2553 H   0  0  0  0  0  0  0  0  0  0  0  0
   66.7946   73.2098   95.9485 O   0  0  0  0  0  0  0  0  0  0  0  0
   66.8635   73.9803   94.9524 C   0  0  0  0  0  0  0  0  0  0  0  0
   66.1454   75.1742   94.9501 O   0  0  0  0  0  0  0  0  0  0  0  0
   66.1943   75.7489   94.2116 H   0  0  0  0  0  0  0  0  0  0  0  0
  1  2  2  0  0  0  0
  2  3  1  0  0  0  0
  3  4  2  0  0  0  0
  4  5  1  0  0  0  0
  5  7  1  0  0  0  0
  5  6  2  0  0  0  0
  6  1  1  0  0  0  0
  7  8  2  0  0  0  0
  8  9  1  0  0  0  0
  9 10  2  0  0  0  0
 10 11  1  0  0  0  0
 11 13  1  0  0  0  0
 11 12  2  0  0  0  0
 12  7  1  0  0  0  0
 13 14  1  0  0  0  0
 14 15  2  0  0  0  0
 15 16  1  0  0  0  0
 16 17  2  0  0  0  0
 17 18  1  0  0  0  0
 17 19  1  0  0  0  0
 19 20  2  0  0  0  0
 20 14  1  0  0  0  0
 21  1  1  0  0  0  0
 22 21  1  0  0  0  0
 23 24  2  0  0  0  0
 24 25  1  0  0  0  0
 25 22  1  0  0  0  0
 25 26  2  0  0  0  0
 26 27  1  0  0  0  0
 27 28  2  0  0  0  0
 28 29  1  0  0  0  0
 28 23  1  0  0  0  0
 29 30  1  0  0  0  0
 31 32  2  0  0  0  0
 32 33  1  0  0  0  0
 32 23  1  0  0  0  0
 33 34  1  0  0  0  0
M  END
>  <Activity>
5.0

>  <minimizedAffinity>
-8.96421

>  <RFScoreVS_v2>
6.02577921047

$$$$
HIPS6991
 OpenBabel05252300073D

 34 37  0  0  0  0  0  0  0  0999 V2000
   66.7674   78.9401   91.7669 C   0  0  0  0  0  0  0  0  0  0  0  0
   65.8135   79.7486   92.4042 C   0  0  0  0  0  0  0  0  0  0  0  0
   65.1777   79.3025   93.5694 C   0  0  0  0  0  0  0  0  0  0  0  0
   65.4846   78.0472   94.1003 C   0  0  0  0  0  0  0  0  0  0  0  0
   66.4230   77.2178   93.4624 C   0  0  0  0  0  0  0  0  0  0  0  0
   67.0425   77.6648   92.2807 C   0  0  0  0  0  0  0  0  0  0  0  0
   66.8373   75.9321   94.0687 C   0  0  0  0  0  0  0  0  0  0  0  0
   65.9989   75.2934   94.9973 C   0  0  0  0  0  0  0  0  0  0  0  0
   66.4508   74.1779   95.7072 C   0  0  0  0  0  0  0  0  0  0  0  0
   67.7425   73.6912   95.4951 C   0  0  0  0  0  0  0  0  0  0  0  0
   68.5755   74.2948   94.5422 C   0  0  0  0  0  0  0  0  0  0  0  0
   68.1124   75.3961   93.8129 C   0  0  0  0  0  0  0  0  0  0  0  0
   69.8612   73.8038   94.3083 O   0  0  0  0  0  0  0  0  0  0  0  0
   70.0723   72.5653   93.6965 C   0  0  0  0  0  0  0  0  0  0  0  0
   69.6449   72.3385   92.3793 C   0  0  0  0  0  0  0  0  0  0  0  0
   69.8564   71.0921   91.7805 C   0  0  0  0  0  0  0  0  0  0  0  0
   70.5006   70.0712   92.4921 C   0  0  0  0  0  0  0  0  0  0  0  0
   70.7643   68.5098   91.7431 Cl  0  0  0  0  0  0  0  0  0  0  0  0
   70.9371   70.2996   93.8047 C   0  0  0  0  0  0  0  0  0  0  0  0
   70.7204   71.5420   94.4063 C   0  0  0  0  0  0  0  0  0  0  0  0
   67.5025   79.4240   90.5493 C   0  0  0  0  0  0  0  0  0  0  0  0
   67.5564   78.3866   89.5848 O   0  0  0  0  0  0  0  0  0  0  0  0
   67.3516   76.4770   86.4280 C   0  0  0  0  0  0  0  0  0  0  0  0
   67.5539   77.5292   87.3328 C   0  0  0  0  0  0  0  0  0  0  0  0
   67.4037   77.3237   88.7087 C   0  0  0  0  0  0  0  0  0  0  0  0
   67.0751   76.0534   89.1933 C   0  0  0  0  0  0  0  0  0  0  0  0
   66.8892   74.9938   88.3086 C   0  0  0  0  0  0  0  0  0  0  0  0
   67.0409   75.1897   86.9272 C   0  0  0  0  0  0  0  0  0  0  0  0
   66.9263   74.0758   86.0899 O   0  0  0  0  0  0  0  0  0  0  0  0
   66.7193   73.2367   86.4521 H   0  0  0  0  0  0  0  0  0  0  0  0
   68.1772   77.6857   84.5597 O   0  0  0  0  0  0  0  0  0  0  0  0
   67.4338   76.7579   84.9807 C   0  0  0  0  0  0  0  0  0  0  0  0
   66.6887   76.0039   84.0766 O   0  0  0  0  0  0  0  0  0  0  0  0
   66.1354   75.3139   84.3860 H   0  0  0  0  0  0  0  0  0  0  0  0
  1  2  2  0  0  0  0
  2  3  1  0  0  0  0
  3  4  2  0  0  0  0
  4  5  1  0  0  0  0
  5  7  1  0  0  0  0
  5  6  2  0  0  0  0
  6  1  1  0  0  0  0
  7  8  2  0  0  0  0
  8  9  1  0  0  0  0
  9 10  2  0  0  0  0
 10 11  1  0  0  0  0
 11 13  1  0  0  0  0
 11 12  2  0  0  0  0
 12  7  1  0  0  0  0
 13 14  1  0  0  0  0
 14 15  2  0  0  0  0
 15 16  1  0  0  0  0
 16 17  2  0  0  0  0
 17 18  1  0  0  0  0
 17 19  1  0  0  0  0
 19 20  2  0  0  0  0
 20 14  1  0  0  0  0
 21  1  1  0  0  0  0
 22 21  1  0  0  0  0
 23 24  2  0  0  0  0
 24 25  1  0  0  0  0
 25 22  1  0  0  0  0
 25 26  2  0  0  0  0
 26 27  1  0  0  0  0
 27 28  2  0  0  0  0
 28 29  1  0  0  0  0
 28 23  1  0  0  0  0
 29 30  1  0  0  0  0
 31 32  2  0  0  0  0
 32 33  1  0  0  0  0
 32 23  1  0  0  0  0
 33 34  1  0  0  0  0
M  END
>  <Activity>
5.0

>  <minimizedAffinity>
-8.95418

>  <RFScoreVS_v2>
6.02705383575

$$$$
HIPS6998
 OpenBabel05252300073D

 35 38  0  0  0  0  0  0  0  0999 V2000
   69.7322   76.4338   91.8461 C   0  0  0  0  0  0  0  0  0  0  0  0
   71.1018   76.7358   91.8169 C   0  0  0  0  0  0  0  0  0  0  0  0
   71.5879   77.7121   90.9455 C   0  0  0  0  0  0  0  0  0  0  0  0
   70.7127   78.4007   90.1024 C   0  0  0  0  0  0  0  0  0  0  0  0
   69.3342   78.1236   90.1269 C   0  0  0  0  0  0  0  0  0  0  0  0
   68.8521   77.1402   91.0102 C   0  0  0  0  0  0  0  0  0  0  0  0
   68.4022   78.8540   89.2307 C   0  0  0  0  0  0  0  0  0  0  0  0
   67.5227   78.1509   88.3890 C   0  0  0  0  0  0  0  0  0  0  0  0
   66.6497   78.8407   87.5455 C   0  0  0  0  0  0  0  0  0  0  0  0
   66.6448   80.2367   87.5271 C   0  0  0  0  0  0  0  0  0  0  0  0
   67.5220   80.9587   88.3574 C   0  0  0  0  0  0  0  0  0  0  0  0
   68.3895   80.2607   89.2066 C   0  0  0  0  0  0  0  0  0  0  0  0
   67.5675   82.3623   88.3724 O   0  0  0  0  0  0  0  0  0  0  0  0
   67.7319   83.1950   87.2238 C   0  0  0  0  0  0  0  0  0  0  0  0
   68.9504   84.0684   87.3657 C   0  0  0  0  0  0  0  0  0  0  0  0
   68.8186   85.4561   87.5397 C   0  0  0  0  0  0  0  0  0  0  0  0
   69.9544   86.2598   87.6788 C   0  0  0  0  0  0  0  0  0  0  0  0
   71.2288   85.6839   87.6542 C   0  0  0  0  0  0  0  0  0  0  0  0
   72.6522   86.6939   87.8283 Cl  0  0  0  0  0  0  0  0  0  0  0  0
   71.3665   84.3013   87.4943 C   0  0  0  0  0  0  0  0  0  0  0  0
   70.2327   83.4953   87.3549 C   0  0  0  0  0  0  0  0  0  0  0  0
   69.2026   75.3789   92.7822 C   0  0  0  0  0  0  0  0  0  0  0  0
   70.2203   74.4320   93.1120 O   0  0  0  0  0  0  0  0  0  0  0  0
   70.5043   70.7268   93.6201 C   0  0  0  0  0  0  0  0  0  0  0  0
   70.5940   72.1110   93.8633 C   0  0  0  0  0  0  0  0  0  0  0  0
   70.1345   73.0439   92.9143 C   0  0  0  0  0  0  0  0  0  0  0  0
   69.5695   72.5831   91.7236 C   0  0  0  0  0  0  0  0  0  0  0  0
   69.4698   71.2159   91.4691 C   0  0  0  0  0  0  0  0  0  0  0  0
   69.9341   70.2821   92.4051 C   0  0  0  0  0  0  0  0  0  0  0  0
   69.8265   68.9202   92.1225 O   0  0  0  0  0  0  0  0  0  0  0  0
   69.4467   68.6381   91.3137 H   0  0  0  0  0  0  0  0  0  0  0  0
   72.1789   69.8846   95.1061 O   0  0  0  0  0  0  0  0  0  0  0  0
   71.0115   69.7764   94.6436 C   0  0  0  0  0  0  0  0  0  0  0  0
   70.1952   68.7475   95.1077 O   0  0  0  0  0  0  0  0  0  0  0  0
   69.3247   68.6533   94.7739 H   0  0  0  0  0  0  0  0  0  0  0  0
  1  2  2  0  0  0  0
  2  3  1  0  0  0  0
  3  4  2  0  0  0  0
  4  5  1  0  0  0  0
  5  7  1  0  0  0  0
  5  6  2  0  0  0  0
  6  1  1  0  0  0  0
  7  8  2  0  0  0  0
  8  9  1  0  0  0  0
  9 10  2  0  0  0  0
 10 11  1  0  0  0  0
 11 13  1  0  0  0  0
 11 12  2  0  0  0  0
 12  7  1  0  0  0  0
 13 14  1  0  0  0  0
 14 15  1  0  0  0  0
 15 16  2  0  0  0  0
 16 17  1  0  0  0  0
 17 18  2  0  0  0  0
 18 19  1  0  0  0  0
 18 20  1  0  0  0  0
 20 21  2  0  0  0  0
 21 15  1  0  0  0  0
 22  1  1  0  0  0  0
 23 22  1  0  0  0  0
 24 25  2  0  0  0  0
 25 26  1  0  0  0  0
 26 23  1  0  0  0  0
 26 27  2  0  0  0  0
 27 28  1  0  0  0  0
 28 29  2  0  0  0  0
 29 30  1  0  0  0  0
 29 24  1  0  0  0  0
 30 31  1  0  0  0  0
 32 33  2  0  0  0  0
 33 34  1  0  0  0  0
 33 24  1  0  0  0  0
 34 35  1  0  0  0  0
M  END
>  <Activity>
5.3

>  <minimizedAffinity>
-9.60359

>  <RFScoreVS_v2>
5.98741985403

$$$$
HIPS6998
 OpenBabel05252300073D

 35 38  0  0  0  0  0  0  0  0999 V2000
   69.9751   78.6633   90.6180 C   0  0  0  0  0  0  0  0  0  0  0  0
   68.5812   78.8111   90.5631 C   0  0  0  0  0  0  0  0  0  0  0  0
   68.0183   80.0271   90.1718 C   0  0  0  0  0  0  0  0  0  0  0  0
   68.8392   81.1025   89.8244 C   0  0  0  0  0  0  0  0  0  0  0  0
   70.2388   80.9703   89.8583 C   0  0  0  0  0  0  0  0  0  0  0  0
   70.7981   79.7404   90.2510 C   0  0  0  0  0  0  0  0  0  0  0  0
   71.1133   82.1127   89.4902 C   0  0  0  0  0  0  0  0  0  0  0  0
   72.3911   82.2468   90.0608 C   0  0  0  0  0  0  0  0  0  0  0  0
   73.2096   83.3237   89.7147 C   0  0  0  0  0  0  0  0  0  0  0  0
   72.7648   84.2806   88.8006 C   0  0  0  0  0  0  0  0  0  0  0  0
   71.4864   84.1677   88.2233 C   0  0  0  0  0  0  0  0  0  0  0  0
   70.6737   83.0810   88.5689 C   0  0  0  0  0  0  0  0  0  0  0  0
   70.9836   85.1059   87.3072 O   0  0  0  0  0  0  0  0  0  0  0  0
   69.6852   85.6983   87.3612 C   0  0  0  0  0  0  0  0  0  0  0  0
   69.5165   86.5042   88.6220 C   0  0  0  0  0  0  0  0  0  0  0  0
   70.0178   87.8138   88.7055 C   0  0  0  0  0  0  0  0  0  0  0  0
   69.8505   88.5590   89.8769 C   0  0  0  0  0  0  0  0  0  0  0  0
   69.1743   88.0064   90.9695 C   0  0  0  0  0  0  0  0  0  0  0  0
   68.9659   88.9425   92.4381 Cl  0  0  0  0  0  0  0  0  0  0  0  0
   68.6615   86.7077   90.8883 C   0  0  0  0  0  0  0  0  0  0  0  0
   68.8273   85.9603   89.7184 C   0  0  0  0  0  0  0  0  0  0  0  0
   70.5880   77.3542   91.0427 C   0  0  0  0  0  0  0  0  0  0  0  0
   69.9357   76.8385   92.2044 O   0  0  0  0  0  0  0  0  0  0  0  0
   67.5587   74.1770   93.3594 C   0  0  0  0  0  0  0  0  0  0  0  0
   68.3377   75.3502   93.3544 C   0  0  0  0  0  0  0  0  0  0  0  0
   69.1330   75.6863   92.2425 C   0  0  0  0  0  0  0  0  0  0  0  0
   69.1334   74.8477   91.1261 C   0  0  0  0  0  0  0  0  0  0  0  0
   68.3649   73.6844   91.1135 C   0  0  0  0  0  0  0  0  0  0  0  0
   67.5786   73.3389   92.2207 C   0  0  0  0  0  0  0  0  0  0  0  0
   66.8233   72.1666   92.1831 O   0  0  0  0  0  0  0  0  0  0  0  0
   66.8449   71.6196   91.4227 H   0  0  0  0  0  0  0  0  0  0  0  0
   65.4891   73.9878   94.5437 O   0  0  0  0  0  0  0  0  0  0  0  0
   66.7422   73.8538   94.5580 C   0  0  0  0  0  0  0  0  0  0  0  0
   67.3578   73.3941   95.7200 O   0  0  0  0  0  0  0  0  0  0  0  0
   68.2885   73.2889   95.7469 H   0  0  0  0  0  0  0  0  0  0  0  0
  1  2  2  0  0  0  0
  2  3  1  0  0  0  0
  3  4  2  0  0  0  0
  4  5  1  0  0  0  0
  5  7  1  0  0  0  0
  5  6  2  0  0  0  0
  6  1  1  0  0  0  0
  7  8  2  0  0  0  0
  8  9  1  0  0  0  0
  9 10  2  0  0  0  0
 10 11  1  0  0  0  0
 11 13  1  0  0  0  0
 11 12  2  0  0  0  0
 12  7  1  0  0  0  0
 13 14  1  0  0  0  0
 14 15  1  0  0  0  0
 15 16  2  0  0  0  0
 16 17  1  0  0  0  0
 17 18  2  0  0  0  0
 18 19  1  0  0  0  0
 18 20  1  0  0  0  0
 20 21  2  0  0  0  0
 21 15  1  0  0  0  0
 22  1  1  0  0  0  0
 23 22  1  0  0  0  0
 24 25  2  0  0  0  0
 25 26  1  0  0  0  0
 26 23  1  0  0  0  0
 26 27  2  0  0  0  0
 27 28  1  0  0  0  0
 28 29  2  0  0  0  0
 29 30  1  0  0  0  0
 29 24  1  0  0  0  0
 30 31  1  0  0  0  0
 32 33  2  0  0  0  0
 33 34  1  0  0  0  0
 33 24  1  0  0  0  0
 34 35  1  0  0  0  0
M  END
>  <Activity>
5.3

>  <minimizedAffinity>
-9.48248

>  <RFScoreVS_v2>
5.99551265764

$$$$
HIPS6998
 OpenBabel05252300073D

 35 38  0  0  0  0  0  0  0  0999 V2000
   69.8822   78.7410   90.4741 C   0  0  0  0  0  0  0  0  0  0  0  0
   68.4960   78.9451   90.5427 C   0  0  0  0  0  0  0  0  0  0  0  0
   67.9558   80.2012   90.2617 C   0  0  0  0  0  0  0  0  0  0  0  0
   68.7911   81.2614   89.9024 C   0  0  0  0  0  0  0  0  0  0  0  0
   70.1820   81.0739   89.8132 C   0  0  0  0  0  0  0  0  0  0  0  0
   70.7181   79.8040   90.0951 C   0  0  0  0  0  0  0  0  0  0  0  0
   71.0718   82.2001   89.4321 C   0  0  0  0  0  0  0  0  0  0  0  0
   72.3446   82.3330   90.0139 C   0  0  0  0  0  0  0  0  0  0  0  0
   73.1776   83.3946   89.6556 C   0  0  0  0  0  0  0  0  0  0  0  0
   72.7523   84.3374   88.7178 C   0  0  0  0  0  0  0  0  0  0  0  0
   71.4793   84.2255   88.1288 C   0  0  0  0  0  0  0  0  0  0  0  0
   70.6519   83.1541   88.4869 C   0  0  0  0  0  0  0  0  0  0  0  0
   70.9959   85.1502   87.1887 O   0  0  0  0  0  0  0  0  0  0  0  0
   69.7150   85.7803   87.2340 C   0  0  0  0  0  0  0  0  0  0  0  0
   69.5492   86.5649   88.5086 C   0  0  0  0  0  0  0  0  0  0  0  0
   68.8216   86.0327   89.5859 C   0  0  0  0  0  0  0  0  0  0  0  0
   68.6785   86.7638   90.7692 C   0  0  0  0  0  0  0  0  0  0  0  0
   69.2676   88.0267   90.8894 C   0  0  0  0  0  0  0  0  0  0  0  0
   69.0866   88.9424   92.3744 Cl  0  0  0  0  0  0  0  0  0  0  0  0
   70.0043   88.5568   89.8253 C   0  0  0  0  0  0  0  0  0  0  0  0
   70.1490   87.8282   88.6409 C   0  0  0  0  0  0  0  0  0  0  0  0
   70.4709   77.3883   90.7794 C   0  0  0  0  0  0  0  0  0  0  0  0
   70.5810   77.1862   92.1894 O   0  0  0  0  0  0  0  0  0  0  0  0
   69.1969   73.8414   93.1715 C   0  0  0  0  0  0  0  0  0  0  0  0
   69.8414   74.8429   92.4199 C   0  0  0  0  0  0  0  0  0  0  0  0
   69.9597   76.1557   92.9143 C   0  0  0  0  0  0  0  0  0  0  0  0
   69.4414   76.4588   94.1748 C   0  0  0  0  0  0  0  0  0  0  0  0
   68.8036   75.4779   94.9333 C   0  0  0  0  0  0  0  0  0  0  0  0
   68.6739   74.1716   94.4431 C   0  0  0  0  0  0  0  0  0  0  0  0
   68.0268   73.2112   95.2209 O   0  0  0  0  0  0  0  0  0  0  0  0
   67.6845   73.4425   96.0619 H   0  0  0  0  0  0  0  0  0  0  0  0
   69.3468   71.4581   93.3097 O   0  0  0  0  0  0  0  0  0  0  0  0
   69.0838   72.4713   92.6077 C   0  0  0  0  0  0  0  0  0  0  0  0
   68.6814   72.2901   91.2865 O   0  0  0  0  0  0  0  0  0  0  0  0
   68.4822   73.0330   90.7513 H   0  0  0  0  0  0  0  0  0  0  0  0
  1  2  2  0  0  0  0
  2  3  1  0  0  0  0
  3  4  2  0  0  0  0
  4  5  1  0  0  0  0
  5  7  1  0  0  0  0
  5  6  2  0  0  0  0
  6  1  1  0  0  0  0
  7  8  2  0  0  0  0
  8  9  1  0  0  0  0
  9 10  2  0  0  0  0
 10 11  1  0  0  0  0
 11 13  1  0  0  0  0
 11 12  2  0  0  0  0
 12  7  1  0  0  0  0
 13 14  1  0  0  0  0
 14 15  1  0  0  0  0
 15 16  2  0  0  0  0
 16 17  1  0  0  0  0
 17 18  2  0  0  0  0
 18 19  1  0  0  0  0
 18 20  1  0  0  0  0
 20 21  2  0  0  0  0
 21 15  1  0  0  0  0
 22  1  1  0  0  0  0
 23 22  1  0  0  0  0
 24 25  2  0  0  0  0
 25 26  1  0  0  0  0
 26 23  1  0  0  0  0
 26 27  2  0  0  0  0
 27 28  1  0  0  0  0
 28 29  2  0  0  0  0
 29 30  1  0  0  0  0
 29 24  1  0  0  0  0
 30 31  1  0  0  0  0
 32 33  2  0  0  0  0
 33 34  1  0  0  0  0
 33 24  1  0  0  0  0
 34 35  1  0  0  0  0
M  END
>  <Activity>
5.3

>  <minimizedAffinity>
-9.26078

>  <RFScoreVS_v2>
6.00518410986

$$$$
HIPS6998
 OpenBabel05252300073D

 35 38  0  0  0  0  0  0  0  0999 V2000
   67.6079   79.2648   88.9358 C   0  0  0  0  0  0  0  0  0  0  0  0
   67.1919   79.3833   87.6014 C   0  0  0  0  0  0  0  0  0  0  0  0
   66.9598   78.2409   86.8334 C   0  0  0  0  0  0  0  0  0  0  0  0
   67.1324   76.9719   87.3909 C   0  0  0  0  0  0  0  0  0  0  0  0
   67.5344   76.8313   88.7311 C   0  0  0  0  0  0  0  0  0  0  0  0
   67.7634   77.9878   89.4991 C   0  0  0  0  0  0  0  0  0  0  0  0
   67.7193   75.4830   89.3254 C   0  0  0  0  0  0  0  0  0  0  0  0
   67.0732   74.3638   88.7719 C   0  0  0  0  0  0  0  0  0  0  0  0
   67.2467   73.0980   89.3349 C   0  0  0  0  0  0  0  0  0  0  0  0
   68.0615   72.9322   90.4564 C   0  0  0  0  0  0  0  0  0  0  0  0
   68.7119   74.0409   91.0290 C   0  0  0  0  0  0  0  0  0  0  0  0
   68.5396   75.3064   90.4548 C   0  0  0  0  0  0  0  0  0  0  0  0
   69.5339   73.9344   92.1628 O   0  0  0  0  0  0  0  0  0  0  0  0
   69.1074   74.1249   93.5124 C   0  0  0  0  0  0  0  0  0  0  0  0
   68.1202   75.2582   93.6069 C   0  0  0  0  0  0  0  0  0  0  0  0
   68.5555   76.5923   93.5435 C   0  0  0  0  0  0  0  0  0  0  0  0
   67.6322   77.6393   93.6240 C   0  0  0  0  0  0  0  0  0  0  0  0
   66.2677   77.3628   93.7593 C   0  0  0  0  0  0  0  0  0  0  0  0
   65.1112   78.6776   93.8606 Cl  0  0  0  0  0  0  0  0  0  0  0  0
   65.8265   76.0366   93.8100 C   0  0  0  0  0  0  0  0  0  0  0  0
   66.7474   74.9877   93.7298 C   0  0  0  0  0  0  0  0  0  0  0  0
   67.8628   80.4943   89.7682 C   0  0  0  0  0  0  0  0  0  0  0  0
   69.2643   80.7176   89.9326 O   0  0  0  0  0  0  0  0  0  0  0  0
   70.1554   83.8706   88.1072 C   0  0  0  0  0  0  0  0  0  0  0  0
   69.4083   82.7698   88.5692 C   0  0  0  0  0  0  0  0  0  0  0  0
   69.9704   81.8366   89.4609 C   0  0  0  0  0  0  0  0  0  0  0  0
   71.2829   82.0192   89.9010 C   0  0  0  0  0  0  0  0  0  0  0  0
   72.0348   83.1058   89.4561 C   0  0  0  0  0  0  0  0  0  0  0  0
   71.4847   84.0330   88.5609 C   0  0  0  0  0  0  0  0  0  0  0  0
   72.2611   85.1082   88.1281 O   0  0  0  0  0  0  0  0  0  0  0  0
   73.1407   85.2048   88.4361 H   0  0  0  0  0  0  0  0  0  0  0  0
   68.3811   85.3000   87.3790 O   0  0  0  0  0  0  0  0  0  0  0  0
   69.5276   84.8258   87.1578 C   0  0  0  0  0  0  0  0  0  0  0  0
   70.2056   85.2117   86.0037 O   0  0  0  0  0  0  0  0  0  0  0  0
   71.0588   84.8683   85.8246 H   0  0  0  0  0  0  0  0  0  0  0  0
  1  2  2  0  0  0  0
  2  3  1  0  0  0  0
  3  4  2  0  0  0  0
  4  5  1  0  0  0  0
  5  7  1  0  0  0  0
  5  6  2  0  0  0  0
  6  1  1  0  0  0  0
  7  8  2  0  0  0  0
  8  9  1  0  0  0  0
  9 10  2  0  0  0  0
 10 11  1  0  0  0  0
 11 13  1  0  0  0  0
 11 12  2  0  0  0  0
 12  7  1  0  0  0  0
 13 14  1  0  0  0  0
 14 15  1  0  0  0  0
 15 16  2  0  0  0  0
 16 17  1  0  0  0  0
 17 18  2  0  0  0  0
 18 19  1  0  0  0  0
 18 20  1  0  0  0  0
 20 21  2  0  0  0  0
 21 15  1  0  0  0  0
 22  1  1  0  0  0  0
 23 22  1  0  0  0  0
 24 25  2  0  0  0  0
 25 26  1  0  0  0  0
 26 23  1  0  0  0  0
 26 27  2  0  0  0  0
 27 28  1  0  0  0  0
 28 29  2  0  0  0  0
 29 30  1  0  0  0  0
 29 24  1  0  0  0  0
 30 31  1  0  0  0  0
 32 33  2  0  0  0  0
 33 34  1  0  0  0  0
 33 24  1  0  0  0  0
 34 35  1  0  0  0  0
M  END
>  <Activity>
5.3

>  <minimizedAffinity>
-9.25084

>  <RFScoreVS_v2>
6.01445009349

$$$$
HIPS6998
 OpenBabel05252300073D

 35 38  0  0  0  0  0  0  0  0999 V2000
   68.5971   77.7703   90.6067 C   0  0  0  0  0  0  0  0  0  0  0  0
   69.9332   77.3505   90.5259 C   0  0  0  0  0  0  0  0  0  0  0  0
   70.9548   78.2862   90.3542 C   0  0  0  0  0  0  0  0  0  0  0  0
   70.6543   79.6477   90.2699 C   0  0  0  0  0  0  0  0  0  0  0  0
   69.3229   80.0905   90.3636 C   0  0  0  0  0  0  0  0  0  0  0  0
   68.2994   79.1411   90.5395 C   0  0  0  0  0  0  0  0  0  0  0  0
   69.0013   81.5375   90.2733 C   0  0  0  0  0  0  0  0  0  0  0  0
   68.4635   82.2198   91.3785 C   0  0  0  0  0  0  0  0  0  0  0  0
   68.1595   83.5796   91.2894 C   0  0  0  0  0  0  0  0  0  0  0  0
   68.3835   84.2744   90.0993 C   0  0  0  0  0  0  0  0  0  0  0  0
   68.9151   83.6079   88.9798 C   0  0  0  0  0  0  0  0  0  0  0  0
   69.2249   82.2458   89.0784 C   0  0  0  0  0  0  0  0  0  0  0  0
   69.1507   84.2538   87.7552 O   0  0  0  0  0  0  0  0  0  0  0  0
   68.9371   85.6427   87.5001 C   0  0  0  0  0  0  0  0  0  0  0  0
   70.1335   86.4544   87.9212 C   0  0  0  0  0  0  0  0  0  0  0  0
   71.4346   85.9571   87.7389 C   0  0  0  0  0  0  0  0  0  0  0  0
   72.5410   86.7199   88.1252 C   0  0  0  0  0  0  0  0  0  0  0  0
   72.3577   87.9874   88.6875 C   0  0  0  0  0  0  0  0  0  0  0  0
   73.7469   88.9425   89.1719 Cl  0  0  0  0  0  0  0  0  0  0  0  0
   71.0654   88.4938   88.8598 C   0  0  0  0  0  0  0  0  0  0  0  0
   69.9573   87.7334   88.4746 C   0  0  0  0  0  0  0  0  0  0  0  0
   67.4904   76.7645   90.7887 C   0  0  0  0  0  0  0  0  0  0  0  0
   66.8794   76.9049   92.0724 O   0  0  0  0  0  0  0  0  0  0  0  0
   68.1220   74.2542   94.4172 C   0  0  0  0  0  0  0  0  0  0  0  0
   68.1005   75.2003   93.3742 C   0  0  0  0  0  0  0  0  0  0  0  0
   66.9464   75.9629   93.1124 C   0  0  0  0  0  0  0  0  0  0  0  0
   65.8154   75.7842   93.9114 C   0  0  0  0  0  0  0  0  0  0  0  0
   65.8215   74.8543   94.9503 C   0  0  0  0  0  0  0  0  0  0  0  0
   66.9636   74.0850   95.2102 C   0  0  0  0  0  0  0  0  0  0  0  0
   66.9404   73.1584   96.2527 O   0  0  0  0  0  0  0  0  0  0  0  0
   66.1666   73.0557   96.7711 H   0  0  0  0  0  0  0  0  0  0  0  0
   69.5411   72.8576   95.7428 O   0  0  0  0  0  0  0  0  0  0  0  0
   69.3570   73.4621   94.6523 C   0  0  0  0  0  0  0  0  0  0  0  0
   70.3324   73.3774   93.6615 O   0  0  0  0  0  0  0  0  0  0  0  0
   70.2107   73.8210   92.8451 H   0  0  0  0  0  0  0  0  0  0  0  0
  1  2  2  0  0  0  0
  2  3  1  0  0  0  0
  3  4  2  0  0  0  0
  4  5  1  0  0  0  0
  5  7  1  0  0  0  0
  5  6  2  0  0  0  0
  6  1  1  0  0  0  0
  7  8  2  0  0  0  0
  8  9  1  0  0  0  0
  9 10  2  0  0  0  0
 10 11  1  0  0  0  0
 11 13  1  0  0  0  0
 11 12  2  0  0  0  0
 12  7  1  0  0  0  0
 13 14  1  0  0  0  0
 14 15  1  0  0  0  0
 15 16  2  0  0  0  0
 16 17  1  0  0  0  0
 17 18  2  0  0  0  0
 18 19  1  0  0  0  0
 18 20  1  0  0  0  0
 20 21  2  0  0  0  0
 21 15  1  0  0  0  0
 22  1  1  0  0  0  0
 23 22  1  0  0  0  0
 24 25  2  0  0  0  0
 25 26  1  0  0  0  0
 26 23  1  0  0  0  0
 26 27  2  0  0  0  0
 27 28  1  0  0  0  0
 28 29  2  0  0  0  0
 29 30  1  0  0  0  0
 29 24  1  0  0  0  0
 30 31  1  0  0  0  0
 32 33  2  0  0  0  0
 33 34  1  0  0  0  0
 33 24  1  0  0  0  0
 34 35  1  0  0  0  0
M  END
>  <Activity>
5.3

>  <minimizedAffinity>
-9.21665

>  <RFScoreVS_v2>
6.01611515947

$$$$
HIPS6998
 OpenBabel05252300073D

 35 38  0  0  0  0  0  0  0  0999 V2000
   70.0316   78.6664   90.5736 C   0  0  0  0  0  0  0  0  0  0  0  0
   68.6464   78.8219   90.7317 C   0  0  0  0  0  0  0  0  0  0  0  0
   68.0434   80.0540   90.4729 C   0  0  0  0  0  0  0  0  0  0  0  0
   68.8140   81.1383   90.0470 C   0  0  0  0  0  0  0  0  0  0  0  0
   70.2019   80.9992   89.8679 C   0  0  0  0  0  0  0  0  0  0  0  0
   70.8014   79.7532   90.1281 C   0  0  0  0  0  0  0  0  0  0  0  0
   71.0230   82.1511   89.4159 C   0  0  0  0  0  0  0  0  0  0  0  0
   72.2599   82.4285   90.0237 C   0  0  0  0  0  0  0  0  0  0  0  0
   73.0282   83.5140   89.5984 C   0  0  0  0  0  0  0  0  0  0  0  0
   72.5729   84.3373   88.5669 C   0  0  0  0  0  0  0  0  0  0  0  0
   71.3345   84.0801   87.9500 C   0  0  0  0  0  0  0  0  0  0  0  0
   70.5726   82.9853   88.3763 C   0  0  0  0  0  0  0  0  0  0  0  0
   70.8227   84.8808   86.9159 O   0  0  0  0  0  0  0  0  0  0  0  0
   69.9201   85.9742   87.0883 C   0  0  0  0  0  0  0  0  0  0  0  0
   69.0583   85.7700   88.3062 C   0  0  0  0  0  0  0  0  0  0  0  0
   67.8860   84.9996   88.2312 C   0  0  0  0  0  0  0  0  0  0  0  0
   67.0949   84.8079   89.3681 C   0  0  0  0  0  0  0  0  0  0  0  0
   67.4723   85.3756   90.5894 C   0  0  0  0  0  0  0  0  0  0  0  0
   66.4783   85.1343   92.0143 Cl  0  0  0  0  0  0  0  0  0  0  0  0
   68.6451   86.1330   90.6739 C   0  0  0  0  0  0  0  0  0  0  0  0
   69.4380   86.3264   89.5387 C   0  0  0  0  0  0  0  0  0  0  0  0
   70.6881   77.3398   90.8546 C   0  0  0  0  0  0  0  0  0  0  0  0
   70.6665   77.0458   92.2525 O   0  0  0  0  0  0  0  0  0  0  0  0
   68.6244   73.9590   92.8603 C   0  0  0  0  0  0  0  0  0  0  0  0
   69.4513   74.8979   92.2139 C   0  0  0  0  0  0  0  0  0  0  0  0
   69.8555   76.0775   92.8675 C   0  0  0  0  0  0  0  0  0  0  0  0
   69.4390   76.3065   94.1803 C   0  0  0  0  0  0  0  0  0  0  0  0
   68.6232   75.3852   94.8358 C   0  0  0  0  0  0  0  0  0  0  0  0
   68.2093   74.2137   94.1878 C   0  0  0  0  0  0  0  0  0  0  0  0
   67.3891   73.3115   94.8655 O   0  0  0  0  0  0  0  0  0  0  0  0
   67.1208   73.4917   95.7450 H   0  0  0  0  0  0  0  0  0  0  0  0
   69.0340   72.0934   91.4204 O   0  0  0  0  0  0  0  0  0  0  0  0
   68.2117   72.7323   92.1304 C   0  0  0  0  0  0  0  0  0  0  0  0
   66.9009   72.2705   92.2245 O   0  0  0  0  0  0  0  0  0  0  0  0
   66.2773   72.7340   92.7482 H   0  0  0  0  0  0  0  0  0  0  0  0
  1  2  2  0  0  0  0
  2  3  1  0  0  0  0
  3  4  2  0  0  0  0
  4  5  1  0  0  0  0
  5  7  1  0  0  0  0
  5  6  2  0  0  0  0
  6  1  1  0  0  0  0
  7  8  2  0  0  0  0
  8  9  1  0  0  0  0
  9 10  2  0  0  0  0
 10 11  1  0  0  0  0
 11 13  1  0  0  0  0
 11 12  2  0  0  0  0
 12  7  1  0  0  0  0
 13 14  1  0  0  0  0
 14 15  1  0  0  0  0
 15 16  2  0  0  0  0
 16 17  1  0  0  0  0
 17 18  2  0  0  0  0
 18 19  1  0  0  0  0
 18 20  1  0  0  0  0
 20 21  2  0  0  0  0
 21 15  1  0  0  0  0
 22  1  1  0  0  0  0
 23 22  1  0  0  0  0
 24 25  2  0  0  0  0
 25 26  1  0  0  0  0
 26 23  1  0  0  0  0
 26 27  2  0  0  0  0
 27 28  1  0  0  0  0
 28 29  2  0  0  0  0
 29 30  1  0  0  0  0
 29 24  1  0  0  0  0
 30 31  1  0  0  0  0
 32 33  2  0  0  0  0
 33 34  1  0  0  0  0
 33 24  1  0  0  0  0
 34 35  1  0  0  0  0
M  END
>  <Activity>
5.3

>  <minimizedAffinity>
-9.20491

>  <RFScoreVS_v2>
5.99265140775

$$$$
HIPS6998
 OpenBabel05252300073D

 35 38  0  0  0  0  0  0  0  0999 V2000
   67.4432   75.2976   89.1795 C   0  0  0  0  0  0  0  0  0  0  0  0
   66.6794   74.5621   88.2610 C   0  0  0  0  0  0  0  0  0  0  0  0
   66.6804   73.1669   88.3038 C   0  0  0  0  0  0  0  0  0  0  0  0
   67.4357   72.4936   89.2667 C   0  0  0  0  0  0  0  0  0  0  0  0
   68.1965   73.2123   90.2060 C   0  0  0  0  0  0  0  0  0  0  0  0
   68.1876   74.6185   90.1578 C   0  0  0  0  0  0  0  0  0  0  0  0
   69.0008   72.4983   91.2299 C   0  0  0  0  0  0  0  0  0  0  0  0
   69.4300   71.1782   91.0079 C   0  0  0  0  0  0  0  0  0  0  0  0
   70.1836   70.5087   91.9740 C   0  0  0  0  0  0  0  0  0  0  0  0
   70.5151   71.1433   93.1725 C   0  0  0  0  0  0  0  0  0  0  0  0
   70.0895   72.4623   93.4164 C   0  0  0  0  0  0  0  0  0  0  0  0
   69.3406   73.1306   92.4401 C   0  0  0  0  0  0  0  0  0  0  0  0
   70.3845   73.1452   94.6076 O   0  0  0  0  0  0  0  0  0  0  0  0
   69.4184   73.6781   95.5145 C   0  0  0  0  0  0  0  0  0  0  0  0
   68.6615   74.8162   94.8825 C   0  0  0  0  0  0  0  0  0  0  0  0
   69.3403   75.9540   94.4158 C   0  0  0  0  0  0  0  0  0  0  0  0
   68.6316   77.0035   93.8228 C   0  0  0  0  0  0  0  0  0  0  0  0
   67.2423   76.9214   93.6833 C   0  0  0  0  0  0  0  0  0  0  0  0
   66.3551   78.2392   92.9397 Cl  0  0  0  0  0  0  0  0  0  0  0  0
   66.5619   75.7857   94.1341 C   0  0  0  0  0  0  0  0  0  0  0  0
   67.2678   74.7349   94.7274 C   0  0  0  0  0  0  0  0  0  0  0  0
   67.4482   76.8035   89.1358 C   0  0  0  0  0  0  0  0  0  0  0  0
   68.1516   77.3440   90.2557 O   0  0  0  0  0  0  0  0  0  0  0  0
   69.5329   80.8187   89.9613 C   0  0  0  0  0  0  0  0  0  0  0  0
   68.6086   79.7576   90.0163 C   0  0  0  0  0  0  0  0  0  0  0  0
   69.0397   78.4315   90.2105 C   0  0  0  0  0  0  0  0  0  0  0  0
   70.4032   78.1736   90.3648 C   0  0  0  0  0  0  0  0  0  0  0  0
   71.3309   79.2133   90.3166 C   0  0  0  0  0  0  0  0  0  0  0  0
   70.9095   80.5342   90.1139 C   0  0  0  0  0  0  0  0  0  0  0  0
   71.8596   81.5545   90.0649 O   0  0  0  0  0  0  0  0  0  0  0  0
   72.7690   81.3532   90.1674 H   0  0  0  0  0  0  0  0  0  0  0  0
   69.5461   82.9416   88.8593 O   0  0  0  0  0  0  0  0  0  0  0  0
   69.0364   82.2022   89.7435 C   0  0  0  0  0  0  0  0  0  0  0  0
   67.9928   82.7008   90.5198 O   0  0  0  0  0  0  0  0  0  0  0  0
   67.6031   82.1638   91.1814 H   0  0  0  0  0  0  0  0  0  0  0  0
  1  2  2  0  0  0  0
  2  3  1  0  0  0  0
  3  4  2  0  0  0  0
  4  5  1  0  0  0  0
  5  7  1  0  0  0  0
  5  6  2  0  0  0  0
  6  1  1  0  0  0  0
  7  8  2  0  0  0  0
  8  9  1  0  0  0  0
  9 10  2  0  0  0  0
 10 11  1  0  0  0  0
 11 13  1  0  0  0  0
 11 12  2  0  0  0  0
 12  7  1  0  0  0  0
 13 14  1  0  0  0  0
 14 15  1  0  0  0  0
 15 16  2  0  0  0  0
 16 17  1  0  0  0  0
 17 18  2  0  0  0  0
 18 19  1  0  0  0  0
 18 20  1  0  0  0  0
 20 21  2  0  0  0  0
 21 15  1  0  0  0  0
 22  1  1  0  0  0  0
 23 22  1  0  0  0  0
 24 25  2  0  0  0  0
 25 26  1  0  0  0  0
 26 23  1  0  0  0  0
 26 27  2  0  0  0  0
 27 28  1  0  0  0  0
 28 29  2  0  0  0  0
 29 30  1  0  0  0  0
 29 24  1  0  0  0  0
 30 31  1  0  0  0  0
 32 33  2  0  0  0  0
 33 34  1  0  0  0  0
 33 24  1  0  0  0  0
 34 35  1  0  0  0  0
M  END
>  <Activity>
5.3

>  <minimizedAffinity>
-9.15577

>  <RFScoreVS_v2>
6.00153990977

$$$$
HIPS6998
 OpenBabel05252300073D

 35 38  0  0  0  0  0  0  0  0999 V2000
   67.3587   75.6376   88.6862 C   0  0  0  0  0  0  0  0  0  0  0  0
   66.9373   75.4553   87.3607 C   0  0  0  0  0  0  0  0  0  0  0  0
   66.8217   76.5505   86.5030 C   0  0  0  0  0  0  0  0  0  0  0  0
   67.1327   77.8345   86.9563 C   0  0  0  0  0  0  0  0  0  0  0  0
   67.5713   78.0369   88.2771 C   0  0  0  0  0  0  0  0  0  0  0  0
   67.6880   76.9272   89.1342 C   0  0  0  0  0  0  0  0  0  0  0  0
   67.9017   79.4013   88.7612 C   0  0  0  0  0  0  0  0  0  0  0  0
   68.6508   79.5799   89.9373 C   0  0  0  0  0  0  0  0  0  0  0  0
   68.9572   80.8641   90.3914 C   0  0  0  0  0  0  0  0  0  0  0  0
   68.5187   81.9844   89.6830 C   0  0  0  0  0  0  0  0  0  0  0  0
   67.7622   81.8268   88.5069 C   0  0  0  0  0  0  0  0  0  0  0  0
   67.4650   80.5359   88.0529 C   0  0  0  0  0  0  0  0  0  0  0  0
   67.2862   82.9173   87.7608 O   0  0  0  0  0  0  0  0  0  0  0  0
   67.9351   83.4842   86.6218 C   0  0  0  0  0  0  0  0  0  0  0  0
   69.1379   84.2895   87.0366 C   0  0  0  0  0  0  0  0  0  0  0  0
   70.4268   83.7345   86.9715 C   0  0  0  0  0  0  0  0  0  0  0  0
   71.5398   84.4911   87.3509 C   0  0  0  0  0  0  0  0  0  0  0  0
   71.3760   85.8092   87.7893 C   0  0  0  0  0  0  0  0  0  0  0  0
   72.7733   86.7564   88.2652 Cl  0  0  0  0  0  0  0  0  0  0  0  0
   70.0968   86.3721   87.8441 C   0  0  0  0  0  0  0  0  0  0  0  0
   68.9821   85.6180   87.4655 C   0  0  0  0  0  0  0  0  0  0  0  0
   67.4822   74.4595   89.6171 C   0  0  0  0  0  0  0  0  0  0  0  0
   68.7705   74.4294   90.2339 O   0  0  0  0  0  0  0  0  0  0  0  0
   69.1327   74.4042   93.9670 C   0  0  0  0  0  0  0  0  0  0  0  0
   68.8556   73.9680   92.6569 C   0  0  0  0  0  0  0  0  0  0  0  0
   69.0497   74.8209   91.5538 C   0  0  0  0  0  0  0  0  0  0  0  0
   69.5381   76.1114   91.7674 C   0  0  0  0  0  0  0  0  0  0  0  0
   69.8210   76.5574   93.0578 C   0  0  0  0  0  0  0  0  0  0  0  0
   69.6209   75.7170   94.1611 C   0  0  0  0  0  0  0  0  0  0  0  0
   69.9074   76.1908   95.4415 O   0  0  0  0  0  0  0  0  0  0  0  0
   70.2305   77.0627   95.5570 H   0  0  0  0  0  0  0  0  0  0  0  0
   67.8866   73.5916   95.8400 O   0  0  0  0  0  0  0  0  0  0  0  0
   68.9032   73.4758   95.1042 C   0  0  0  0  0  0  0  0  0  0  0  0
   69.8161   72.4581   95.3710 O   0  0  0  0  0  0  0  0  0  0  0  0
   70.5771   72.3585   94.8334 H   0  0  0  0  0  0  0  0  0  0  0  0
  1  2  2  0  0  0  0
  2  3  1  0  0  0  0
  3  4  2  0  0  0  0
  4  5  1  0  0  0  0
  5  7  1  0  0  0  0
  5  6  2  0  0  0  0
  6  1  1  0  0  0  0
  7  8  2  0  0  0  0
  8  9  1  0  0  0  0
  9 10  2  0  0  0  0
 10 11  1  0  0  0  0
 11 13  1  0  0  0  0
 11 12  2  0  0  0  0
 12  7  1  0  0  0  0
 13 14  1  0  0  0  0
 14 15  1  0  0  0  0
 15 16  2  0  0  0  0
 16 17  1  0  0  0  0
 17 18  2  0  0  0  0
 18 19  1  0  0  0  0
 18 20  1  0  0  0  0
 20 21  2  0  0  0  0
 21 15  1  0  0  0  0
 22  1  1  0  0  0  0
 23 22  1  0  0  0  0
 24 25  2  0  0  0  0
 25 26  1  0  0  0  0
 26 23  1  0  0  0  0
 26 27  2  0  0  0  0
 27 28  1  0  0  0  0
 28 29  2  0  0  0  0
 29 30  1  0  0  0  0
 29 24  1  0  0  0  0
 30 31  1  0  0  0  0
 32 33  2  0  0  0  0
 33 34  1  0  0  0  0
 33 24  1  0  0  0  0
 34 35  1  0  0  0  0
M  END
>  <Activity>
5.3

>  <minimizedAffinity>
-9.11253

>  <RFScoreVS_v2>
5.99071904001

$$$$
HIPS6998
 OpenBabel05252300073D

 35 38  0  0  0  0  0  0  0  0999 V2000
   67.2251   79.8395   88.0816 C   0  0  0  0  0  0  0  0  0  0  0  0
   66.5141   78.8105   87.4463 C   0  0  0  0  0  0  0  0  0  0  0  0
   66.8451   77.4757   87.6858 C   0  0  0  0  0  0  0  0  0  0  0  0
   67.8813   77.1553   88.5659 C   0  0  0  0  0  0  0  0  0  0  0  0
   68.5965   78.1714   89.2244 C   0  0  0  0  0  0  0  0  0  0  0  0
   68.2546   79.5141   88.9797 C   0  0  0  0  0  0  0  0  0  0  0  0
   69.6990   77.8328   90.1599 C   0  0  0  0  0  0  0  0  0  0  0  0
   71.0051   78.2950   89.9216 C   0  0  0  0  0  0  0  0  0  0  0  0
   72.0400   77.9724   90.8015 C   0  0  0  0  0  0  0  0  0  0  0  0
   71.7879   77.1836   91.9256 C   0  0  0  0  0  0  0  0  0  0  0  0
   70.4887   76.7059   92.1782 C   0  0  0  0  0  0  0  0  0  0  0  0
   69.4538   77.0396   91.2958 C   0  0  0  0  0  0  0  0  0  0  0  0
   70.1801   75.9005   93.2866 O   0  0  0  0  0  0  0  0  0  0  0  0
   69.0316   75.0593   93.4015 C   0  0  0  0  0  0  0  0  0  0  0  0
   69.3132   73.6897   92.8426 C   0  0  0  0  0  0  0  0  0  0  0  0
   68.8707   73.3378   91.5566 C   0  0  0  0  0  0  0  0  0  0  0  0
   69.1427   72.0667   91.0411 C   0  0  0  0  0  0  0  0  0  0  0  0
   69.8655   71.1412   91.8010 C   0  0  0  0  0  0  0  0  0  0  0  0
   70.2052   69.5472   91.1527 Cl  0  0  0  0  0  0  0  0  0  0  0  0
   70.3201   71.4898   93.0769 C   0  0  0  0  0  0  0  0  0  0  0  0
   70.0496   72.7598   93.5949 C   0  0  0  0  0  0  0  0  0  0  0  0
   66.8742   81.2818   87.8244 C   0  0  0  0  0  0  0  0  0  0  0  0
   67.8072   81.8811   86.9236 O   0  0  0  0  0  0  0  0  0  0  0  0
   70.6269   83.9041   88.3464 C   0  0  0  0  0  0  0  0  0  0  0  0
   69.8021   82.8025   88.0473 C   0  0  0  0  0  0  0  0  0  0  0  0
   68.6636   82.9509   87.2325 C   0  0  0  0  0  0  0  0  0  0  0  0
   68.3621   84.2078   86.7047 C   0  0  0  0  0  0  0  0  0  0  0  0
   69.1706   85.3079   86.9881 C   0  0  0  0  0  0  0  0  0  0  0  0
   70.2997   85.1692   87.8063 C   0  0  0  0  0  0  0  0  0  0  0  0
   71.0883   86.2875   88.0775 O   0  0  0  0  0  0  0  0  0  0  0  0
   70.8609   87.1205   87.7137 H   0  0  0  0  0  0  0  0  0  0  0  0
   71.7400   82.9989   90.2603 O   0  0  0  0  0  0  0  0  0  0  0  0
   71.8127   83.7061   89.2197 C   0  0  0  0  0  0  0  0  0  0  0  0
   73.0281   84.3039   88.8943 O   0  0  0  0  0  0  0  0  0  0  0  0
   73.0988   84.8327   88.1240 H   0  0  0  0  0  0  0  0  0  0  0  0
  1  2  2  0  0  0  0
  2  3  1  0  0  0  0
  3  4  2  0  0  0  0
  4  5  1  0  0  0  0
  5  7  1  0  0  0  0
  5  6  2  0  0  0  0
  6  1  1  0  0  0  0
  7  8  2  0  0  0  0
  8  9  1  0  0  0  0
  9 10  2  0  0  0  0
 10 11  1  0  0  0  0
 11 13  1  0  0  0  0
 11 12  2  0  0  0  0
 12  7  1  0  0  0  0
 13 14  1  0  0  0  0
 14 15  1  0  0  0  0
 15 16  2  0  0  0  0
 16 17  1  0  0  0  0
 17 18  2  0  0  0  0
 18 19  1  0  0  0  0
 18 20  1  0  0  0  0
 20 21  2  0  0  0  0
 21 15  1  0  0  0  0
 22  1  1  0  0  0  0
 23 22  1  0  0  0  0
 24 25  2  0  0  0  0
 25 26  1  0  0  0  0
 26 23  1  0  0  0  0
 26 27  2  0  0  0  0
 27 28  1  0  0  0  0
 28 29  2  0  0  0  0
 29 30  1  0  0  0  0
 29 24  1  0  0  0  0
 30 31  1  0  0  0  0
 32 33  2  0  0  0  0
 33 34  1  0  0  0  0
 33 24  1  0  0  0  0
 34 35  1  0  0  0  0
M  END
>  <Activity>
5.3

>  <minimizedAffinity>
-9.07064

>  <RFScoreVS_v2>
5.98237889378

$$$$
HIPS6998
 OpenBabel05252300073D

 35 38  0  0  0  0  0  0  0  0999 V2000
   67.0084   74.9651   88.8603 C   0  0  0  0  0  0  0  0  0  0  0  0
   66.4834   74.0709   87.9156 C   0  0  0  0  0  0  0  0  0  0  0  0
   66.7465   72.7039   88.0196 C   0  0  0  0  0  0  0  0  0  0  0  0
   67.5276   72.2162   89.0698 C   0  0  0  0  0  0  0  0  0  0  0  0
   68.0510   73.0941   90.0357 C   0  0  0  0  0  0  0  0  0  0  0  0
   67.7786   74.4701   89.9252 C   0  0  0  0  0  0  0  0  0  0  0  0
   68.8824   72.5776   91.1525 C   0  0  0  0  0  0  0  0  0  0  0  0
   69.4415   71.2893   91.0901 C   0  0  0  0  0  0  0  0  0  0  0  0
   70.2203   70.8056   92.1431 C   0  0  0  0  0  0  0  0  0  0  0  0
   70.4482   71.5963   93.2709 C   0  0  0  0  0  0  0  0  0  0  0  0
   69.8921   72.8862   93.3554 C   0  0  0  0  0  0  0  0  0  0  0  0
   69.1183   73.3681   92.2923 C   0  0  0  0  0  0  0  0  0  0  0  0
   70.0794   73.7203   94.4696 O   0  0  0  0  0  0  0  0  0  0  0  0
   69.0427   74.1910   95.3319 C   0  0  0  0  0  0  0  0  0  0  0  0
   68.2949   75.3329   94.6961 C   0  0  0  0  0  0  0  0  0  0  0  0
   68.9850   76.4527   94.2031 C   0  0  0  0  0  0  0  0  0  0  0  0
   68.2845   77.5058   93.6068 C   0  0  0  0  0  0  0  0  0  0  0  0
   66.8920   77.4452   93.4901 C   0  0  0  0  0  0  0  0  0  0  0  0
   66.0151   78.7674   92.7422 Cl  0  0  0  0  0  0  0  0  0  0  0  0
   66.2000   76.3273   93.9672 C   0  0  0  0  0  0  0  0  0  0  0  0
   66.8978   75.2729   94.5639 C   0  0  0  0  0  0  0  0  0  0  0  0
   66.7303   76.4417   88.7510 C   0  0  0  0  0  0  0  0  0  0  0  0
   67.1838   77.1339   89.9155 O   0  0  0  0  0  0  0  0  0  0  0  0
   70.7329   78.3003   90.2493 C   0  0  0  0  0  0  0  0  0  0  0  0
   69.6191   77.4420   90.1722 C   0  0  0  0  0  0  0  0  0  0  0  0
   68.3219   77.9548   89.9821 C   0  0  0  0  0  0  0  0  0  0  0  0
   68.1459   79.3340   89.8542 C   0  0  0  0  0  0  0  0  0  0  0  0
   69.2386   80.1972   89.9245 C   0  0  0  0  0  0  0  0  0  0  0  0
   70.5313   79.6942   90.1233 C   0  0  0  0  0  0  0  0  0  0  0  0
   71.6059   80.5809   90.1946 O   0  0  0  0  0  0  0  0  0  0  0  0
   71.4593   81.5024   90.1096 H   0  0  0  0  0  0  0  0  0  0  0  0
   72.9526   77.7480   89.5498 O   0  0  0  0  0  0  0  0  0  0  0  0
   72.0835   77.7184   90.4619 C   0  0  0  0  0  0  0  0  0  0  0  0
   72.4069   77.1300   91.6824 O   0  0  0  0  0  0  0  0  0  0  0  0
   71.7719   77.0999   92.3709 H   0  0  0  0  0  0  0  0  0  0  0  0
  1  2  2  0  0  0  0
  2  3  1  0  0  0  0
  3  4  2  0  0  0  0
  4  5  1  0  0  0  0
  5  7  1  0  0  0  0
  5  6  2  0  0  0  0
  6  1  1  0  0  0  0
  7  8  2  0  0  0  0
  8  9  1  0  0  0  0
  9 10  2  0  0  0  0
 10 11  1  0  0  0  0
 11 13  1  0  0  0  0
 11 12  2  0  0  0  0
 12  7  1  0  0  0  0
 13 14  1  0  0  0  0
 14 15  1  0  0  0  0
 15 16  2  0  0  0  0
 16 17  1  0  0  0  0
 17 18  2  0  0  0  0
 18 19  1  0  0  0  0
 18 20  1  0  0  0  0
 20 21  2  0  0  0  0
 21 15  1  0  0  0  0
 22  1  1  0  0  0  0
 23 22  1  0  0  0  0
 24 25  2  0  0  0  0
 25 26  1  0  0  0  0
 26 23  1  0  0  0  0
 26 27  2  0  0  0  0
 27 28  1  0  0  0  0
 28 29  2  0  0  0  0
 29 30  1  0  0  0  0
 29 24  1  0  0  0  0
 30 31  1  0  0  0  0
 32 33  2  0  0  0  0
 33 34  1  0  0  0  0
 33 24  1  0  0  0  0
 34 35  1  0  0  0  0
M  END
>  <Activity>
5.3

>  <minimizedAffinity>
-9.00885

>  <RFScoreVS_v2>
5.99693054828

$$$$
HIPS7006
 OpenBabel05252300073D

 36 39  0  0  0  0  0  0  0  0999 V2000
   69.7773   76.5866   91.9254 C   0  0  0  0  0  0  0  0  0  0  0  0
   71.1525   76.8427   91.8448 C   0  0  0  0  0  0  0  0  0  0  0  0
   71.6409   77.7508   90.9040 C   0  0  0  0  0  0  0  0  0  0  0  0
   70.7616   78.4203   90.0480 C   0  0  0  0  0  0  0  0  0  0  0  0
   69.3783   78.1563   90.0924 C   0  0  0  0  0  0  0  0  0  0  0  0
   68.9067   77.1972   91.0090 C   0  0  0  0  0  0  0  0  0  0  0  0
   68.4232   78.9188   89.2357 C   0  0  0  0  0  0  0  0  0  0  0  0
   67.5253   78.2491   88.3831 C   0  0  0  0  0  0  0  0  0  0  0  0
   66.6651   78.9699   87.5519 C   0  0  0  0  0  0  0  0  0  0  0  0
   66.6710   80.3651   87.5745 C   0  0  0  0  0  0  0  0  0  0  0  0
   67.5258   81.0563   88.4378 C   0  0  0  0  0  0  0  0  0  0  0  0
   68.4162   80.3301   89.2495 C   0  0  0  0  0  0  0  0  0  0  0  0
   67.4512   82.4582   88.4670 O   0  0  0  0  0  0  0  0  0  0  0  0
   67.5571   83.3088   87.3235 C   0  0  0  0  0  0  0  0  0  0  0  0
   68.8358   84.1035   87.3377 C   0  0  0  0  0  0  0  0  0  0  0  0
   68.8087   85.4850   87.5878 C   0  0  0  0  0  0  0  0  0  0  0  0
   70.0017   86.2099   87.6725 C   0  0  0  0  0  0  0  0  0  0  0  0
   71.2338   85.5595   87.5191 C   0  0  0  0  0  0  0  0  0  0  0  0
   72.4283   86.2719   87.5953 O   0  0  0  0  0  0  0  0  0  0  0  0
   71.2657   84.1819   87.2805 C   0  0  0  0  0  0  0  0  0  0  0  0
   70.0744   83.4556   87.1929 C   0  0  0  0  0  0  0  0  0  0  0  0
   72.4138   87.1951   87.7549 H   0  0  0  0  0  0  0  0  0  0  0  0
   69.2182   75.7280   93.0319 C   0  0  0  0  0  0  0  0  0  0  0  0
   70.1296   74.6924   93.4122 O   0  0  0  0  0  0  0  0  0  0  0  0
   70.3508   70.9460   93.5729 C   0  0  0  0  0  0  0  0  0  0  0  0
   70.3623   72.2945   93.9779 C   0  0  0  0  0  0  0  0  0  0  0  0
   70.0186   73.3275   93.0854 C   0  0  0  0  0  0  0  0  0  0  0  0
   69.5763   72.9940   91.8045 C   0  0  0  0  0  0  0  0  0  0  0  0
   69.4637   71.6587   91.4188 C   0  0  0  0  0  0  0  0  0  0  0  0
   69.8247   70.6278   92.2931 C   0  0  0  0  0  0  0  0  0  0  0  0
   69.6168   69.3164   91.8603 O   0  0  0  0  0  0  0  0  0  0  0  0
   69.2670   69.1549   91.0061 H   0  0  0  0  0  0  0  0  0  0  0  0
   72.1575   70.1092   94.9064 O   0  0  0  0  0  0  0  0  0  0  0  0
   70.9896   69.9420   94.4665 C   0  0  0  0  0  0  0  0  0  0  0  0
   70.2617   68.8374   94.9041 O   0  0  0  0  0  0  0  0  0  0  0  0
   69.3910   68.6953   94.5886 H   0  0  0  0  0  0  0  0  0  0  0  0
  1  2  2  0  0  0  0
  2  3  1  0  0  0  0
  3  4  2  0  0  0  0
  4  5  1  0  0  0  0
  5  7  1  0  0  0  0
  5  6  2  0  0  0  0
  6  1  1  0  0  0  0
  7  8  2  0  0  0  0
  8  9  1  0  0  0  0
  9 10  2  0  0  0  0
 10 11  1  0  0  0  0
 11 13  1  0  0  0  0
 11 12  2  0  0  0  0
 12  7  1  0  0  0  0
 13 14  1  0  0  0  0
 14 15  1  0  0  0  0
 15 16  2  0  0  0  0
 16 17  1  0  0  0  0
 17 18  2  0  0  0  0
 18 19  1  0  0  0  0
 18 20  1  0  0  0  0
 19 22  1  0  0  0  0
 20 21  2  0  0  0  0
 21 15  1  0  0  0  0
 23  1  1  0  0  0  0
 24 23  1  0  0  0  0
 25 26  2  0  0  0  0
 26 27  1  0  0  0  0
 27 24  1  0  0  0  0
 27 28  2  0  0  0  0
 28 29  1  0  0  0  0
 29 30  2  0  0  0  0
 30 31  1  0  0  0  0
 30 25  1  0  0  0  0
 31 32  1  0  0  0  0
 33 34  2  0  0  0  0
 34 35  1  0  0  0  0
 34 25  1  0  0  0  0
 35 36  1  0  0  0  0
M  END
>  <Activity>
6.5

>  <minimizedAffinity>
-9.52259

>  <RFScoreVS_v2>
5.97183577633

$$$$
HIPS7006
 OpenBabel05252300073D

 36 39  0  0  0  0  0  0  0  0999 V2000
   68.0882   79.4354   89.3812 C   0  0  0  0  0  0  0  0  0  0  0  0
   67.3256   79.8562   88.2836 C   0  0  0  0  0  0  0  0  0  0  0  0
   66.6983   78.9150   87.4658 C   0  0  0  0  0  0  0  0  0  0  0  0
   66.8142   77.5501   87.7448 C   0  0  0  0  0  0  0  0  0  0  0  0
   67.5996   77.1040   88.8261 C   0  0  0  0  0  0  0  0  0  0  0  0
   68.2711   78.0624   89.6089 C   0  0  0  0  0  0  0  0  0  0  0  0
   67.6699   75.6552   89.1776 C   0  0  0  0  0  0  0  0  0  0  0  0
   66.9291   74.7003   88.4557 C   0  0  0  0  0  0  0  0  0  0  0  0
   66.9657   73.3522   88.8184 C   0  0  0  0  0  0  0  0  0  0  0  0
   67.7567   72.9333   89.8889 C   0  0  0  0  0  0  0  0  0  0  0  0
   68.5314   73.8538   90.6003 C   0  0  0  0  0  0  0  0  0  0  0  0
   68.4672   75.2165   90.2565 C   0  0  0  0  0  0  0  0  0  0  0  0
   69.3569   73.3741   91.6300 O   0  0  0  0  0  0  0  0  0  0  0  0
   68.9120   72.5926   92.7406 C   0  0  0  0  0  0  0  0  0  0  0  0
   67.9996   73.3787   93.6442 C   0  0  0  0  0  0  0  0  0  0  0  0
   68.5328   74.2889   94.5710 C   0  0  0  0  0  0  0  0  0  0  0  0
   67.6832   75.0715   95.3597 C   0  0  0  0  0  0  0  0  0  0  0  0
   66.2928   74.9600   95.2219 C   0  0  0  0  0  0  0  0  0  0  0  0
   65.4367   75.7297   96.0060 O   0  0  0  0  0  0  0  0  0  0  0  0
   65.7578   74.0624   94.2925 C   0  0  0  0  0  0  0  0  0  0  0  0
   66.6050   73.2773   93.5050 C   0  0  0  0  0  0  0  0  0  0  0  0
   65.7888   76.3329   96.6306 H   0  0  0  0  0  0  0  0  0  0  0  0
   68.6448   80.4379   90.3608 C   0  0  0  0  0  0  0  0  0  0  0  0
   70.0145   80.7461   90.0842 O   0  0  0  0  0  0  0  0  0  0  0  0
   70.3210   83.8475   87.9872 C   0  0  0  0  0  0  0  0  0  0  0  0
   69.7560   82.7220   88.6167 C   0  0  0  0  0  0  0  0  0  0  0  0
   70.4994   81.9430   89.5236 C   0  0  0  0  0  0  0  0  0  0  0  0
   71.7896   82.3511   89.8647 C   0  0  0  0  0  0  0  0  0  0  0  0
   72.3293   83.5189   89.3265 C   0  0  0  0  0  0  0  0  0  0  0  0
   71.6045   84.2856   88.4076 C   0  0  0  0  0  0  0  0  0  0  0  0
   72.1835   85.4779   87.9680 O   0  0  0  0  0  0  0  0  0  0  0  0
   73.0339   85.7261   88.2732 H   0  0  0  0  0  0  0  0  0  0  0  0
   68.3474   84.2792   86.6982 O   0  0  0  0  0  0  0  0  0  0  0  0
   69.5865   84.4503   86.8418 C   0  0  0  0  0  0  0  0  0  0  0  0
   70.2523   85.2946   85.9555 O   0  0  0  0  0  0  0  0  0  0  0  0
   71.1743   85.4351   86.0455 H   0  0  0  0  0  0  0  0  0  0  0  0
  1  2  2  0  0  0  0
  2  3  1  0  0  0  0
  3  4  2  0  0  0  0
  4  5  1  0  0  0  0
  5  7  1  0  0  0  0
  5  6  2  0  0  0  0
  6  1  1  0  0  0  0
  7  8  2  0  0  0  0
  8  9  1  0  0  0  0
  9 10  2  0  0  0  0
 10 11  1  0  0  0  0
 11 13  1  0  0  0  0
 11 12  2  0  0  0  0
 12  7  1  0  0  0  0
 13 14  1  0  0  0  0
 14 15  1  0  0  0  0
 15 16  2  0  0  0  0
 16 17  1  0  0  0  0
 17 18  2  0  0  0  0
 18 19  1  0  0  0  0
 18 20  1  0  0  0  0
 19 22  1  0  0  0  0
 20 21  2  0  0  0  0
 21 15  1  0  0  0  0
 23  1  1  0  0  0  0
 24 23  1  0  0  0  0
 25 26  2  0  0  0  0
 26 27  1  0  0  0  0
 27 24  1  0  0  0  0
 27 28  2  0  0  0  0
 28 29  1  0  0  0  0
 29 30  2  0  0  0  0
 30 31  1  0  0  0  0
 30 25  1  0  0  0  0
 31 32  1  0  0  0  0
 33 34  2  0  0  0  0
 34 35  1  0  0  0  0
 34 25  1  0  0  0  0
 35 36  1  0  0  0  0
M  END
>  <Activity>
6.5

>  <minimizedAffinity>
-9.45150

>  <RFScoreVS_v2>
6.00468984692

$$$$
HIPS7006
 OpenBabel05252300073D

 36 39  0  0  0  0  0  0  0  0999 V2000
   70.2628   78.6353   90.5751 C   0  0  0  0  0  0  0  0  0  0  0  0
   68.8636   78.7062   90.5974 C   0  0  0  0  0  0  0  0  0  0  0  0
   68.2187   79.9015   90.2755 C   0  0  0  0  0  0  0  0  0  0  0  0
   68.9625   81.0288   89.9150 C   0  0  0  0  0  0  0  0  0  0  0  0
   70.3708   80.9877   89.9141 C   0  0  0  0  0  0  0  0  0  0  0  0
   71.0081   79.7912   90.2944 C   0  0  0  0  0  0  0  0  0  0  0  0
   71.1729   82.1614   89.4595 C   0  0  0  0  0  0  0  0  0  0  0  0
   72.4539   82.4087   89.9882 C   0  0  0  0  0  0  0  0  0  0  0  0
   73.1803   83.5333   89.5906 C   0  0  0  0  0  0  0  0  0  0  0  0
   72.6517   84.4138   88.6458 C   0  0  0  0  0  0  0  0  0  0  0  0
   71.3979   84.1734   88.0767 C   0  0  0  0  0  0  0  0  0  0  0  0
   70.6522   83.0594   88.5032 C   0  0  0  0  0  0  0  0  0  0  0  0
   70.9363   85.0554   87.0863 O   0  0  0  0  0  0  0  0  0  0  0  0
   69.6757   85.7281   87.1107 C   0  0  0  0  0  0  0  0  0  0  0  0
   69.5059   86.5466   88.3629 C   0  0  0  0  0  0  0  0  0  0  0  0
   68.8421   86.0079   89.4769 C   0  0  0  0  0  0  0  0  0  0  0  0
   68.7478   86.7411   90.6642 C   0  0  0  0  0  0  0  0  0  0  0  0
   69.3253   88.0152   90.7533 C   0  0  0  0  0  0  0  0  0  0  0  0
   69.2326   88.7572   91.9284 O   0  0  0  0  0  0  0  0  0  0  0  0
   69.9966   88.5510   89.6496 C   0  0  0  0  0  0  0  0  0  0  0  0
   70.0900   87.8211   88.4610 C   0  0  0  0  0  0  0  0  0  0  0  0
   68.7842   88.4040   92.6714 H   0  0  0  0  0  0  0  0  0  0  0  0
   70.9695   77.3174   90.7703 C   0  0  0  0  0  0  0  0  0  0  0  0
   70.6187   76.7064   92.0158 O   0  0  0  0  0  0  0  0  0  0  0  0
   68.4200   74.1095   93.6070 C   0  0  0  0  0  0  0  0  0  0  0  0
   69.2473   75.2396   93.4622 C   0  0  0  0  0  0  0  0  0  0  0  0
   69.6984   75.6563   92.1954 C   0  0  0  0  0  0  0  0  0  0  0  0
   69.2422   74.9833   91.0611 C   0  0  0  0  0  0  0  0  0  0  0  0
   68.3436   73.9236   91.1791 C   0  0  0  0  0  0  0  0  0  0  0  0
   67.9086   73.4900   92.4363 C   0  0  0  0  0  0  0  0  0  0  0  0
   66.9548   72.4705   92.4693 O   0  0  0  0  0  0  0  0  0  0  0  0
   66.6465   72.0913   91.6698 H   0  0  0  0  0  0  0  0  0  0  0  0
   67.0722   73.5334   95.5029 O   0  0  0  0  0  0  0  0  0  0  0  0
   68.2154   73.5636   94.9763 C   0  0  0  0  0  0  0  0  0  0  0  0
   69.2836   72.9906   95.6633 O   0  0  0  0  0  0  0  0  0  0  0  0
   70.1423   73.0027   95.2884 H   0  0  0  0  0  0  0  0  0  0  0  0
  1  2  2  0  0  0  0
  2  3  1  0  0  0  0
  3  4  2  0  0  0  0
  4  5  1  0  0  0  0
  5  7  1  0  0  0  0
  5  6  2  0  0  0  0
  6  1  1  0  0  0  0
  7  8  2  0  0  0  0
  8  9  1  0  0  0  0
  9 10  2  0  0  0  0
 10 11  1  0  0  0  0
 11 13  1  0  0  0  0
 11 12  2  0  0  0  0
 12  7  1  0  0  0  0
 13 14  1  0  0  0  0
 14 15  1  0  0  0  0
 15 16  2  0  0  0  0
 16 17  1  0  0  0  0
 17 18  2  0  0  0  0
 18 19  1  0  0  0  0
 18 20  1  0  0  0  0
 19 22  1  0  0  0  0
 20 21  2  0  0  0  0
 21 15  1  0  0  0  0
 23  1  1  0  0  0  0
 24 23  1  0  0  0  0
 25 26  2  0  0  0  0
 26 27  1  0  0  0  0
 27 24  1  0  0  0  0
 27 28  2  0  0  0  0
 28 29  1  0  0  0  0
 29 30  2  0  0  0  0
 30 31  1  0  0  0  0
 30 25  1  0  0  0  0
 31 32  1  0  0  0  0
 33 34  2  0  0  0  0
 34 35  1  0  0  0  0
 34 25  1  0  0  0  0
 35 36  1  0  0  0  0
M  END
>  <Activity>
6.5

>  <minimizedAffinity>
-9.43947

>  <RFScoreVS_v2>
5.98019835457

$$$$
HIPS7006
 OpenBabel05252300073D

 36 39  0  0  0  0  0  0  0  0999 V2000
   70.1463   78.6601   90.5516 C   0  0  0  0  0  0  0  0  0  0  0  0
   68.7475   78.7386   90.5280 C   0  0  0  0  0  0  0  0  0  0  0  0
   68.1200   79.9344   90.1752 C   0  0  0  0  0  0  0  0  0  0  0  0
   68.8813   81.0546   89.8293 C   0  0  0  0  0  0  0  0  0  0  0  0
   70.2887   81.0061   89.8744 C   0  0  0  0  0  0  0  0  0  0  0  0
   70.9067   79.8096   90.2853 C   0  0  0  0  0  0  0  0  0  0  0  0
   71.1115   82.1716   89.4360 C   0  0  0  0  0  0  0  0  0  0  0  0
   72.4091   82.3711   89.9442 C   0  0  0  0  0  0  0  0  0  0  0  0
   73.1562   83.4878   89.5630 C   0  0  0  0  0  0  0  0  0  0  0  0
   72.6314   84.4080   88.6547 C   0  0  0  0  0  0  0  0  0  0  0  0
   71.3605   84.2159   88.1057 C   0  0  0  0  0  0  0  0  0  0  0  0
   70.5949   83.1094   88.5165 C   0  0  0  0  0  0  0  0  0  0  0  0
   70.9017   85.1373   87.1505 O   0  0  0  0  0  0  0  0  0  0  0  0
   69.6860   85.8821   87.2476 C   0  0  0  0  0  0  0  0  0  0  0  0
   69.6066   86.6515   88.5394 C   0  0  0  0  0  0  0  0  0  0  0  0
   70.1755   87.9316   88.6377 C   0  0  0  0  0  0  0  0  0  0  0  0
   70.0391   88.6755   89.8142 C   0  0  0  0  0  0  0  0  0  0  0  0
   69.3235   88.1520   90.8998 C   0  0  0  0  0  0  0  0  0  0  0  0
   69.1862   88.8810   92.0787 O   0  0  0  0  0  0  0  0  0  0  0  0
   68.7462   86.8820   90.8022 C   0  0  0  0  0  0  0  0  0  0  0  0
   68.8834   86.1355   89.6282 C   0  0  0  0  0  0  0  0  0  0  0  0
   69.5706   89.7325   92.1505 H   0  0  0  0  0  0  0  0  0  0  0  0
   70.8390   77.3403   90.7808 C   0  0  0  0  0  0  0  0  0  0  0  0
   70.8312   76.9697   92.1628 O   0  0  0  0  0  0  0  0  0  0  0  0
   68.7128   73.9180   92.7192 C   0  0  0  0  0  0  0  0  0  0  0  0
   69.6508   74.7947   92.1413 C   0  0  0  0  0  0  0  0  0  0  0  0
   69.9900   76.0124   92.7610 C   0  0  0  0  0  0  0  0  0  0  0  0
   69.4475   76.3072   94.0126 C   0  0  0  0  0  0  0  0  0  0  0  0
   68.5935   75.4045   94.6455 C   0  0  0  0  0  0  0  0  0  0  0  0
   68.2346   74.2028   94.0253 C   0  0  0  0  0  0  0  0  0  0  0  0
   67.4331   73.3197   94.7518 O   0  0  0  0  0  0  0  0  0  0  0  0
   67.1410   73.5512   95.6115 H   0  0  0  0  0  0  0  0  0  0  0  0
   68.9130   72.2520   91.0081 O   0  0  0  0  0  0  0  0  0  0  0  0
   68.1944   72.7999   91.8850 C   0  0  0  0  0  0  0  0  0  0  0  0
   66.9245   72.2809   92.1290 O   0  0  0  0  0  0  0  0  0  0  0  0
   66.3743   72.6742   92.7775 H   0  0  0  0  0  0  0  0  0  0  0  0
  1  2  2  0  0  0  0
  2  3  1  0  0  0  0
  3  4  2  0  0  0  0
  4  5  1  0  0  0  0
  5  7  1  0  0  0  0
  5  6  2  0  0  0  0
  6  1  1  0  0  0  0
  7  8  2  0  0  0  0
  8  9  1  0  0  0  0
  9 10  2  0  0  0  0
 10 11  1  0  0  0  0
 11 13  1  0  0  0  0
 11 12  2  0  0  0  0
 12  7  1  0  0  0  0
 13 14  1  0  0  0  0
 14 15  1  0  0  0  0
 15 16  2  0  0  0  0
 16 17  1  0  0  0  0
 17 18  2  0  0  0  0
 18 19  1  0  0  0  0
 18 20  1  0  0  0  0
 19 22  1  0  0  0  0
 20 21  2  0  0  0  0
 21 15  1  0  0  0  0
 23  1  1  0  0  0  0
 24 23  1  0  0  0  0
 25 26  2  0  0  0  0
 26 27  1  0  0  0  0
 27 24  1  0  0  0  0
 27 28  2  0  0  0  0
 28 29  1  0  0  0  0
 29 30  2  0  0  0  0
 30 31  1  0  0  0  0
 30 25  1  0  0  0  0
 31 32  1  0  0  0  0
 33 34  2  0  0  0  0
 34 35  1  0  0  0  0
 34 25  1  0  0  0  0
 35 36  1  0  0  0  0
M  END
>  <Activity>
6.5

>  <minimizedAffinity>
-9.32968

>  <RFScoreVS_v2>
5.99027937928

$$$$
HIPS7006
 OpenBabel05252300073D

 36 39  0  0  0  0  0  0  0  0999 V2000
   68.7153   73.8429   90.9809 C   0  0  0  0  0  0  0  0  0  0  0  0
   68.0910   72.7246   90.4125 C   0  0  0  0  0  0  0  0  0  0  0  0
   67.2568   72.8775   89.3039 C   0  0  0  0  0  0  0  0  0  0  0  0
   67.0512   74.1425   88.7457 C   0  0  0  0  0  0  0  0  0  0  0  0
   67.6459   75.2839   89.3188 C   0  0  0  0  0  0  0  0  0  0  0  0
   68.4404   75.1210   90.4698 C   0  0  0  0  0  0  0  0  0  0  0  0
   67.4937   76.6279   88.6878 C   0  0  0  0  0  0  0  0  0  0  0  0
   66.8853   76.7682   87.4261 C   0  0  0  0  0  0  0  0  0  0  0  0
   66.7860   78.0236   86.8224 C   0  0  0  0  0  0  0  0  0  0  0  0
   67.2700   79.1580   87.4752 C   0  0  0  0  0  0  0  0  0  0  0  0
   67.8456   79.0535   88.7447 C   0  0  0  0  0  0  0  0  0  0  0  0
   67.9765   77.7843   89.3371 C   0  0  0  0  0  0  0  0  0  0  0  0
   68.2623   80.2314   89.3856 O   0  0  0  0  0  0  0  0  0  0  0  0
   69.4247   80.3497   90.2085 C   0  0  0  0  0  0  0  0  0  0  0  0
   70.2670   81.5339   89.8145 C   0  0  0  0  0  0  0  0  0  0  0  0
   71.5688   81.6771   90.3211 C   0  0  0  0  0  0  0  0  0  0  0  0
   72.3770   82.7378   89.8992 C   0  0  0  0  0  0  0  0  0  0  0  0
   71.8960   83.6592   88.9588 C   0  0  0  0  0  0  0  0  0  0  0  0
   72.6894   84.7231   88.5358 O   0  0  0  0  0  0  0  0  0  0  0  0
   70.6040   83.5141   88.4438 C   0  0  0  0  0  0  0  0  0  0  0  0
   69.7934   82.4562   88.8659 C   0  0  0  0  0  0  0  0  0  0  0  0
   73.5559   84.8259   88.8770 H   0  0  0  0  0  0  0  0  0  0  0  0
   69.7357   73.6789   92.0792 C   0  0  0  0  0  0  0  0  0  0  0  0
   69.1293   73.2773   93.3115 O   0  0  0  0  0  0  0  0  0  0  0  0
   66.5264   75.8226   94.2369 C   0  0  0  0  0  0  0  0  0  0  0  0
   67.4452   75.0839   93.4671 C   0  0  0  0  0  0  0  0  0  0  0  0
   68.1191   73.9710   94.0046 C   0  0  0  0  0  0  0  0  0  0  0  0
   67.8004   73.5472   95.2955 C   0  0  0  0  0  0  0  0  0  0  0  0
   66.8205   74.2071   96.0365 C   0  0  0  0  0  0  0  0  0  0  0  0
   66.1628   75.3274   95.5169 C   0  0  0  0  0  0  0  0  0  0  0  0
   65.1450   75.8902   96.2899 O   0  0  0  0  0  0  0  0  0  0  0  0
   64.9402   75.5288   97.1298 H   0  0  0  0  0  0  0  0  0  0  0  0
   65.1874   77.8089   94.3056 O   0  0  0  0  0  0  0  0  0  0  0  0
   66.0698   77.1372   93.7094 C   0  0  0  0  0  0  0  0  0  0  0  0
   66.6846   77.6876   92.5868 O   0  0  0  0  0  0  0  0  0  0  0  0
   67.3437   77.2037   92.1291 H   0  0  0  0  0  0  0  0  0  0  0  0
  1  2  2  0  0  0  0
  2  3  1  0  0  0  0
  3  4  2  0  0  0  0
  4  5  1  0  0  0  0
  5  7  1  0  0  0  0
  5  6  2  0  0  0  0
  6  1  1  0  0  0  0
  7  8  2  0  0  0  0
  8  9  1  0  0  0  0
  9 10  2  0  0  0  0
 10 11  1  0  0  0  0
 11 13  1  0  0  0  0
 11 12  2  0  0  0  0
 12  7  1  0  0  0  0
 13 14  1  0  0  0  0
 14 15  1  0  0  0  0
 15 16  2  0  0  0  0
 16 17  1  0  0  0  0
 17 18  2  0  0  0  0
 18 19  1  0  0  0  0
 18 20  1  0  0  0  0
 19 22  1  0  0  0  0
 20 21  2  0  0  0  0
 21 15  1  0  0  0  0
 23  1  1  0  0  0  0
 24 23  1  0  0  0  0
 25 26  2  0  0  0  0
 26 27  1  0  0  0  0
 27 24  1  0  0  0  0
 27 28  2  0  0  0  0
 28 29  1  0  0  0  0
 29 30  2  0  0  0  0
 30 31  1  0  0  0  0
 30 25  1  0  0  0  0
 31 32  1  0  0  0  0
 33 34  2  0  0  0  0
 34 35  1  0  0  0  0
 34 25  1  0  0  0  0
 35 36  1  0  0  0  0
M  END
>  <Activity>
6.5

>  <minimizedAffinity>
-9.32558

>  <RFScoreVS_v2>
5.9880234303

$$$$
HIPS7006
 OpenBabel05252300073D

 36 39  0  0  0  0  0  0  0  0999 V2000
   68.0744   79.0727   88.9874 C   0  0  0  0  0  0  0  0  0  0  0  0
   67.1859   79.4037   87.9557 C   0  0  0  0  0  0  0  0  0  0  0  0
   66.4662   78.4010   87.3038 C   0  0  0  0  0  0  0  0  0  0  0  0
   66.6157   77.0645   87.6854 C   0  0  0  0  0  0  0  0  0  0  0  0
   67.5249   76.7066   88.7004 C   0  0  0  0  0  0  0  0  0  0  0  0
   68.2843   77.7229   89.3109 C   0  0  0  0  0  0  0  0  0  0  0  0
   67.6380   75.2932   89.1665 C   0  0  0  0  0  0  0  0  0  0  0  0
   66.9140   74.2645   88.5344 C   0  0  0  0  0  0  0  0  0  0  0  0
   66.9908   72.9515   89.0039 C   0  0  0  0  0  0  0  0  0  0  0  0
   67.8055   72.6409   90.0934 C   0  0  0  0  0  0  0  0  0  0  0  0
   68.5640   73.6354   90.7173 C   0  0  0  0  0  0  0  0  0  0  0  0
   68.4596   74.9637   90.2657 C   0  0  0  0  0  0  0  0  0  0  0  0
   69.4144   73.2618   91.7705 O   0  0  0  0  0  0  0  0  0  0  0  0
   68.9930   72.6210   92.9763 C   0  0  0  0  0  0  0  0  0  0  0  0
   68.0338   73.4799   93.7569 C   0  0  0  0  0  0  0  0  0  0  0  0
   66.6483   73.3357   93.5796 C   0  0  0  0  0  0  0  0  0  0  0  0
   65.7565   74.0821   94.3565 C   0  0  0  0  0  0  0  0  0  0  0  0
   66.2403   74.9717   95.3256 C   0  0  0  0  0  0  0  0  0  0  0  0
   65.3619   75.7248   96.1011 O   0  0  0  0  0  0  0  0  0  0  0  0
   67.6192   75.1104   95.5129 C   0  0  0  0  0  0  0  0  0  0  0  0
   68.5127   74.3672   94.7358 C   0  0  0  0  0  0  0  0  0  0  0  0
   64.4369   75.6366   95.9806 H   0  0  0  0  0  0  0  0  0  0  0  0
   68.7432   80.1511   89.8022 C   0  0  0  0  0  0  0  0  0  0  0  0
   68.2008   81.4444   89.5182 O   0  0  0  0  0  0  0  0  0  0  0  0
   70.6161   83.8606   87.9566 C   0  0  0  0  0  0  0  0  0  0  0  0
   70.1176   82.8038   88.7422 C   0  0  0  0  0  0  0  0  0  0  0  0
   68.7669   82.4139   88.6687 C   0  0  0  0  0  0  0  0  0  0  0  0
   67.9350   83.0335   87.7352 C   0  0  0  0  0  0  0  0  0  0  0  0
   68.4364   84.0139   86.8795 C   0  0  0  0  0  0  0  0  0  0  0  0
   69.7721   84.4219   86.9624 C   0  0  0  0  0  0  0  0  0  0  0  0
   70.2173   85.3565   86.0251 O   0  0  0  0  0  0  0  0  0  0  0  0
   69.6232   85.6996   85.3870 H   0  0  0  0  0  0  0  0  0  0  0  0
   72.7553   83.7698   89.0328 O   0  0  0  0  0  0  0  0  0  0  0  0
   71.9630   84.4014   88.2855 C   0  0  0  0  0  0  0  0  0  0  0  0
   72.4023   85.5826   87.6912 O   0  0  0  0  0  0  0  0  0  0  0  0
   71.8279   86.0673   87.1317 H   0  0  0  0  0  0  0  0  0  0  0  0
  1  2  2  0  0  0  0
  2  3  1  0  0  0  0
  3  4  2  0  0  0  0
  4  5  1  0  0  0  0
  5  7  1  0  0  0  0
  5  6  2  0  0  0  0
  6  1  1  0  0  0  0
  7  8  2  0  0  0  0
  8  9  1  0  0  0  0
  9 10  2  0  0  0  0
 10 11  1  0  0  0  0
 11 13  1  0  0  0  0
 11 12  2  0  0  0  0
 12  7  1  0  0  0  0
 13 14  1  0  0  0  0
 14 15  1  0  0  0  0
 15 16  2  0  0  0  0
 16 17  1  0  0  0  0
 17 18  2  0  0  0  0
 18 19  1  0  0  0  0
 18 20  1  0  0  0  0
 19 22  1  0  0  0  0
 20 21  2  0  0  0  0
 21 15  1  0  0  0  0
 23  1  1  0  0  0  0
 24 23  1  0  0  0  0
 25 26  2  0  0  0  0
 26 27  1  0  0  0  0
 27 24  1  0  0  0  0
 27 28  2  0  0  0  0
 28 29  1  0  0  0  0
 29 30  2  0  0  0  0
 30 31  1  0  0  0  0
 30 25  1  0  0  0  0
 31 32  1  0  0  0  0
 33 34  2  0  0  0  0
 34 35  1  0  0  0  0
 34 25  1  0  0  0  0
 35 36  1  0  0  0  0
M  END
>  <Activity>
6.5

>  <minimizedAffinity>
-9.26383

>  <RFScoreVS_v2>
6.01649029928

$$$$
HIPS7006
 OpenBabel05252300073D

 36 39  0  0  0  0  0  0  0  0999 V2000
   68.8253   77.7412   90.4230 C   0  0  0  0  0  0  0  0  0  0  0  0
   70.2181   77.5907   90.3963 C   0  0  0  0  0  0  0  0  0  0  0  0
   71.0399   78.7098   90.2533 C   0  0  0  0  0  0  0  0  0  0  0  0
   70.4803   79.9867   90.1511 C   0  0  0  0  0  0  0  0  0  0  0  0
   69.0818   80.1579   90.1466 C   0  0  0  0  0  0  0  0  0  0  0  0
   68.2649   79.0146   90.2361 C   0  0  0  0  0  0  0  0  0  0  0  0
   68.4752   81.5211   90.1132 C   0  0  0  0  0  0  0  0  0  0  0  0
   68.1683   82.2042   91.3053 C   0  0  0  0  0  0  0  0  0  0  0  0
   67.5604   83.4608   91.2662 C   0  0  0  0  0  0  0  0  0  0  0  0
   67.2706   84.0639   90.0417 C   0  0  0  0  0  0  0  0  0  0  0  0
   67.5978   83.4253   88.8422 C   0  0  0  0  0  0  0  0  0  0  0  0
   68.1785   82.1445   88.8822 C   0  0  0  0  0  0  0  0  0  0  0  0
   67.3412   84.0995   87.6375 O   0  0  0  0  0  0  0  0  0  0  0  0
   68.3059   84.3396   86.6109 C   0  0  0  0  0  0  0  0  0  0  0  0
   69.5694   84.9428   87.1647 C   0  0  0  0  0  0  0  0  0  0  0  0
   70.7872   84.2506   87.0664 C   0  0  0  0  0  0  0  0  0  0  0  0
   71.9726   84.8416   87.5157 C   0  0  0  0  0  0  0  0  0  0  0  0
   71.9541   86.1343   88.0574 C   0  0  0  0  0  0  0  0  0  0  0  0
   73.1272   86.7308   88.5137 O   0  0  0  0  0  0  0  0  0  0  0  0
   70.7450   86.8313   88.1472 C   0  0  0  0  0  0  0  0  0  0  0  0
   69.5586   86.2417   87.7012 C   0  0  0  0  0  0  0  0  0  0  0  0
   73.9405   86.2691   88.4563 H   0  0  0  0  0  0  0  0  0  0  0  0
   67.9303   76.5665   90.7286 C   0  0  0  0  0  0  0  0  0  0  0  0
   67.2116   76.7509   91.9521 O   0  0  0  0  0  0  0  0  0  0  0  0
   68.3290   74.2467   94.5193 C   0  0  0  0  0  0  0  0  0  0  0  0
   68.3813   75.1915   93.4767 C   0  0  0  0  0  0  0  0  0  0  0  0
   67.2292   75.8873   93.0638 C   0  0  0  0  0  0  0  0  0  0  0  0
   66.0370   75.6946   93.7631 C   0  0  0  0  0  0  0  0  0  0  0  0
   65.9903   74.8368   94.8616 C   0  0  0  0  0  0  0  0  0  0  0  0
   67.1260   74.1254   95.2636 C   0  0  0  0  0  0  0  0  0  0  0  0
   67.0187   73.3417   96.4145 O   0  0  0  0  0  0  0  0  0  0  0  0
   66.2032   73.2921   96.8732 H   0  0  0  0  0  0  0  0  0  0  0  0
   69.6279   72.6549   95.7529 O   0  0  0  0  0  0  0  0  0  0  0  0
   69.5031   73.3529   94.7125 C   0  0  0  0  0  0  0  0  0  0  0  0
   70.4423   73.2085   93.6935 O   0  0  0  0  0  0  0  0  0  0  0  0
   70.3671   73.7188   92.9113 H   0  0  0  0  0  0  0  0  0  0  0  0
  1  2  2  0  0  0  0
  2  3  1  0  0  0  0
  3  4  2  0  0  0  0
  4  5  1  0  0  0  0
  5  7  1  0  0  0  0
  5  6  2  0  0  0  0
  6  1  1  0  0  0  0
  7  8  2  0  0  0  0
  8  9  1  0  0  0  0
  9 10  2  0  0  0  0
 10 11  1  0  0  0  0
 11 13  1  0  0  0  0
 11 12  2  0  0  0  0
 12  7  1  0  0  0  0
 13 14  1  0  0  0  0
 14 15  1  0  0  0  0
 15 16  2  0  0  0  0
 16 17  1  0  0  0  0
 17 18  2  0  0  0  0
 18 19  1  0  0  0  0
 18 20  1  0  0  0  0
 19 22  1  0  0  0  0
 20 21  2  0  0  0  0
 21 15  1  0  0  0  0
 23  1  1  0  0  0  0
 24 23  1  0  0  0  0
 25 26  2  0  0  0  0
 26 27  1  0  0  0  0
 27 24  1  0  0  0  0
 27 28  2  0  0  0  0
 28 29  1  0  0  0  0
 29 30  2  0  0  0  0
 30 31  1  0  0  0  0
 30 25  1  0  0  0  0
 31 32  1  0  0  0  0
 33 34  2  0  0  0  0
 34 35  1  0  0  0  0
 34 25  1  0  0  0  0
 35 36  1  0  0  0  0
M  END
>  <Activity>
6.5

>  <minimizedAffinity>
-9.23200

>  <RFScoreVS_v2>
5.98736035414

$$$$
HIPS7006
 OpenBabel05252300073D

 36 39  0  0  0  0  0  0  0  0999 V2000
   66.8896   79.3014   87.9202 C   0  0  0  0  0  0  0  0  0  0  0  0
   66.2522   78.1837   87.3654 C   0  0  0  0  0  0  0  0  0  0  0  0
   66.7100   76.8988   87.6615 C   0  0  0  0  0  0  0  0  0  0  0  0
   67.7956   76.7186   88.5234 C   0  0  0  0  0  0  0  0  0  0  0  0
   68.4692   77.8292   89.0693 C   0  0  0  0  0  0  0  0  0  0  0  0
   68.0304   79.1201   88.7178 C   0  0  0  0  0  0  0  0  0  0  0  0
   69.5810   77.6478   90.0483 C   0  0  0  0  0  0  0  0  0  0  0  0
   70.7451   78.4358   89.9728 C   0  0  0  0  0  0  0  0  0  0  0  0
   71.7997   78.2304   90.8650 C   0  0  0  0  0  0  0  0  0  0  0  0
   71.7010   77.2544   91.8574 C   0  0  0  0  0  0  0  0  0  0  0  0
   70.5422   76.4823   91.9793 C   0  0  0  0  0  0  0  0  0  0  0  0
   69.4945   76.6661   91.0586 C   0  0  0  0  0  0  0  0  0  0  0  0
   70.4674   75.5555   93.0315 O   0  0  0  0  0  0  0  0  0  0  0  0
   69.3246   74.7544   93.3386 C   0  0  0  0  0  0  0  0  0  0  0  0
   69.4947   73.3363   92.8619 C   0  0  0  0  0  0  0  0  0  0  0  0
   69.0490   72.9600   91.5846 C   0  0  0  0  0  0  0  0  0  0  0  0
   69.2718   71.6619   91.1141 C   0  0  0  0  0  0  0  0  0  0  0  0
   69.9518   70.7306   91.9109 C   0  0  0  0  0  0  0  0  0  0  0  0
   70.1742   69.4332   91.4555 O   0  0  0  0  0  0  0  0  0  0  0  0
   70.4068   71.1045   93.1793 C   0  0  0  0  0  0  0  0  0  0  0  0
   70.1831   72.4007   93.6529 C   0  0  0  0  0  0  0  0  0  0  0  0
   69.8719   69.1764   90.6066 H   0  0  0  0  0  0  0  0  0  0  0  0
   66.3174   80.6842   87.7347 C   0  0  0  0  0  0  0  0  0  0  0  0
   67.0504   81.6657   88.4743 O   0  0  0  0  0  0  0  0  0  0  0  0
   70.1449   83.6864   87.8030 C   0  0  0  0  0  0  0  0  0  0  0  0
   69.3110   82.6509   88.2664 C   0  0  0  0  0  0  0  0  0  0  0  0
   67.9425   82.6138   87.9385 C   0  0  0  0  0  0  0  0  0  0  0  0
   67.4305   83.5763   87.0672 C   0  0  0  0  0  0  0  0  0  0  0  0
   68.2636   84.5513   86.5195 C   0  0  0  0  0  0  0  0  0  0  0  0
   69.6198   84.6074   86.8586 C   0  0  0  0  0  0  0  0  0  0  0  0
   70.4035   85.5675   86.2149 O   0  0  0  0  0  0  0  0  0  0  0  0
   70.0124   86.1547   85.5983 H   0  0  0  0  0  0  0  0  0  0  0  0
   71.7140   83.4756   89.6021 O   0  0  0  0  0  0  0  0  0  0  0  0
   71.4967   83.8206   88.4108 C   0  0  0  0  0  0  0  0  0  0  0  0
   72.5697   84.2497   87.6324 O   0  0  0  0  0  0  0  0  0  0  0  0
   72.4289   84.5106   86.7435 H   0  0  0  0  0  0  0  0  0  0  0  0
  1  2  2  0  0  0  0
  2  3  1  0  0  0  0
  3  4  2  0  0  0  0
  4  5  1  0  0  0  0
  5  7  1  0  0  0  0
  5  6  2  0  0  0  0
  6  1  1  0  0  0  0
  7  8  2  0  0  0  0
  8  9  1  0  0  0  0
  9 10  2  0  0  0  0
 10 11  1  0  0  0  0
 11 13  1  0  0  0  0
 11 12  2  0  0  0  0
 12  7  1  0  0  0  0
 13 14  1  0  0  0  0
 14 15  1  0  0  0  0
 15 16  2  0  0  0  0
 16 17  1  0  0  0  0
 17 18  2  0  0  0  0
 18 19  1  0  0  0  0
 18 20  1  0  0  0  0
 19 22  1  0  0  0  0
 20 21  2  0  0  0  0
 21 15  1  0  0  0  0
 23  1  1  0  0  0  0
 24 23  1  0  0  0  0
 25 26  2  0  0  0  0
 26 27  1  0  0  0  0
 27 24  1  0  0  0  0
 27 28  2  0  0  0  0
 28 29  1  0  0  0  0
 29 30  2  0  0  0  0
 30 31  1  0  0  0  0
 30 25  1  0  0  0  0
 31 32  1  0  0  0  0
 33 34  2  0  0  0  0
 34 35  1  0  0  0  0
 34 25  1  0  0  0  0
 35 36  1  0  0  0  0
M  END
>  <Activity>
6.5

>  <minimizedAffinity>
-9.19531

>  <RFScoreVS_v2>
6.00528513915

$$$$
HIPS7006
 OpenBabel05252300073D

 36 39  0  0  0  0  0  0  0  0999 V2000
   68.5088   74.7140   90.7281 C   0  0  0  0  0  0  0  0  0  0  0  0
   67.8596   73.7629   89.9299 C   0  0  0  0  0  0  0  0  0  0  0  0
   67.0911   74.1725   88.8391 C   0  0  0  0  0  0  0  0  0  0  0  0
   66.9767   75.5304   88.5277 C   0  0  0  0  0  0  0  0  0  0  0  0
   67.5973   76.5051   89.3338 C   0  0  0  0  0  0  0  0  0  0  0  0
   68.3236   76.0800   90.4626 C   0  0  0  0  0  0  0  0  0  0  0  0
   67.5439   77.9512   88.9684 C   0  0  0  0  0  0  0  0  0  0  0  0
   66.6734   78.4097   87.9616 C   0  0  0  0  0  0  0  0  0  0  0  0
   66.6605   79.7571   87.5946 C   0  0  0  0  0  0  0  0  0  0  0  0
   67.4966   80.6694   88.2396 C   0  0  0  0  0  0  0  0  0  0  0  0
   68.3445   80.2491   89.2682 C   0  0  0  0  0  0  0  0  0  0  0  0
   68.3820   78.8858   89.6135 C   0  0  0  0  0  0  0  0  0  0  0  0
   69.1218   81.2154   89.9269 O   0  0  0  0  0  0  0  0  0  0  0  0
   70.5499   81.2223   89.9790 C   0  0  0  0  0  0  0  0  0  0  0  0
   71.1206   82.5024   89.4288 C   0  0  0  0  0  0  0  0  0  0  0  0
   72.4307   82.8906   89.7522 C   0  0  0  0  0  0  0  0  0  0  0  0
   72.9857   84.0418   89.1840 C   0  0  0  0  0  0  0  0  0  0  0  0
   72.2408   84.8100   88.2786 C   0  0  0  0  0  0  0  0  0  0  0  0
   72.7806   85.9617   87.7110 O   0  0  0  0  0  0  0  0  0  0  0  0
   70.9394   84.4210   87.9456 C   0  0  0  0  0  0  0  0  0  0  0  0
   70.3817   83.2721   88.5143 C   0  0  0  0  0  0  0  0  0  0  0  0
   73.6519   86.2279   87.9299 H   0  0  0  0  0  0  0  0  0  0  0  0
   69.4630   74.2847   91.8141 C   0  0  0  0  0  0  0  0  0  0  0  0
   69.1138   73.0056   92.3523 O   0  0  0  0  0  0  0  0  0  0  0  0
   71.7757   70.4804   93.1571 C   0  0  0  0  0  0  0  0  0  0  0  0
   70.9168   71.5890   93.2832 C   0  0  0  0  0  0  0  0  0  0  0  0
   69.9149   71.8482   92.3288 C   0  0  0  0  0  0  0  0  0  0  0  0
   69.7200   70.9371   91.2898 C   0  0  0  0  0  0  0  0  0  0  0  0
   70.4962   69.7817   91.2053 C   0  0  0  0  0  0  0  0  0  0  0  0
   71.5085   69.5292   92.1375 C   0  0  0  0  0  0  0  0  0  0  0  0
   72.1945   68.3177   92.0280 O   0  0  0  0  0  0  0  0  0  0  0  0
   71.9834   67.7205   91.3376 H   0  0  0  0  0  0  0  0  0  0  0  0
   73.7745   71.3970   94.1098 O   0  0  0  0  0  0  0  0  0  0  0  0
   72.9784   70.4246   94.0319 C   0  0  0  0  0  0  0  0  0  0  0  0
   73.1909   69.3187   94.8523 O   0  0  0  0  0  0  0  0  0  0  0  0
   72.6097   68.5849   94.8094 H   0  0  0  0  0  0  0  0  0  0  0  0
  1  2  2  0  0  0  0
  2  3  1  0  0  0  0
  3  4  2  0  0  0  0
  4  5  1  0  0  0  0
  5  7  1  0  0  0  0
  5  6  2  0  0  0  0
  6  1  1  0  0  0  0
  7  8  2  0  0  0  0
  8  9  1  0  0  0  0
  9 10  2  0  0  0  0
 10 11  1  0  0  0  0
 11 13  1  0  0  0  0
 11 12  2  0  0  0  0
 12  7  1  0  0  0  0
 13 14  1  0  0  0  0
 14 15  1  0  0  0  0
 15 16  2  0  0  0  0
 16 17  1  0  0  0  0
 17 18  2  0  0  0  0
 18 19  1  0  0  0  0
 18 20  1  0  0  0  0
 19 22  1  0  0  0  0
 20 21  2  0  0  0  0
 21 15  1  0  0  0  0
 23  1  1  0  0  0  0
 24 23  1  0  0  0  0
 25 26  2  0  0  0  0
 26 27  1  0  0  0  0
 27 24  1  0  0  0  0
 27 28  2  0  0  0  0
 28 29  1  0  0  0  0
 29 30  2  0  0  0  0
 30 31  1  0  0  0  0
 30 25  1  0  0  0  0
 31 32  1  0  0  0  0
 33 34  2  0  0  0  0
 34 35  1  0  0  0  0
 34 25  1  0  0  0  0
 35 36  1  0  0  0  0
M  END
>  <Activity>
6.5

>  <minimizedAffinity>
-9.03310

>  <RFScoreVS_v2>
5.99434914258

$$$$
HIPS7006
 OpenBabel05252300073D

 36 39  0  0  0  0  0  0  0  0999 V2000
   67.3149   76.1501   88.5544 C   0  0  0  0  0  0  0  0  0  0  0  0
   67.1300   75.9250   87.1838 C   0  0  0  0  0  0  0  0  0  0  0  0
   67.1032   77.0014   86.2956 C   0  0  0  0  0  0  0  0  0  0  0  0
   67.2753   78.3069   86.7648 C   0  0  0  0  0  0  0  0  0  0  0  0
   67.4337   78.5582   88.1421 C   0  0  0  0  0  0  0  0  0  0  0  0
   67.4034   77.4672   89.0317 C   0  0  0  0  0  0  0  0  0  0  0  0
   67.6925   79.9390   88.6458 C   0  0  0  0  0  0  0  0  0  0  0  0
   68.2948   80.1486   89.9009 C   0  0  0  0  0  0  0  0  0  0  0  0
   68.4936   81.4434   90.3848 C   0  0  0  0  0  0  0  0  0  0  0  0
   68.1168   82.5463   89.6174 C   0  0  0  0  0  0  0  0  0  0  0  0
   67.5504   82.3689   88.3520 C   0  0  0  0  0  0  0  0  0  0  0  0
   67.3187   81.0641   87.8800 C   0  0  0  0  0  0  0  0  0  0  0  0
   67.2442   83.5105   87.5937 O   0  0  0  0  0  0  0  0  0  0  0  0
   68.0544   84.0368   86.5408 C   0  0  0  0  0  0  0  0  0  0  0  0
   69.3165   84.6643   87.0705 C   0  0  0  0  0  0  0  0  0  0  0  0
   70.5438   83.9916   86.9566 C   0  0  0  0  0  0  0  0  0  0  0  0
   71.7263   84.6049   87.3831 C   0  0  0  0  0  0  0  0  0  0  0  0
   71.6951   85.9004   87.9172 C   0  0  0  0  0  0  0  0  0  0  0  0
   72.8654   86.5190   88.3508 O   0  0  0  0  0  0  0  0  0  0  0  0
   70.4763   86.5780   88.0224 C   0  0  0  0  0  0  0  0  0  0  0  0
   69.2927   85.9661   87.5992 C   0  0  0  0  0  0  0  0  0  0  0  0
   73.6852   86.0704   88.2831 H   0  0  0  0  0  0  0  0  0  0  0  0
   67.4986   74.9946   89.5058 C   0  0  0  0  0  0  0  0  0  0  0  0
   67.5144   75.4273   90.8697 O   0  0  0  0  0  0  0  0  0  0  0  0
   67.8230   73.8613   94.2700 C   0  0  0  0  0  0  0  0  0  0  0  0
   67.2578   74.4997   93.1496 C   0  0  0  0  0  0  0  0  0  0  0  0
   67.9990   74.6925   91.9684 C   0  0  0  0  0  0  0  0  0  0  0  0
   69.2868   74.1612   91.8849 C   0  0  0  0  0  0  0  0  0  0  0  0
   69.8261   73.4394   92.9493 C   0  0  0  0  0  0  0  0  0  0  0  0
   69.1035   73.2633   94.1343 C   0  0  0  0  0  0  0  0  0  0  0  0
   69.6818   72.4692   95.1269 O   0  0  0  0  0  0  0  0  0  0  0  0
   70.5303   72.0951   94.9925 H   0  0  0  0  0  0  0  0  0  0  0  0
   67.2954   73.1058   96.4822 O   0  0  0  0  0  0  0  0  0  0  0  0
   67.0921   73.9428   95.5638 C   0  0  0  0  0  0  0  0  0  0  0  0
   66.2314   75.0104   95.8103 O   0  0  0  0  0  0  0  0  0  0  0  0
   66.0670   75.6441   95.1400 H   0  0  0  0  0  0  0  0  0  0  0  0
  1  2  2  0  0  0  0
  2  3  1  0  0  0  0
  3  4  2  0  0  0  0
  4  5  1  0  0  0  0
  5  7  1  0  0  0  0
  5  6  2  0  0  0  0
  6  1  1  0  0  0  0
  7  8  2  0  0  0  0
  8  9  1  0  0  0  0
  9 10  2  0  0  0  0
 10 11  1  0  0  0  0
 11 13  1  0  0  0  0
 11 12  2  0  0  0  0
 12  7  1  0  0  0  0
 13 14  1  0  0  0  0
 14 15  1  0  0  0  0
 15 16  2  0  0  0  0
 16 17  1  0  0  0  0
 17 18  2  0  0  0  0
 18 19  1  0  0  0  0
 18 20  1  0  0  0  0
 19 22  1  0  0  0  0
 20 21  2  0  0  0  0
 21 15  1  0  0  0  0
 23  1  1  0  0  0  0
 24 23  1  0  0  0  0
 25 26  2  0  0  0  0
 26 27  1  0  0  0  0
 27 24  1  0  0  0  0
 27 28  2  0  0  0  0
 28 29  1  0  0  0  0
 29 30  2  0  0  0  0
 30 31  1  0  0  0  0
 30 25  1  0  0  0  0
 31 32  1  0  0  0  0
 33 34  2  0  0  0  0
 34 35  1  0  0  0  0
 34 25  1  0  0  0  0
 35 36  1  0  0  0  0
M  END
>  <Activity>
6.5

>  <minimizedAffinity>
-9.02757

>  <RFScoreVS_v2>
6.01996382317

$$$$
HIPS6999
 OpenBabel05252300073D

 35 38  0  0  0  0  0  0  0  0999 V2000
   69.3725   78.1080   90.1924 C   0  0  0  0  0  0  0  0  0  0  0  0
   70.7585   78.3472   90.1569 C   0  0  0  0  0  0  0  0  0  0  0  0
   71.6153   77.6725   91.0295 C   0  0  0  0  0  0  0  0  0  0  0  0
   71.1019   76.7566   91.9497 C   0  0  0  0  0  0  0  0  0  0  0  0
   69.7214   76.5172   92.0124 C   0  0  0  0  0  0  0  0  0  0  0  0
   68.8631   77.1834   91.1228 C   0  0  0  0  0  0  0  0  0  0  0  0
   67.5505   80.9066   88.3657 C   0  0  0  0  0  0  0  0  0  0  0  0
   66.7155   80.1681   87.5208 C   0  0  0  0  0  0  0  0  0  0  0  0
   66.7456   78.7725   87.5380 C   0  0  0  0  0  0  0  0  0  0  0  0
   67.6102   78.0992   88.4035 C   0  0  0  0  0  0  0  0  0  0  0  0
   68.4620   78.8191   89.2594 C   0  0  0  0  0  0  0  0  0  0  0  0
   68.4335   80.2251   89.2257 C   0  0  0  0  0  0  0  0  0  0  0  0
   67.4694   82.3082   88.3204 O   0  0  0  0  0  0  0  0  0  0  0  0
   67.6885   83.1106   87.1587 C   0  0  0  0  0  0  0  0  0  0  0  0
   72.4479   86.4009   87.7908 C   0  0  0  0  0  0  0  0  0  0  0  0
   71.2222   85.5571   87.6029 C   0  0  0  0  0  0  0  0  0  0  0  0
   71.3292   84.1594   87.5490 C   0  0  0  0  0  0  0  0  0  0  0  0
   70.1845   83.3696   87.4060 C   0  0  0  0  0  0  0  0  0  0  0  0
   68.9174   83.9666   87.3215 C   0  0  0  0  0  0  0  0  0  0  0  0
   68.8084   85.3638   87.4095 C   0  0  0  0  0  0  0  0  0  0  0  0
   69.9533   86.1535   87.5498 C   0  0  0  0  0  0  0  0  0  0  0  0
   69.1743   75.5005   92.9712 C   0  0  0  0  0  0  0  0  0  0  0  0
   70.1718   74.5163   93.2287 O   0  0  0  0  0  0  0  0  0  0  0  0
   70.0562   73.1603   92.8891 C   0  0  0  0  0  0  0  0  0  0  0  0
   69.5141   72.7335   91.6657 C   0  0  0  0  0  0  0  0  0  0  0  0
   69.4110   71.3717   91.3808 C   0  0  0  0  0  0  0  0  0  0  0  0
   69.8402   70.4127   92.3046 C   0  0  0  0  0  0  0  0  0  0  0  0
   69.6350   69.0683   91.9866 O   0  0  0  0  0  0  0  0  0  0  0  0
   70.4263   70.8302   93.5261 C   0  0  0  0  0  0  0  0  0  0  0  0
   70.5057   72.2059   93.8075 C   0  0  0  0  0  0  0  0  0  0  0  0
   69.2440   68.8350   91.1677 H   0  0  0  0  0  0  0  0  0  0  0  0
   70.9883   69.8800   94.5112 C   0  0  0  0  0  0  0  0  0  0  0  0
   70.7779   70.0290   95.7446 O   0  0  0  0  0  0  0  0  0  0  0  0
   71.7087   68.7726   94.0717 O   0  0  0  0  0  0  0  0  0  0  0  0
   71.8708   68.6522   93.1567 H   0  0  0  0  0  0  0  0  0  0  0  0
  1  2  2  0  0  0  0
  2  3  1  0  0  0  0
  3  4  2  0  0  0  0
  4  5  1  0  0  0  0
  5 22  1  0  0  0  0
  5  6  2  0  0  0  0
  6  1  1  0  0  0  0
  7  8  2  0  0  0  0
  8  9  1  0  0  0  0
  9 10  2  0  0  0  0
 10 11  1  0  0  0  0
 11  1  1  0  0  0  0
 11 12  2  0  0  0  0
 12  7  1  0  0  0  0
 13  7  1  0  0  0  0
 14 13  1  0  0  0  0
 15 16  1  0  0  0  0
 16 17  2  0  0  0  0
 17 18  1  0  0  0  0
 18 19  2  0  0  0  0
 19 14  1  0  0  0  0
 19 20  1  0  0  0  0
 20 21  2  0  0  0  0
 21 16  1  0  0  0  0
 22 23  1  0  0  0  0
 23 24  1  0  0  0  0
 24 25  2  0  0  0  0
 25 26  1  0  0  0  0
 26 27  2  0  0  0  0
 27 28  1  0  0  0  0
 27 29  1  0  0  0  0
 28 31  1  0  0  0  0
 29 32  1  0  0  0  0
 29 30  2  0  0  0  0
 30 24  1  0  0  0  0
 32 33  2  0  0  0  0
 32 34  1  0  0  0  0
 34 35  1  0  0  0  0
M  END
>  <Activity>
7.6

>  <minimizedAffinity>
-9.67368

>  <RFScoreVS_v2>
5.98015946521

$$$$
HIPS6999
 OpenBabel05252300073D

 35 38  0  0  0  0  0  0  0  0999 V2000
   70.3068   80.7410   89.9261 C   0  0  0  0  0  0  0  0  0  0  0  0
   68.9013   80.7475   89.9919 C   0  0  0  0  0  0  0  0  0  0  0  0
   68.2066   79.6036   90.3914 C   0  0  0  0  0  0  0  0  0  0  0  0
   68.9023   78.4400   90.7249 C   0  0  0  0  0  0  0  0  0  0  0  0
   70.3024   78.4081   90.6490 C   0  0  0  0  0  0  0  0  0  0  0  0
   71.0003   79.5641   90.2638 C   0  0  0  0  0  0  0  0  0  0  0  0
   71.2086   83.9715   88.1263 C   0  0  0  0  0  0  0  0  0  0  0  0
   72.4579   84.2467   88.6918 C   0  0  0  0  0  0  0  0  0  0  0  0
   73.0032   83.3948   89.6541 C   0  0  0  0  0  0  0  0  0  0  0  0
   72.3054   82.2554   90.0599 C   0  0  0  0  0  0  0  0  0  0  0  0
   71.0462   81.9594   89.5091 C   0  0  0  0  0  0  0  0  0  0  0  0
   70.4994   82.8305   88.5496 C   0  0  0  0  0  0  0  0  0  0  0  0
   70.7125   84.8520   87.1507 O   0  0  0  0  0  0  0  0  0  0  0  0
   69.4757   85.5626   87.2325 C   0  0  0  0  0  0  0  0  0  0  0  0
   69.3201   88.9046   91.9953 C   0  0  0  0  0  0  0  0  0  0  0  0
   69.3367   88.0509   90.7622 C   0  0  0  0  0  0  0  0  0  0  0  0
   69.9537   88.5149   89.5909 C   0  0  0  0  0  0  0  0  0  0  0  0
   69.9983   87.7079   88.4502 C   0  0  0  0  0  0  0  0  0  0  0  0
   69.4322   86.4240   88.4676 C   0  0  0  0  0  0  0  0  0  0  0  0
   68.8446   85.9477   89.6506 C   0  0  0  0  0  0  0  0  0  0  0  0
   68.7978   86.7558   90.7903 C   0  0  0  0  0  0  0  0  0  0  0  0
   71.0522   77.1714   91.0495 C   0  0  0  0  0  0  0  0  0  0  0  0
   70.8850   76.9555   92.4480 O   0  0  0  0  0  0  0  0  0  0  0  0
   69.9484   76.0753   93.0095 C   0  0  0  0  0  0  0  0  0  0  0  0
   69.3769   76.2898   94.2745 C   0  0  0  0  0  0  0  0  0  0  0  0
   68.4574   75.3775   94.7928 C   0  0  0  0  0  0  0  0  0  0  0  0
   68.0930   74.2381   94.0675 C   0  0  0  0  0  0  0  0  0  0  0  0
   67.2280   73.3285   94.6800 O   0  0  0  0  0  0  0  0  0  0  0  0
   68.6314   74.0304   92.7726 C   0  0  0  0  0  0  0  0  0  0  0  0
   69.5717   74.9485   92.2715 C   0  0  0  0  0  0  0  0  0  0  0  0
   66.8943   73.5041   95.5378 H   0  0  0  0  0  0  0  0  0  0  0  0
   68.2248   72.9012   91.9073 C   0  0  0  0  0  0  0  0  0  0  0  0
   68.9334   72.5525   90.9254 O   0  0  0  0  0  0  0  0  0  0  0  0
   67.0776   72.1737   92.2124 O   0  0  0  0  0  0  0  0  0  0  0  0
   66.5436   72.4244   92.9404 H   0  0  0  0  0  0  0  0  0  0  0  0
  1  2  2  0  0  0  0
  2  3  1  0  0  0  0
  3  4  2  0  0  0  0
  4  5  1  0  0  0  0
  5 22  1  0  0  0  0
  5  6  2  0  0  0  0
  6  1  1  0  0  0  0
  7  8  2  0  0  0  0
  8  9  1  0  0  0  0
  9 10  2  0  0  0  0
 10 11  1  0  0  0  0
 11  1  1  0  0  0  0
 11 12  2  0  0  0  0
 12  7  1  0  0  0  0
 13  7  1  0  0  0  0
 14 13  1  0  0  0  0
 15 16  1  0  0  0  0
 16 17  2  0  0  0  0
 17 18  1  0  0  0  0
 18 19  2  0  0  0  0
 19 14  1  0  0  0  0
 19 20  1  0  0  0  0
 20 21  2  0  0  0  0
 21 16  1  0  0  0  0
 22 23  1  0  0  0  0
 23 24  1  0  0  0  0
 24 25  2  0  0  0  0
 25 26  1  0  0  0  0
 26 27  2  0  0  0  0
 27 28  1  0  0  0  0
 27 29  1  0  0  0  0
 28 31  1  0  0  0  0
 29 32  1  0  0  0  0
 29 30  2  0  0  0  0
 30 24  1  0  0  0  0
 32 33  2  0  0  0  0
 32 34  1  0  0  0  0
 34 35  1  0  0  0  0
M  END
>  <Activity>
7.6

>  <minimizedAffinity>
-9.57542

>  <RFScoreVS_v2>
5.98019459787

$$$$
HIPS6999
 OpenBabel05252300073D

 35 38  0  0  0  0  0  0  0  0999 V2000
   69.1325   80.1603   90.3376 C   0  0  0  0  0  0  0  0  0  0  0  0
   70.5261   80.0573   90.1736 C   0  0  0  0  0  0  0  0  0  0  0  0
   71.1565   78.8130   90.2443 C   0  0  0  0  0  0  0  0  0  0  0  0
   70.4080   77.6590   90.4836 C   0  0  0  0  0  0  0  0  0  0  0  0
   69.0201   77.7430   90.6670 C   0  0  0  0  0  0  0  0  0  0  0  0
   68.3855   78.9924   90.5786 C   0  0  0  0  0  0  0  0  0  0  0  0
   67.6037   83.3446   88.9190 C   0  0  0  0  0  0  0  0  0  0  0  0
   67.2219   83.9985   90.0950 C   0  0  0  0  0  0  0  0  0  0  0  0
   67.4526   83.4102   91.3398 C   0  0  0  0  0  0  0  0  0  0  0  0
   68.0712   82.1610   91.4224 C   0  0  0  0  0  0  0  0  0  0  0  0
   68.4607   81.4821   90.2546 C   0  0  0  0  0  0  0  0  0  0  0  0
   68.2124   82.0772   89.0045 C   0  0  0  0  0  0  0  0  0  0  0  0
   67.3632   83.9873   87.6933 O   0  0  0  0  0  0  0  0  0  0  0  0
   68.3122   84.1269   86.6344 C   0  0  0  0  0  0  0  0  0  0  0  0
   73.0558   86.9674   88.4532 C   0  0  0  0  0  0  0  0  0  0  0  0
   71.8361   86.2460   87.9616 C   0  0  0  0  0  0  0  0  0  0  0  0
   71.9268   84.9095   87.5449 C   0  0  0  0  0  0  0  0  0  0  0  0
   70.7853   84.2255   87.1166 C   0  0  0  0  0  0  0  0  0  0  0  0
   69.5371   84.8667   87.1053 C   0  0  0  0  0  0  0  0  0  0  0  0
   69.4418   86.1937   87.5544 C   0  0  0  0  0  0  0  0  0  0  0  0
   70.5838   86.8783   87.9801 C   0  0  0  0  0  0  0  0  0  0  0  0
   68.2101   76.4978   90.8805 C   0  0  0  0  0  0  0  0  0  0  0  0
   67.3282   76.6967   91.9819 O   0  0  0  0  0  0  0  0  0  0  0  0
   67.2148   75.8264   93.0759 C   0  0  0  0  0  0  0  0  0  0  0  0
   66.0248   75.6891   93.8093 C   0  0  0  0  0  0  0  0  0  0  0  0
   65.9675   74.8171   94.8969 C   0  0  0  0  0  0  0  0  0  0  0  0
   67.0886   74.0709   95.2759 C   0  0  0  0  0  0  0  0  0  0  0  0
   66.9831   73.2778   96.4207 O   0  0  0  0  0  0  0  0  0  0  0  0
   68.2837   74.1696   94.5198 C   0  0  0  0  0  0  0  0  0  0  0  0
   68.3324   75.0672   93.4381 C   0  0  0  0  0  0  0  0  0  0  0  0
   66.1740   73.2406   96.8919 H   0  0  0  0  0  0  0  0  0  0  0  0
   69.4798   73.3450   94.8003 C   0  0  0  0  0  0  0  0  0  0  0  0
   69.5845   72.7063   95.8814 O   0  0  0  0  0  0  0  0  0  0  0  0
   70.4772   73.2221   93.8367 O   0  0  0  0  0  0  0  0  0  0  0  0
   70.4092   73.6926   93.0293 H   0  0  0  0  0  0  0  0  0  0  0  0
  1  2  2  0  0  0  0
  2  3  1  0  0  0  0
  3  4  2  0  0  0  0
  4  5  1  0  0  0  0
  5 22  1  0  0  0  0
  5  6  2  0  0  0  0
  6  1  1  0  0  0  0
  7  8  2  0  0  0  0
  8  9  1  0  0  0  0
  9 10  2  0  0  0  0
 10 11  1  0  0  0  0
 11  1  1  0  0  0  0
 11 12  2  0  0  0  0
 12  7  1  0  0  0  0
 13  7  1  0  0  0  0
 14 13  1  0  0  0  0
 15 16  1  0  0  0  0
 16 17  2  0  0  0  0
 17 18  1  0  0  0  0
 18 19  2  0  0  0  0
 19 14  1  0  0  0  0
 19 20  1  0  0  0  0
 20 21  2  0  0  0  0
 21 16  1  0  0  0  0
 22 23  1  0  0  0  0
 23 24  1  0  0  0  0
 24 25  2  0  0  0  0
 25 26  1  0  0  0  0
 26 27  2  0  0  0  0
 27 28  1  0  0  0  0
 27 29  1  0  0  0  0
 28 31  1  0  0  0  0
 29 32  1  0  0  0  0
 29 30  2  0  0  0  0
 30 24  1  0  0  0  0
 32 33  2  0  0  0  0
 32 34  1  0  0  0  0
 34 35  1  0  0  0  0
M  END
>  <Activity>
7.6

>  <minimizedAffinity>
-9.41161

>  <RFScoreVS_v2>
6.03928419073

$$$$
HIPS6999
 OpenBabel05252300073D

 35 38  0  0  0  0  0  0  0  0999 V2000
   67.7365   77.1273   89.0911 C   0  0  0  0  0  0  0  0  0  0  0  0
   66.7634   77.8407   88.3673 C   0  0  0  0  0  0  0  0  0  0  0  0
   66.8540   79.2285   88.2385 C   0  0  0  0  0  0  0  0  0  0  0  0
   67.9106   79.9215   88.8323 C   0  0  0  0  0  0  0  0  0  0  0  0
   68.8810   79.2304   89.5724 C   0  0  0  0  0  0  0  0  0  0  0  0
   68.7981   77.8333   89.6866 C   0  0  0  0  0  0  0  0  0  0  0  0
   68.3559   73.5691   90.2932 C   0  0  0  0  0  0  0  0  0  0  0  0
   67.5009   72.8543   89.4479 C   0  0  0  0  0  0  0  0  0  0  0  0
   66.7240   73.5202   88.4981 C   0  0  0  0  0  0  0  0  0  0  0  0
   66.7960   74.9098   88.3811 C   0  0  0  0  0  0  0  0  0  0  0  0
   67.6449   75.6509   89.2217 C   0  0  0  0  0  0  0  0  0  0  0  0
   68.4141   74.9722   90.1842 C   0  0  0  0  0  0  0  0  0  0  0  0
   69.1277   72.8495   91.2204 O   0  0  0  0  0  0  0  0  0  0  0  0
   68.6067   72.0234   92.2632 C   0  0  0  0  0  0  0  0  0  0  0  0
   66.2399   75.2583   96.4836 C   0  0  0  0  0  0  0  0  0  0  0  0
   66.8484   74.4043   95.4112 C   0  0  0  0  0  0  0  0  0  0  0  0
   66.0504   73.8983   94.3744 C   0  0  0  0  0  0  0  0  0  0  0  0
   66.6214   73.1288   93.3564 C   0  0  0  0  0  0  0  0  0  0  0  0
   67.9988   72.8605   93.3582 C   0  0  0  0  0  0  0  0  0  0  0  0
   68.8020   73.3957   94.3781 C   0  0  0  0  0  0  0  0  0  0  0  0
   68.2305   74.1628   95.3973 C   0  0  0  0  0  0  0  0  0  0  0  0
   70.0403   79.9699   90.1735 C   0  0  0  0  0  0  0  0  0  0  0  0
   69.7205   81.3562   90.2524 O   0  0  0  0  0  0  0  0  0  0  0  0
   70.4280   82.3732   89.5950 C   0  0  0  0  0  0  0  0  0  0  0  0
   71.7947   82.6070   89.8199 C   0  0  0  0  0  0  0  0  0  0  0  0
   72.4498   83.6394   89.1481 C   0  0  0  0  0  0  0  0  0  0  0  0
   71.7604   84.4574   88.2464 C   0  0  0  0  0  0  0  0  0  0  0  0
   72.4595   85.5199   87.6694 O   0  0  0  0  0  0  0  0  0  0  0  0
   70.3908   84.2068   87.9798 C   0  0  0  0  0  0  0  0  0  0  0  0
   69.7391   83.1750   88.6790 C   0  0  0  0  0  0  0  0  0  0  0  0
   73.3649   85.6503   87.8725 H   0  0  0  0  0  0  0  0  0  0  0  0
   69.6184   84.9667   86.9722 C   0  0  0  0  0  0  0  0  0  0  0  0
   68.3970   85.2195   87.1510 O   0  0  0  0  0  0  0  0  0  0  0  0
   70.2582   85.4623   85.8393 O   0  0  0  0  0  0  0  0  0  0  0  0
   71.1662   85.2802   85.6966 H   0  0  0  0  0  0  0  0  0  0  0  0
  1  2  2  0  0  0  0
  2  3  1  0  0  0  0
  3  4  2  0  0  0  0
  4  5  1  0  0  0  0
  5 22  1  0  0  0  0
  5  6  2  0  0  0  0
  6  1  1  0  0  0  0
  7  8  2  0  0  0  0
  8  9  1  0  0  0  0
  9 10  2  0  0  0  0
 10 11  1  0  0  0  0
 11  1  1  0  0  0  0
 11 12  2  0  0  0  0
 12  7  1  0  0  0  0
 13  7  1  0  0  0  0
 14 13  1  0  0  0  0
 15 16  1  0  0  0  0
 16 17  2  0  0  0  0
 17 18  1  0  0  0  0
 18 19  2  0  0  0  0
 19 14  1  0  0  0  0
 19 20  1  0  0  0  0
 20 21  2  0  0  0  0
 21 16  1  0  0  0  0
 22 23  1  0  0  0  0
 23 24  1  0  0  0  0
 24 25  2  0  0  0  0
 25 26  1  0  0  0  0
 26 27  2  0  0  0  0
 27 28  1  0  0  0  0
 27 29  1  0  0  0  0
 28 31  1  0  0  0  0
 29 32  1  0  0  0  0
 29 30  2  0  0  0  0
 30 24  1  0  0  0  0
 32 33  2  0  0  0  0
 32 34  1  0  0  0  0
 34 35  1  0  0  0  0
M  END
>  <Activity>
7.6

>  <minimizedAffinity>
-9.39733

>  <RFScoreVS_v2>
5.98530379841

$$$$
HIPS6999
 OpenBabel05252300073D

 35 38  0  0  0  0  0  0  0  0999 V2000
   68.9625   72.4738   91.3187 C   0  0  0  0  0  0  0  0  0  0  0  0
   69.3223   71.1610   90.9629 C   0  0  0  0  0  0  0  0  0  0  0  0
   69.9986   70.3423   91.8703 C   0  0  0  0  0  0  0  0  0  0  0  0
   70.3283   70.8227   93.1390 C   0  0  0  0  0  0  0  0  0  0  0  0
   69.9938   72.1343   93.5064 C   0  0  0  0  0  0  0  0  0  0  0  0
   69.2987   72.9503   92.5994 C   0  0  0  0  0  0  0  0  0  0  0  0
   67.5006   75.5641   89.6447 C   0  0  0  0  0  0  0  0  0  0  0  0
   66.8343   74.9842   88.5601 C   0  0  0  0  0  0  0  0  0  0  0  0
   66.8624   73.6016   88.3682 C   0  0  0  0  0  0  0  0  0  0  0  0
   67.5556   72.7825   89.2617 C   0  0  0  0  0  0  0  0  0  0  0  0
   68.2364   73.3418   90.3572 C   0  0  0  0  0  0  0  0  0  0  0  0
   68.2130   74.7370   90.5349 C   0  0  0  0  0  0  0  0  0  0  0  0
   67.4275   76.9581   89.8010 O   0  0  0  0  0  0  0  0  0  0  0  0
   67.7242   77.9191   88.7862 C   0  0  0  0  0  0  0  0  0  0  0  0
   71.5817   81.8405   90.6891 C   0  0  0  0  0  0  0  0  0  0  0  0
   70.5802   80.8260   90.2226 C   0  0  0  0  0  0  0  0  0  0  0  0
   69.3356   81.2400   89.7252 C   0  0  0  0  0  0  0  0  0  0  0  0
   68.4132   80.2979   89.2603 C   0  0  0  0  0  0  0  0  0  0  0  0
   68.7258   78.9301   89.2806 C   0  0  0  0  0  0  0  0  0  0  0  0
   69.9848   78.5193   89.7473 C   0  0  0  0  0  0  0  0  0  0  0  0
   70.9058   79.4613   90.2147 C   0  0  0  0  0  0  0  0  0  0  0  0
   70.3092   72.6358   94.8852 C   0  0  0  0  0  0  0  0  0  0  0  0
   69.0919   72.8614   95.5905 O   0  0  0  0  0  0  0  0  0  0  0  0
   68.1509   73.8464   95.2562 C   0  0  0  0  0  0  0  0  0  0  0  0
   66.8120   73.7826   95.6757 C   0  0  0  0  0  0  0  0  0  0  0  0
   65.9126   74.7832   95.3064 C   0  0  0  0  0  0  0  0  0  0  0  0
   66.3252   75.8597   94.5138 C   0  0  0  0  0  0  0  0  0  0  0  0
   65.3549   76.7825   94.1172 O   0  0  0  0  0  0  0  0  0  0  0  0
   67.6828   75.9574   94.1174 C   0  0  0  0  0  0  0  0  0  0  0  0
   68.5734   74.9312   94.4810 C   0  0  0  0  0  0  0  0  0  0  0  0
   64.4679   76.6813   94.4018 H   0  0  0  0  0  0  0  0  0  0  0  0
   68.2152   77.1111   93.3592 C   0  0  0  0  0  0  0  0  0  0  0  0
   67.5271   78.1554   93.2053 O   0  0  0  0  0  0  0  0  0  0  0  0
   69.5139   77.0707   92.8589 O   0  0  0  0  0  0  0  0  0  0  0  0
   70.0341   76.2991   92.9680 H   0  0  0  0  0  0  0  0  0  0  0  0
  1  2  2  0  0  0  0
  2  3  1  0  0  0  0
  3  4  2  0  0  0  0
  4  5  1  0  0  0  0
  5 22  1  0  0  0  0
  5  6  2  0  0  0  0
  6  1  1  0  0  0  0
  7  8  2  0  0  0  0
  8  9  1  0  0  0  0
  9 10  2  0  0  0  0
 10 11  1  0  0  0  0
 11  1  1  0  0  0  0
 11 12  2  0  0  0  0
 12  7  1  0  0  0  0
 13  7  1  0  0  0  0
 14 13  1  0  0  0  0
 15 16  1  0  0  0  0
 16 17  2  0  0  0  0
 17 18  1  0  0  0  0
 18 19  2  0  0  0  0
 19 14  1  0  0  0  0
 19 20  1  0  0  0  0
 20 21  2  0  0  0  0
 21 16  1  0  0  0  0
 22 23  1  0  0  0  0
 23 24  1  0  0  0  0
 24 25  2  0  0  0  0
 25 26  1  0  0  0  0
 26 27  2  0  0  0  0
 27 28  1  0  0  0  0
 27 29  1  0  0  0  0
 28 31  1  0  0  0  0
 29 32  1  0  0  0  0
 29 30  2  0  0  0  0
 30 24  1  0  0  0  0
 32 33  2  0  0  0  0
 32 34  1  0  0  0  0
 34 35  1  0  0  0  0
M  END
>  <Activity>
7.6

>  <minimizedAffinity>
-9.30414

>  <RFScoreVS_v2>
5.99302684774

$$$$
HIPS6999
 OpenBabel05252300073D

 35 38  0  0  0  0  0  0  0  0999 V2000
   68.6629   78.3957   89.2246 C   0  0  0  0  0  0  0  0  0  0  0  0
   67.9578   77.4783   88.4240 C   0  0  0  0  0  0  0  0  0  0  0  0
   66.9619   77.9211   87.5505 C   0  0  0  0  0  0  0  0  0  0  0  0
   66.6537   79.2803   87.4679 C   0  0  0  0  0  0  0  0  0  0  0  0
   67.3332   80.2085   88.2704 C   0  0  0  0  0  0  0  0  0  0  0  0
   68.3460   79.7638   89.1354 C   0  0  0  0  0  0  0  0  0  0  0  0
   70.4025   76.7180   92.1654 C   0  0  0  0  0  0  0  0  0  0  0  0
   71.7340   77.0658   91.9154 C   0  0  0  0  0  0  0  0  0  0  0  0
   72.0680   77.8341   90.7986 C   0  0  0  0  0  0  0  0  0  0  0  0
   71.0723   78.2660   89.9200 C   0  0  0  0  0  0  0  0  0  0  0  0
   69.7272   77.9262   90.1476 C   0  0  0  0  0  0  0  0  0  0  0  0
   69.4022   77.1410   91.2684 C   0  0  0  0  0  0  0  0  0  0  0  0
   70.1185   75.9572   93.3115 O   0  0  0  0  0  0  0  0  0  0  0  0
   69.0043   75.0755   93.4618 C   0  0  0  0  0  0  0  0  0  0  0  0
   70.2143   69.8074   91.3031 C   0  0  0  0  0  0  0  0  0  0  0  0
   69.9254   71.1730   91.8520 C   0  0  0  0  0  0  0  0  0  0  0  0
   69.1749   72.0907   91.1020 C   0  0  0  0  0  0  0  0  0  0  0  0
   68.8773   73.3526   91.6250 C   0  0  0  0  0  0  0  0  0  0  0  0
   69.3208   73.7111   92.9072 C   0  0  0  0  0  0  0  0  0  0  0  0
   70.0431   72.7796   93.6703 C   0  0  0  0  0  0  0  0  0  0  0  0
   70.3428   71.5189   93.1461 C   0  0  0  0  0  0  0  0  0  0  0  0
   67.0324   81.6738   88.1497 C   0  0  0  0  0  0  0  0  0  0  0  0
   67.8252   82.2293   87.1042 O   0  0  0  0  0  0  0  0  0  0  0  0
   68.7813   83.2398   87.2835 C   0  0  0  0  0  0  0  0  0  0  0  0
   68.6537   84.5103   86.6984 C   0  0  0  0  0  0  0  0  0  0  0  0
   69.6390   85.4773   86.8990 C   0  0  0  0  0  0  0  0  0  0  0  0
   70.7666   85.1993   87.6791 C   0  0  0  0  0  0  0  0  0  0  0  0
   71.7500   86.1866   87.7728 O   0  0  0  0  0  0  0  0  0  0  0  0
   70.8881   83.9348   88.3084 C   0  0  0  0  0  0  0  0  0  0  0  0
   69.8965   82.9636   88.0812 C   0  0  0  0  0  0  0  0  0  0  0  0
   71.6302   87.0096   87.3411 H   0  0  0  0  0  0  0  0  0  0  0  0
   72.0021   83.5983   89.2222 C   0  0  0  0  0  0  0  0  0  0  0  0
   73.1683   84.0217   89.0018 O   0  0  0  0  0  0  0  0  0  0  0  0
   71.7529   82.8553   90.3730 O   0  0  0  0  0  0  0  0  0  0  0  0
   70.8894   82.5357   90.5465 H   0  0  0  0  0  0  0  0  0  0  0  0
  1  2  2  0  0  0  0
  2  3  1  0  0  0  0
  3  4  2  0  0  0  0
  4  5  1  0  0  0  0
  5 22  1  0  0  0  0
  5  6  2  0  0  0  0
  6  1  1  0  0  0  0
  7  8  2  0  0  0  0
  8  9  1  0  0  0  0
  9 10  2  0  0  0  0
 10 11  1  0  0  0  0
 11  1  1  0  0  0  0
 11 12  2  0  0  0  0
 12  7  1  0  0  0  0
 13  7  1  0  0  0  0
 14 13  1  0  0  0  0
 15 16  1  0  0  0  0
 16 17  2  0  0  0  0
 17 18  1  0  0  0  0
 18 19  2  0  0  0  0
 19 14  1  0  0  0  0
 19 20  1  0  0  0  0
 20 21  2  0  0  0  0
 21 16  1  0  0  0  0
 22 23  1  0  0  0  0
 23 24  1  0  0  0  0
 24 25  2  0  0  0  0
 25 26  1  0  0  0  0
 26 27  2  0  0  0  0
 27 28  1  0  0  0  0
 27 29  1  0  0  0  0
 28 31  1  0  0  0  0
 29 32  1  0  0  0  0
 29 30  2  0  0  0  0
 30 24  1  0  0  0  0
 32 33  2  0  0  0  0
 32 34  1  0  0  0  0
 34 35  1  0  0  0  0
M  END
>  <Activity>
7.6

>  <minimizedAffinity>
-9.27517

>  <RFScoreVS_v2>
5.99558609777

$$$$
HIPS6999
 OpenBabel05252300073D

 35 38  0  0  0  0  0  0  0  0999 V2000
   68.1557   73.2506   90.1622 C   0  0  0  0  0  0  0  0  0  0  0  0
   67.4126   72.5324   89.2074 C   0  0  0  0  0  0  0  0  0  0  0  0
   66.6801   73.2068   88.2279 C   0  0  0  0  0  0  0  0  0  0  0  0
   66.6751   74.6024   88.1910 C   0  0  0  0  0  0  0  0  0  0  0  0
   67.3954   75.3365   89.1446 C   0  0  0  0  0  0  0  0  0  0  0  0
   68.1453   74.6570   90.1181 C   0  0  0  0  0  0  0  0  0  0  0  0
   70.0283   72.5030   93.3908 C   0  0  0  0  0  0  0  0  0  0  0  0
   70.4568   71.1938   93.1481 C   0  0  0  0  0  0  0  0  0  0  0  0
   70.1370   70.5544   91.9490 C   0  0  0  0  0  0  0  0  0  0  0  0
   69.3867   71.2191   90.9769 C   0  0  0  0  0  0  0  0  0  0  0  0
   68.9411   72.5339   91.1989 C   0  0  0  0  0  0  0  0  0  0  0  0
   69.2574   73.1652   92.4155 C   0  0  0  0  0  0  0  0  0  0  0  0
   70.3907   73.1061   94.6065 O   0  0  0  0  0  0  0  0  0  0  0  0
   69.4811   73.6831   95.5451 C   0  0  0  0  0  0  0  0  0  0  0  0
   66.4789   78.0338   93.1086 C   0  0  0  0  0  0  0  0  0  0  0  0
   67.2522   76.9002   93.7143 C   0  0  0  0  0  0  0  0  0  0  0  0
   68.6471   76.9839   93.8376 C   0  0  0  0  0  0  0  0  0  0  0  0
   69.3663   75.9423   94.4309 C   0  0  0  0  0  0  0  0  0  0  0  0
   68.6996   74.8061   94.9146 C   0  0  0  0  0  0  0  0  0  0  0  0
   67.3002   74.7383   94.8210 C   0  0  0  0  0  0  0  0  0  0  0  0
   66.5815   75.7788   94.2253 C   0  0  0  0  0  0  0  0  0  0  0  0
   67.4256   76.8355   89.0782 C   0  0  0  0  0  0  0  0  0  0  0  0
   68.1215   77.3400   90.2146 O   0  0  0  0  0  0  0  0  0  0  0  0
   69.0535   78.3873   90.1749 C   0  0  0  0  0  0  0  0  0  0  0  0
   70.4297   78.1789   90.3634 C   0  0  0  0  0  0  0  0  0  0  0  0
   71.3144   79.2570   90.3252 C   0  0  0  0  0  0  0  0  0  0  0  0
   70.8488   80.5574   90.1031 C   0  0  0  0  0  0  0  0  0  0  0  0
   71.7796   81.5974   90.1559 O   0  0  0  0  0  0  0  0  0  0  0  0
   69.4676   80.7766   89.8712 C   0  0  0  0  0  0  0  0  0  0  0  0
   68.5855   79.6828   89.9319 C   0  0  0  0  0  0  0  0  0  0  0  0
   72.6842   81.4091   90.3117 H   0  0  0  0  0  0  0  0  0  0  0  0
   68.9123   82.1068   89.5371 C   0  0  0  0  0  0  0  0  0  0  0  0
   69.6290   82.9864   88.9890 O   0  0  0  0  0  0  0  0  0  0  0  0
   67.5668   82.3745   89.7742 O   0  0  0  0  0  0  0  0  0  0  0  0
   67.0249   81.7274   90.1811 H   0  0  0  0  0  0  0  0  0  0  0  0
  1  2  2  0  0  0  0
  2  3  1  0  0  0  0
  3  4  2  0  0  0  0
  4  5  1  0  0  0  0
  5 22  1  0  0  0  0
  5  6  2  0  0  0  0
  6  1  1  0  0  0  0
  7  8  2  0  0  0  0
  8  9  1  0  0  0  0
  9 10  2  0  0  0  0
 10 11  1  0  0  0  0
 11  1  1  0  0  0  0
 11 12  2  0  0  0  0
 12  7  1  0  0  0  0
 13  7  1  0  0  0  0
 14 13  1  0  0  0  0
 15 16  1  0  0  0  0
 16 17  2  0  0  0  0
 17 18  1  0  0  0  0
 18 19  2  0  0  0  0
 19 14  1  0  0  0  0
 19 20  1  0  0  0  0
 20 21  2  0  0  0  0
 21 16  1  0  0  0  0
 22 23  1  0  0  0  0
 23 24  1  0  0  0  0
 24 25  2  0  0  0  0
 25 26  1  0  0  0  0
 26 27  2  0  0  0  0
 27 28  1  0  0  0  0
 27 29  1  0  0  0  0
 28 31  1  0  0  0  0
 29 32  1  0  0  0  0
 29 30  2  0  0  0  0
 30 24  1  0  0  0  0
 32 33  2  0  0  0  0
 32 34  1  0  0  0  0
 34 35  1  0  0  0  0
M  END
>  <Activity>
7.6

>  <minimizedAffinity>
-9.23173

>  <RFScoreVS_v2>
6.02651111291

$$$$
HIPS6999
 OpenBabel05252300073D

 35 38  0  0  0  0  0  0  0  0999 V2000
   67.4936   76.7286   88.7659 C   0  0  0  0  0  0  0  0  0  0  0  0
   67.1208   76.8079   87.4115 C   0  0  0  0  0  0  0  0  0  0  0  0
   66.9375   78.0501   86.7998 C   0  0  0  0  0  0  0  0  0  0  0  0
   67.1184   79.2262   87.5303 C   0  0  0  0  0  0  0  0  0  0  0  0
   67.4730   79.1679   88.8859 C   0  0  0  0  0  0  0  0  0  0  0  0
   67.6737   77.9186   89.4949 C   0  0  0  0  0  0  0  0  0  0  0  0
   68.7125   74.0438   91.1731 C   0  0  0  0  0  0  0  0  0  0  0  0
   68.1109   72.9067   90.6240 C   0  0  0  0  0  0  0  0  0  0  0  0
   67.3108   73.0087   89.4845 C   0  0  0  0  0  0  0  0  0  0  0  0
   67.1056   74.2502   88.8792 C   0  0  0  0  0  0  0  0  0  0  0  0
   67.6963   75.4082   89.4145 C   0  0  0  0  0  0  0  0  0  0  0  0
   68.4903   75.2972   90.5703 C   0  0  0  0  0  0  0  0  0  0  0  0
   69.5209   73.8839   92.3107 O   0  0  0  0  0  0  0  0  0  0  0  0
   69.1156   74.1482   93.6550 C   0  0  0  0  0  0  0  0  0  0  0  0
   65.2697   78.5130   93.8409 C   0  0  0  0  0  0  0  0  0  0  0  0
   66.2557   77.3851   93.7683 C   0  0  0  0  0  0  0  0  0  0  0  0
   67.6253   77.6531   93.6263 C   0  0  0  0  0  0  0  0  0  0  0  0
   68.5491   76.6044   93.5907 C   0  0  0  0  0  0  0  0  0  0  0  0
   68.1162   75.2743   93.7029 C   0  0  0  0  0  0  0  0  0  0  0  0
   66.7486   75.0089   93.8788 C   0  0  0  0  0  0  0  0  0  0  0  0
   65.8248   76.0575   93.9117 C   0  0  0  0  0  0  0  0  0  0  0  0
   67.7102   80.4320   89.6593 C   0  0  0  0  0  0  0  0  0  0  0  0
   69.1113   80.6079   89.8493 O   0  0  0  0  0  0  0  0  0  0  0  0
   69.8356   81.7315   89.4247 C   0  0  0  0  0  0  0  0  0  0  0  0
   71.1582   81.9731   89.8312 C   0  0  0  0  0  0  0  0  0  0  0  0
   71.8312   83.1123   89.3888 C   0  0  0  0  0  0  0  0  0  0  0  0
   71.2032   84.0304   88.5402 C   0  0  0  0  0  0  0  0  0  0  0  0
   71.9085   85.1869   88.2003 O   0  0  0  0  0  0  0  0  0  0  0  0
   69.8829   83.7781   88.0901 C   0  0  0  0  0  0  0  0  0  0  0  0
   69.2104   82.6356   88.5599 C   0  0  0  0  0  0  0  0  0  0  0  0
   72.7802   85.3149   88.5193 H   0  0  0  0  0  0  0  0  0  0  0  0
   69.1864   84.6515   87.1198 C   0  0  0  0  0  0  0  0  0  0  0  0
   67.9476   84.8621   87.2140 O   0  0  0  0  0  0  0  0  0  0  0  0
   69.9140   85.2987   86.1247 O   0  0  0  0  0  0  0  0  0  0  0  0
   70.8356   85.1492   86.0459 H   0  0  0  0  0  0  0  0  0  0  0  0
  1  2  2  0  0  0  0
  2  3  1  0  0  0  0
  3  4  2  0  0  0  0
  4  5  1  0  0  0  0
  5 22  1  0  0  0  0
  5  6  2  0  0  0  0
  6  1  1  0  0  0  0
  7  8  2  0  0  0  0
  8  9  1  0  0  0  0
  9 10  2  0  0  0  0
 10 11  1  0  0  0  0
 11  1  1  0  0  0  0
 11 12  2  0  0  0  0
 12  7  1  0  0  0  0
 13  7  1  0  0  0  0
 14 13  1  0  0  0  0
 15 16  1  0  0  0  0
 16 17  2  0  0  0  0
 17 18  1  0  0  0  0
 18 19  2  0  0  0  0
 19 14  1  0  0  0  0
 19 20  1  0  0  0  0
 20 21  2  0  0  0  0
 21 16  1  0  0  0  0
 22 23  1  0  0  0  0
 23 24  1  0  0  0  0
 24 25  2  0  0  0  0
 25 26  1  0  0  0  0
 26 27  2  0  0  0  0
 27 28  1  0  0  0  0
 27 29  1  0  0  0  0
 28 31  1  0  0  0  0
 29 32  1  0  0  0  0
 29 30  2  0  0  0  0
 30 24  1  0  0  0  0
 32 33  2  0  0  0  0
 32 34  1  0  0  0  0
 34 35  1  0  0  0  0
M  END
>  <Activity>
7.6

>  <minimizedAffinity>
-9.23040

>  <RFScoreVS_v2>
6.01357263978

$$$$
HIPS6999
 OpenBabel05252300073D

 35 38  0  0  0  0  0  0  0  0999 V2000
   67.4703   78.2106   88.1573 C   0  0  0  0  0  0  0  0  0  0  0  0
   67.2486   78.0242   86.7804 C   0  0  0  0  0  0  0  0  0  0  0  0
   67.0187   76.7455   86.2677 C   0  0  0  0  0  0  0  0  0  0  0  0
   67.0117   75.6385   87.1184 C   0  0  0  0  0  0  0  0  0  0  0  0
   67.2478   75.8015   88.4912 C   0  0  0  0  0  0  0  0  0  0  0  0
   67.4616   77.0896   89.0078 C   0  0  0  0  0  0  0  0  0  0  0  0
   67.5781   82.0029   88.4674 C   0  0  0  0  0  0  0  0  0  0  0  0
   68.1848   82.1463   89.7195 C   0  0  0  0  0  0  0  0  0  0  0  0
   68.5519   81.0225   90.4619 C   0  0  0  0  0  0  0  0  0  0  0  0
   68.3187   79.7411   89.9583 C   0  0  0  0  0  0  0  0  0  0  0  0
   67.7068   79.5708   88.7041 C   0  0  0  0  0  0  0  0  0  0  0  0
   67.3289   80.7092   87.9692 C   0  0  0  0  0  0  0  0  0  0  0  0
   67.2431   83.1658   87.7543 O   0  0  0  0  0  0  0  0  0  0  0  0
   67.9372   83.6592   86.6071 C   0  0  0  0  0  0  0  0  0  0  0  0
   72.6761   86.6519   88.1766 C   0  0  0  0  0  0  0  0  0  0  0  0
   71.4559   85.8917   87.7493 C   0  0  0  0  0  0  0  0  0  0  0  0
   71.5698   84.5654   87.3067 C   0  0  0  0  0  0  0  0  0  0  0  0
   70.4300   83.8446   86.9383 C   0  0  0  0  0  0  0  0  0  0  0  0
   69.1608   84.4383   87.0137 C   0  0  0  0  0  0  0  0  0  0  0  0
   69.0446   85.7545   87.4887 C   0  0  0  0  0  0  0  0  0  0  0  0
   70.1846   86.4760   87.8545 C   0  0  0  0  0  0  0  0  0  0  0  0
   67.1966   74.6174   89.4119 C   0  0  0  0  0  0  0  0  0  0  0  0
   68.4743   74.4401   90.0171 O   0  0  0  0  0  0  0  0  0  0  0  0
   68.8099   74.8772   91.3069 C   0  0  0  0  0  0  0  0  0  0  0  0
   69.6357   75.9904   91.5341 C   0  0  0  0  0  0  0  0  0  0  0  0
   69.9485   76.3776   92.8374 C   0  0  0  0  0  0  0  0  0  0  0  0
   69.4507   75.6662   93.9345 C   0  0  0  0  0  0  0  0  0  0  0  0
   69.8676   76.0620   95.2074 O   0  0  0  0  0  0  0  0  0  0  0  0
   68.5836   74.5654   93.7201 C   0  0  0  0  0  0  0  0  0  0  0  0
   68.2929   74.1751   92.4005 C   0  0  0  0  0  0  0  0  0  0  0  0
   70.4418   76.7959   95.3052 H   0  0  0  0  0  0  0  0  0  0  0  0
   67.9431   73.8223   94.8278 C   0  0  0  0  0  0  0  0  0  0  0  0
   68.6379   73.2829   95.7300 O   0  0  0  0  0  0  0  0  0  0  0  0
   66.5545   73.7661   94.9117 O   0  0  0  0  0  0  0  0  0  0  0  0
   66.0284   74.1639   94.2462 H   0  0  0  0  0  0  0  0  0  0  0  0
  1  2  2  0  0  0  0
  2  3  1  0  0  0  0
  3  4  2  0  0  0  0
  4  5  1  0  0  0  0
  5 22  1  0  0  0  0
  5  6  2  0  0  0  0
  6  1  1  0  0  0  0
  7  8  2  0  0  0  0
  8  9  1  0  0  0  0
  9 10  2  0  0  0  0
 10 11  1  0  0  0  0
 11  1  1  0  0  0  0
 11 12  2  0  0  0  0
 12  7  1  0  0  0  0
 13  7  1  0  0  0  0
 14 13  1  0  0  0  0
 15 16  1  0  0  0  0
 16 17  2  0  0  0  0
 17 18  1  0  0  0  0
 18 19  2  0  0  0  0
 19 14  1  0  0  0  0
 19 20  1  0  0  0  0
 20 21  2  0  0  0  0
 21 16  1  0  0  0  0
 22 23  1  0  0  0  0
 23 24  1  0  0  0  0
 24 25  2  0  0  0  0
 25 26  1  0  0  0  0
 26 27  2  0  0  0  0
 27 28  1  0  0  0  0
 27 29  1  0  0  0  0
 28 31  1  0  0  0  0
 29 32  1  0  0  0  0
 29 30  2  0  0  0  0
 30 24  1  0  0  0  0
 32 33  2  0  0  0  0
 32 34  1  0  0  0  0
 34 35  1  0  0  0  0
M  END
>  <Activity>
7.6

>  <minimizedAffinity>
-9.17665

>  <RFScoreVS_v2>
6.01697912241

$$$$
HIPS6999
 OpenBabel05252300073D

 35 38  0  0  0  0  0  0  0  0999 V2000
   67.5055   75.2088   89.0322 C   0  0  0  0  0  0  0  0  0  0  0  0
   66.7189   74.3623   88.2295 C   0  0  0  0  0  0  0  0  0  0  0  0
   66.6849   72.9874   88.4730 C   0  0  0  0  0  0  0  0  0  0  0  0
   67.4364   72.4397   89.5144 C   0  0  0  0  0  0  0  0  0  0  0  0
   68.2402   73.2645   90.3147 C   0  0  0  0  0  0  0  0  0  0  0  0
   68.2601   74.6488   90.0796 C   0  0  0  0  0  0  0  0  0  0  0  0
   68.3141   78.9120   89.3808 C   0  0  0  0  0  0  0  0  0  0  0  0
   67.5680   79.4438   88.3240 C   0  0  0  0  0  0  0  0  0  0  0  0
   66.8118   78.6085   87.4997 C   0  0  0  0  0  0  0  0  0  0  0  0
   66.7912   77.2306   87.7253 C   0  0  0  0  0  0  0  0  0  0  0  0
   67.5359   76.6717   88.7787 C   0  0  0  0  0  0  0  0  0  0  0  0
   68.3048   77.5200   89.5959 C   0  0  0  0  0  0  0  0  0  0  0  0
   69.0448   79.7978   90.1900 O   0  0  0  0  0  0  0  0  0  0  0  0
   68.7270   81.1744   90.4026 C   0  0  0  0  0  0  0  0  0  0  0  0
   72.7094   84.6298   87.9372 C   0  0  0  0  0  0  0  0  0  0  0  0
   71.6770   83.7582   88.5884 C   0  0  0  0  0  0  0  0  0  0  0  0
   70.4104   83.6078   88.0044 C   0  0  0  0  0  0  0  0  0  0  0  0
   69.4576   82.7708   88.5926 C   0  0  0  0  0  0  0  0  0  0  0  0
   69.7610   82.0681   89.7688 C   0  0  0  0  0  0  0  0  0  0  0  0
   71.0403   82.1933   90.3339 C   0  0  0  0  0  0  0  0  0  0  0  0
   71.9919   83.0324   89.7471 C   0  0  0  0  0  0  0  0  0  0  0  0
   69.0136   72.6820   91.4613 C   0  0  0  0  0  0  0  0  0  0  0  0
   69.2622   73.7025   92.4241 O   0  0  0  0  0  0  0  0  0  0  0  0
   68.3011   74.2085   93.3115 C   0  0  0  0  0  0  0  0  0  0  0  0
   67.8455   73.4815   94.4236 C   0  0  0  0  0  0  0  0  0  0  0  0
   66.8793   74.0259   95.2699 C   0  0  0  0  0  0  0  0  0  0  0  0
   66.3478   75.2968   95.0255 C   0  0  0  0  0  0  0  0  0  0  0  0
   65.3284   75.7464   95.8677 O   0  0  0  0  0  0  0  0  0  0  0  0
   66.8280   76.0577   93.9300 C   0  0  0  0  0  0  0  0  0  0  0  0
   67.7880   75.4879   93.0745 C   0  0  0  0  0  0  0  0  0  0  0  0
   65.0401   75.2119   96.5812 H   0  0  0  0  0  0  0  0  0  0  0  0
   66.3842   77.4434   93.6609 C   0  0  0  0  0  0  0  0  0  0  0  0
   65.2734   77.8595   94.0860 O   0  0  0  0  0  0  0  0  0  0  0  0
   67.2260   78.3202   92.9821 O   0  0  0  0  0  0  0  0  0  0  0  0
   68.0542   78.0210   92.6619 H   0  0  0  0  0  0  0  0  0  0  0  0
  1  2  2  0  0  0  0
  2  3  1  0  0  0  0
  3  4  2  0  0  0  0
  4  5  1  0  0  0  0
  5 22  1  0  0  0  0
  5  6  2  0  0  0  0
  6  1  1  0  0  0  0
  7  8  2  0  0  0  0
  8  9  1  0  0  0  0
  9 10  2  0  0  0  0
 10 11  1  0  0  0  0
 11  1  1  0  0  0  0
 11 12  2  0  0  0  0
 12  7  1  0  0  0  0
 13  7  1  0  0  0  0
 14 13  1  0  0  0  0
 15 16  1  0  0  0  0
 16 17  2  0  0  0  0
 17 18  1  0  0  0  0
 18 19  2  0  0  0  0
 19 14  1  0  0  0  0
 19 20  1  0  0  0  0
 20 21  2  0  0  0  0
 21 16  1  0  0  0  0
 22 23  1  0  0  0  0
 23 24  1  0  0  0  0
 24 25  2  0  0  0  0
 25 26  1  0  0  0  0
 26 27  2  0  0  0  0
 27 28  1  0  0  0  0
 27 29  1  0  0  0  0
 28 31  1  0  0  0  0
 29 32  1  0  0  0  0
 29 30  2  0  0  0  0
 30 24  1  0  0  0  0
 32 33  2  0  0  0  0
 32 34  1  0  0  0  0
 34 35  1  0  0  0  0
M  END
>  <Activity>
7.6

>  <minimizedAffinity>
-9.17543

>  <RFScoreVS_v2>
5.99803089716

$$$$
HIPS6981
 OpenBabel05252300073D

 34 37  0  0  0  0  0  0  0  0999 V2000
   68.7602   79.0178   89.5718 C   0  0  0  0  0  0  0  0  0  0  0  0
   67.8169   79.6964   88.7817 C   0  0  0  0  0  0  0  0  0  0  0  0
   66.7612   78.9971   88.1926 C   0  0  0  0  0  0  0  0  0  0  0  0
   66.6414   77.6177   88.3824 C   0  0  0  0  0  0  0  0  0  0  0  0
   67.5616   76.9319   89.1912 C   0  0  0  0  0  0  0  0  0  0  0  0
   68.6097   77.6393   89.7985 C   0  0  0  0  0  0  0  0  0  0  0  0
   67.4684   75.4687   89.3436 C   0  0  0  0  0  0  0  0  0  0  0  0
   66.9007   74.6780   88.3325 C   0  0  0  0  0  0  0  0  0  0  0  0
   66.8409   73.2884   88.4801 C   0  0  0  0  0  0  0  0  0  0  0  0
   67.3163   72.6839   89.6498 C   0  0  0  0  0  0  0  0  0  0  0  0
   67.8334   73.4674   90.6847 C   0  0  0  0  0  0  0  0  0  0  0  0
   67.9387   74.8578   90.5148 C   0  0  0  0  0  0  0  0  0  0  0  0
   68.2523   72.8487   91.8687 O   0  0  0  0  0  0  0  0  0  0  0  0
   67.8819   73.2704   93.1554 C   0  0  0  0  0  0  0  0  0  0  0  0
   68.8403   73.6059   94.1320 C   0  0  0  0  0  0  0  0  0  0  0  0
   68.4331   74.0614   95.3897 C   0  0  0  0  0  0  0  0  0  0  0  0
   67.0724   74.1926   95.6825 C   0  0  0  0  0  0  0  0  0  0  0  0
   66.6826   74.6534   96.8977 F   0  0  0  0  0  0  0  0  0  0  0  0
   66.1159   73.8621   94.7183 C   0  0  0  0  0  0  0  0  0  0  0  0
   66.5209   73.4034   93.4600 C   0  0  0  0  0  0  0  0  0  0  0  0
   69.9825   79.7294   90.0896 C   0  0  0  0  0  0  0  0  0  0  0  0
   69.7150   81.1272   90.2278 O   0  0  0  0  0  0  0  0  0  0  0  0
   70.3456   83.9294   87.8787 C   0  0  0  0  0  0  0  0  0  0  0  0
   69.7332   82.8535   88.5467 C   0  0  0  0  0  0  0  0  0  0  0  0
   70.4068   82.1443   89.5464 C   0  0  0  0  0  0  0  0  0  0  0  0
   71.7370   82.4760   89.8459 C   0  0  0  0  0  0  0  0  0  0  0  0
   72.3567   83.5410   89.1954 C   0  0  0  0  0  0  0  0  0  0  0  0
   71.6683   84.2948   88.2375 C   0  0  0  0  0  0  0  0  0  0  0  0
   72.3188   85.4059   87.6985 O   0  0  0  0  0  0  0  0  0  0  0  0
   73.1937   85.6110   87.9640 H   0  0  0  0  0  0  0  0  0  0  0  0
   68.3288   84.4981   86.7368 O   0  0  0  0  0  0  0  0  0  0  0  0
   69.5797   84.6218   86.8173 C   0  0  0  0  0  0  0  0  0  0  0  0
   70.2414   85.4611   85.9228 O   0  0  0  0  0  0  0  0  0  0  0  0
   71.1717   85.5603   85.9741 H   0  0  0  0  0  0  0  0  0  0  0  0
  1  2  2  0  0  0  0
  2  3  1  0  0  0  0
  3  4  2  0  0  0  0
  4  5  1  0  0  0  0
  5  7  1  0  0  0  0
  5  6  2  0  0  0  0
  6  1  1  0  0  0  0
  7  8  2  0  0  0  0
  8  9  1  0  0  0  0
  9 10  2  0  0  0  0
 10 11  1  0  0  0  0
 11 13  1  0  0  0  0
 11 12  2  0  0  0  0
 12  7  1  0  0  0  0
 13 14  1  0  0  0  0
 14 15  2  0  0  0  0
 15 16  1  0  0  0  0
 16 17  2  0  0  0  0
 17 18  1  0  0  0  0
 17 19  1  0  0  0  0
 19 20  2  0  0  0  0
 20 14  1  0  0  0  0
 21  1  1  0  0  0  0
 22 21  1  0  0  0  0
 23 24  2  0  0  0  0
 24 25  1  0  0  0  0
 25 22  1  0  0  0  0
 25 26  2  0  0  0  0
 26 27  1  0  0  0  0
 27 28  2  0  0  0  0
 28 29  1  0  0  0  0
 28 23  1  0  0  0  0
 29 30  1  0  0  0  0
 31 32  2  0  0  0  0
 32 33  1  0  0  0  0
 32 23  1  0  0  0  0
 33 34  1  0  0  0  0
M  END
>  <Activity>
8.4

>  <minimizedAffinity>
-9.82957

>  <RFScoreVS_v2>
6.00615083

$$$$
HIPS6981
 OpenBabel05252300073D

 34 37  0  0  0  0  0  0  0  0999 V2000
   66.7583   79.3480   88.0253 C   0  0  0  0  0  0  0  0  0  0  0  0
   66.2421   78.2889   87.2596 C   0  0  0  0  0  0  0  0  0  0  0  0
   66.7538   76.9983   87.4112 C   0  0  0  0  0  0  0  0  0  0  0  0
   67.7856   76.7556   88.3221 C   0  0  0  0  0  0  0  0  0  0  0  0
   68.2922   77.7995   89.1125 C   0  0  0  0  0  0  0  0  0  0  0  0
   67.7632   79.0912   88.9734 C   0  0  0  0  0  0  0  0  0  0  0  0
   69.4192   77.5547   90.0306 C   0  0  0  0  0  0  0  0  0  0  0  0
   70.5684   78.3590   89.9842 C   0  0  0  0  0  0  0  0  0  0  0  0
   71.6201   78.1306   90.8776 C   0  0  0  0  0  0  0  0  0  0  0  0
   71.5450   77.0792   91.7988 C   0  0  0  0  0  0  0  0  0  0  0  0
   70.4284   76.2394   91.8160 C   0  0  0  0  0  0  0  0  0  0  0  0
   69.3518   76.5003   90.9523 C   0  0  0  0  0  0  0  0  0  0  0  0
   70.3971   75.1599   92.7070 O   0  0  0  0  0  0  0  0  0  0  0  0
   69.2600   74.7618   93.4276 C   0  0  0  0  0  0  0  0  0  0  0  0
   68.8568   75.4235   94.6043 C   0  0  0  0  0  0  0  0  0  0  0  0
   67.6952   75.0245   95.2726 C   0  0  0  0  0  0  0  0  0  0  0  0
   66.9240   73.9709   94.7728 C   0  0  0  0  0  0  0  0  0  0  0  0
   65.7873   73.6002   95.4143 F   0  0  0  0  0  0  0  0  0  0  0  0
   67.3176   73.3102   93.6056 C   0  0  0  0  0  0  0  0  0  0  0  0
   68.4811   73.7059   92.9366 C   0  0  0  0  0  0  0  0  0  0  0  0
   66.3211   80.7662   87.7680 C   0  0  0  0  0  0  0  0  0  0  0  0
   67.1169   81.6722   88.5363 O   0  0  0  0  0  0  0  0  0  0  0  0
   70.1146   83.7469   87.8451 C   0  0  0  0  0  0  0  0  0  0  0  0
   69.2465   82.7921   88.4051 C   0  0  0  0  0  0  0  0  0  0  0  0
   67.9139   82.6949   87.9921 C   0  0  0  0  0  0  0  0  0  0  0  0
   67.4206   83.6050   87.0445 C   0  0  0  0  0  0  0  0  0  0  0  0
   68.2685   84.5546   86.4781 C   0  0  0  0  0  0  0  0  0  0  0  0
   69.6190   84.6178   86.8413 C   0  0  0  0  0  0  0  0  0  0  0  0
   70.4298   85.5288   86.1624 O   0  0  0  0  0  0  0  0  0  0  0  0
   70.0606   86.0859   85.5057 H   0  0  0  0  0  0  0  0  0  0  0  0
   72.4334   84.2667   87.6268 O   0  0  0  0  0  0  0  0  0  0  0  0
   71.5071   83.8056   88.3451 C   0  0  0  0  0  0  0  0  0  0  0  0
   71.7932   83.3914   89.6446 O   0  0  0  0  0  0  0  0  0  0  0  0
   71.1115   83.0470   90.1873 H   0  0  0  0  0  0  0  0  0  0  0  0
  1  2  2  0  0  0  0
  2  3  1  0  0  0  0
  3  4  2  0  0  0  0
  4  5  1  0  0  0  0
  5  7  1  0  0  0  0
  5  6  2  0  0  0  0
  6  1  1  0  0  0  0
  7  8  2  0  0  0  0
  8  9  1  0  0  0  0
  9 10  2  0  0  0  0
 10 11  1  0  0  0  0
 11 13  1  0  0  0  0
 11 12  2  0  0  0  0
 12  7  1  0  0  0  0
 13 14  1  0  0  0  0
 14 15  2  0  0  0  0
 15 16  1  0  0  0  0
 16 17  2  0  0  0  0
 17 18  1  0  0  0  0
 17 19  1  0  0  0  0
 19 20  2  0  0  0  0
 20 14  1  0  0  0  0
 21  1  1  0  0  0  0
 22 21  1  0  0  0  0
 23 24  2  0  0  0  0
 24 25  1  0  0  0  0
 25 22  1  0  0  0  0
 25 26  2  0  0  0  0
 26 27  1  0  0  0  0
 27 28  2  0  0  0  0
 28 29  1  0  0  0  0
 28 23  1  0  0  0  0
 29 30  1  0  0  0  0
 31 32  2  0  0  0  0
 32 33  1  0  0  0  0
 32 23  1  0  0  0  0
 33 34  1  0  0  0  0
M  END
>  <Activity>
8.4

>  <minimizedAffinity>
-9.58051

>  <RFScoreVS_v2>
6.00323391184

$$$$
HIPS6981
 OpenBabel05252300073D

 34 37  0  0  0  0  0  0  0  0999 V2000
   67.1299   79.7282   87.9836 C   0  0  0  0  0  0  0  0  0  0  0  0
   66.4332   78.7071   87.3153 C   0  0  0  0  0  0  0  0  0  0  0  0
   66.7465   77.3679   87.5584 C   0  0  0  0  0  0  0  0  0  0  0  0
   67.7584   77.0378   88.4641 C   0  0  0  0  0  0  0  0  0  0  0  0
   68.4441   78.0473   89.1584 C   0  0  0  0  0  0  0  0  0  0  0  0
   68.1142   79.3911   88.9280 C   0  0  0  0  0  0  0  0  0  0  0  0
   69.5499   77.7009   90.0694 C   0  0  0  0  0  0  0  0  0  0  0  0
   70.7407   78.4438   90.0652 C   0  0  0  0  0  0  0  0  0  0  0  0
   71.7724   78.1189   90.9521 C   0  0  0  0  0  0  0  0  0  0  0  0
   71.6349   77.0321   91.8237 C   0  0  0  0  0  0  0  0  0  0  0  0
   70.4751   76.2534   91.7972 C   0  0  0  0  0  0  0  0  0  0  0  0
   69.4200   76.6107   90.9414 C   0  0  0  0  0  0  0  0  0  0  0  0
   70.3799   75.1376   92.6375 O   0  0  0  0  0  0  0  0  0  0  0  0
   69.2112   74.7544   93.3143 C   0  0  0  0  0  0  0  0  0  0  0  0
   68.4275   73.6650   92.8856 C   0  0  0  0  0  0  0  0  0  0  0  0
   67.2922   73.2875   93.6092 C   0  0  0  0  0  0  0  0  0  0  0  0
   66.9326   73.9851   94.7660 C   0  0  0  0  0  0  0  0  0  0  0  0
   65.8410   73.6027   95.4755 F   0  0  0  0  0  0  0  0  0  0  0  0
   67.7056   75.0666   95.1978 C   0  0  0  0  0  0  0  0  0  0  0  0
   68.8406   75.4481   94.4738 C   0  0  0  0  0  0  0  0  0  0  0  0
   66.9061   81.1735   87.6235 C   0  0  0  0  0  0  0  0  0  0  0  0
   67.5636   82.0220   88.5680 O   0  0  0  0  0  0  0  0  0  0  0  0
   71.1237   82.9378   89.0735 C   0  0  0  0  0  0  0  0  0  0  0  0
   69.8368   82.4046   89.2699 C   0  0  0  0  0  0  0  0  0  0  0  0
   68.8069   82.6432   88.3542 C   0  0  0  0  0  0  0  0  0  0  0  0
   69.0479   83.4772   87.2517 C   0  0  0  0  0  0  0  0  0  0  0  0
   70.3180   84.0106   87.0415 C   0  0  0  0  0  0  0  0  0  0  0  0
   71.3698   83.7260   87.9203 C   0  0  0  0  0  0  0  0  0  0  0  0
   72.6359   84.2145   87.5939 O   0  0  0  0  0  0  0  0  0  0  0  0
   72.7538   84.7319   86.8216 H   0  0  0  0  0  0  0  0  0  0  0  0
   71.8805   82.0189   91.1417 O   0  0  0  0  0  0  0  0  0  0  0  0
   72.1597   82.6606   90.0944 C   0  0  0  0  0  0  0  0  0  0  0  0
   73.4735   83.0709   89.8754 O   0  0  0  0  0  0  0  0  0  0  0  0
   73.6919   83.5488   89.0996 H   0  0  0  0  0  0  0  0  0  0  0  0
  1  2  2  0  0  0  0
  2  3  1  0  0  0  0
  3  4  2  0  0  0  0
  4  5  1  0  0  0  0
  5  7  1  0  0  0  0
  5  6  2  0  0  0  0
  6  1  1  0  0  0  0
  7  8  2  0  0  0  0
  8  9  1  0  0  0  0
  9 10  2  0  0  0  0
 10 11  1  0  0  0  0
 11 13  1  0  0  0  0
 11 12  2  0  0  0  0
 12  7  1  0  0  0  0
 13 14  1  0  0  0  0
 14 15  2  0  0  0  0
 15 16  1  0  0  0  0
 16 17  2  0  0  0  0
 17 18  1  0  0  0  0
 17 19  1  0  0  0  0
 19 20  2  0  0  0  0
 20 14  1  0  0  0  0
 21  1  1  0  0  0  0
 22 21  1  0  0  0  0
 23 24  2  0  0  0  0
 24 25  1  0  0  0  0
 25 22  1  0  0  0  0
 25 26  2  0  0  0  0
 26 27  1  0  0  0  0
 27 28  2  0  0  0  0
 28 29  1  0  0  0  0
 28 23  1  0  0  0  0
 29 30  1  0  0  0  0
 31 32  2  0  0  0  0
 32 33  1  0  0  0  0
 32 23  1  0  0  0  0
 33 34  1  0  0  0  0
M  END
>  <Activity>
8.4

>  <minimizedAffinity>
-9.57877

>  <RFScoreVS_v2>
5.9864561908

$$$$
HIPS6981
 OpenBabel05252300073D

 34 37  0  0  0  0  0  0  0  0999 V2000
   67.2329   79.1304   89.0218 C   0  0  0  0  0  0  0  0  0  0  0  0
   67.1552   79.3729   87.6399 C   0  0  0  0  0  0  0  0  0  0  0  0
   67.1222   78.3050   86.7404 C   0  0  0  0  0  0  0  0  0  0  0  0
   67.1715   76.9899   87.2111 C   0  0  0  0  0  0  0  0  0  0  0  0
   67.2224   76.7332   88.5905 C   0  0  0  0  0  0  0  0  0  0  0  0
   67.2351   77.8067   89.4933 C   0  0  0  0  0  0  0  0  0  0  0  0
   67.3330   75.3484   89.0833 C   0  0  0  0  0  0  0  0  0  0  0  0
   66.8098   74.2795   88.3393 C   0  0  0  0  0  0  0  0  0  0  0  0
   66.9434   72.9682   88.8074 C   0  0  0  0  0  0  0  0  0  0  0  0
   67.5696   72.7195   90.0345 C   0  0  0  0  0  0  0  0  0  0  0  0
   68.0452   73.7815   90.8079 C   0  0  0  0  0  0  0  0  0  0  0  0
   67.9550   75.0933   90.3138 C   0  0  0  0  0  0  0  0  0  0  0  0
   68.6182   73.5161   92.0575 O   0  0  0  0  0  0  0  0  0  0  0  0
   68.0483   73.8904   93.2846 C   0  0  0  0  0  0  0  0  0  0  0  0
   66.6944   73.6394   93.5825 C   0  0  0  0  0  0  0  0  0  0  0  0
   66.1724   73.9899   94.8314 C   0  0  0  0  0  0  0  0  0  0  0  0
   66.9932   74.5853   95.7937 C   0  0  0  0  0  0  0  0  0  0  0  0
   66.4868   74.9058   97.0110 F   0  0  0  0  0  0  0  0  0  0  0  0
   68.3376   74.8368   95.5055 C   0  0  0  0  0  0  0  0  0  0  0  0
   68.8616   74.4896   94.2554 C   0  0  0  0  0  0  0  0  0  0  0  0
   67.4183   80.2676   89.9919 C   0  0  0  0  0  0  0  0  0  0  0  0
   67.3717   81.5170   89.2982 O   0  0  0  0  0  0  0  0  0  0  0  0
   70.8615   82.7671   89.1346 C   0  0  0  0  0  0  0  0  0  0  0  0
   69.6790   82.1507   89.5827 C   0  0  0  0  0  0  0  0  0  0  0  0
   68.5001   82.2154   88.8332 C   0  0  0  0  0  0  0  0  0  0  0  0
   68.4833   82.9579   87.6425 C   0  0  0  0  0  0  0  0  0  0  0  0
   69.6469   83.5718   87.1835 C   0  0  0  0  0  0  0  0  0  0  0  0
   70.8462   83.4597   87.8969 C   0  0  0  0  0  0  0  0  0  0  0  0
   71.9922   84.0177   87.3281 O   0  0  0  0  0  0  0  0  0  0  0  0
   71.9367   84.4673   86.5078 H   0  0  0  0  0  0  0  0  0  0  0  0
   73.1510   83.2118   89.6398 O   0  0  0  0  0  0  0  0  0  0  0  0
   72.0668   82.6745   89.9897 C   0  0  0  0  0  0  0  0  0  0  0  0
   71.9925   82.0269   91.2215 O   0  0  0  0  0  0  0  0  0  0  0  0
   71.1908   81.6240   91.4914 H   0  0  0  0  0  0  0  0  0  0  0  0
  1  2  2  0  0  0  0
  2  3  1  0  0  0  0
  3  4  2  0  0  0  0
  4  5  1  0  0  0  0
  5  7  1  0  0  0  0
  5  6  2  0  0  0  0
  6  1  1  0  0  0  0
  7  8  2  0  0  0  0
  8  9  1  0  0  0  0
  9 10  2  0  0  0  0
 10 11  1  0  0  0  0
 11 13  1  0  0  0  0
 11 12  2  0  0  0  0
 12  7  1  0  0  0  0
 13 14  1  0  0  0  0
 14 15  2  0  0  0  0
 15 16  1  0  0  0  0
 16 17  2  0  0  0  0
 17 18  1  0  0  0  0
 17 19  1  0  0  0  0
 19 20  2  0  0  0  0
 20 14  1  0  0  0  0
 21  1  1  0  0  0  0
 22 21  1  0  0  0  0
 23 24  2  0  0  0  0
 24 25  1  0  0  0  0
 25 22  1  0  0  0  0
 25 26  2  0  0  0  0
 26 27  1  0  0  0  0
 27 28  2  0  0  0  0
 28 29  1  0  0  0  0
 28 23  1  0  0  0  0
 29 30  1  0  0  0  0
 31 32  2  0  0  0  0
 32 33  1  0  0  0  0
 32 23  1  0  0  0  0
 33 34  1  0  0  0  0
M  END
>  <Activity>
8.4

>  <minimizedAffinity>
-9.31364

>  <RFScoreVS_v2>
6.00162843211

$$$$
HIPS6981
 OpenBabel05252300073D

 34 37  0  0  0  0  0  0  0  0999 V2000
   68.0023   79.6312   89.4626 C   0  0  0  0  0  0  0  0  0  0  0  0
   67.4392   79.9551   88.2166 C   0  0  0  0  0  0  0  0  0  0  0  0
   66.9715   78.9447   87.3734 C   0  0  0  0  0  0  0  0  0  0  0  0
   67.0665   77.6060   87.7635 C   0  0  0  0  0  0  0  0  0  0  0  0
   67.6025   77.2702   89.0170 C   0  0  0  0  0  0  0  0  0  0  0  0
   68.0531   78.2877   89.8710 C   0  0  0  0  0  0  0  0  0  0  0  0
   67.7555   75.8559   89.4031 C   0  0  0  0  0  0  0  0  0  0  0  0
   68.6549   75.4828   90.4139 C   0  0  0  0  0  0  0  0  0  0  0  0
   68.7722   74.1399   90.7868 C   0  0  0  0  0  0  0  0  0  0  0  0
   68.0180   73.1592   90.1316 C   0  0  0  0  0  0  0  0  0  0  0  0
   67.1604   73.5144   89.0873 C   0  0  0  0  0  0  0  0  0  0  0  0
   67.0064   74.8686   88.7474 C   0  0  0  0  0  0  0  0  0  0  0  0
   66.4570   72.5126   88.4078 O   0  0  0  0  0  0  0  0  0  0  0  0
   66.9140   71.8766   87.2427 C   0  0  0  0  0  0  0  0  0  0  0  0
   66.6794   72.4142   85.9618 C   0  0  0  0  0  0  0  0  0  0  0  0
   67.1856   71.7736   84.8267 C   0  0  0  0  0  0  0  0  0  0  0  0
   67.9333   70.5996   84.9575 C   0  0  0  0  0  0  0  0  0  0  0  0
   68.4388   69.9923   83.8544 F   0  0  0  0  0  0  0  0  0  0  0  0
   68.1706   70.0607   86.2252 C   0  0  0  0  0  0  0  0  0  0  0  0
   67.6627   70.6984   87.3624 C   0  0  0  0  0  0  0  0  0  0  0  0
   68.6435   80.6943   90.3155 C   0  0  0  0  0  0  0  0  0  0  0  0
   70.0317   80.8105   89.9937 O   0  0  0  0  0  0  0  0  0  0  0  0
   70.4329   83.9315   88.0272 C   0  0  0  0  0  0  0  0  0  0  0  0
   69.9142   82.7285   88.5397 C   0  0  0  0  0  0  0  0  0  0  0  0
   70.6352   81.9644   89.4629 C   0  0  0  0  0  0  0  0  0  0  0  0
   71.9228   82.3767   89.8387 C   0  0  0  0  0  0  0  0  0  0  0  0
   72.4496   83.5675   89.3424 C   0  0  0  0  0  0  0  0  0  0  0  0
   71.7089   84.3690   88.4657 C   0  0  0  0  0  0  0  0  0  0  0  0
   72.2600   85.5941   88.0866 O   0  0  0  0  0  0  0  0  0  0  0  0
   73.1070   85.8438   88.4001 H   0  0  0  0  0  0  0  0  0  0  0  0
   68.3698   84.7468   87.1478 O   0  0  0  0  0  0  0  0  0  0  0  0
   69.6227   84.6782   87.0380 C   0  0  0  0  0  0  0  0  0  0  0  0
   70.2547   85.3562   85.9972 O   0  0  0  0  0  0  0  0  0  0  0  0
   71.1862   85.3118   85.9066 H   0  0  0  0  0  0  0  0  0  0  0  0
  1  2  2  0  0  0  0
  2  3  1  0  0  0  0
  3  4  2  0  0  0  0
  4  5  1  0  0  0  0
  5  7  1  0  0  0  0
  5  6  2  0  0  0  0
  6  1  1  0  0  0  0
  7  8  2  0  0  0  0
  8  9  1  0  0  0  0
  9 10  2  0  0  0  0
 10 11  1  0  0  0  0
 11 13  1  0  0  0  0
 11 12  2  0  0  0  0
 12  7  1  0  0  0  0
 13 14  1  0  0  0  0
 14 15  2  0  0  0  0
 15 16  1  0  0  0  0
 16 17  2  0  0  0  0
 17 18  1  0  0  0  0
 17 19  1  0  0  0  0
 19 20  2  0  0  0  0
 20 14  1  0  0  0  0
 21  1  1  0  0  0  0
 22 21  1  0  0  0  0
 23 24  2  0  0  0  0
 24 25  1  0  0  0  0
 25 22  1  0  0  0  0
 25 26  2  0  0  0  0
 26 27  1  0  0  0  0
 27 28  2  0  0  0  0
 28 29  1  0  0  0  0
 28 23  1  0  0  0  0
 29 30  1  0  0  0  0
 31 32  2  0  0  0  0
 32 33  1  0  0  0  0
 32 23  1  0  0  0  0
 33 34  1  0  0  0  0
M  END
>  <Activity>
8.4

>  <minimizedAffinity>
-9.29032

>  <RFScoreVS_v2>
6.00461597801

$$$$
HIPS6981
 OpenBabel05252300073D

 34 37  0  0  0  0  0  0  0  0999 V2000
   66.9745   79.2739   87.8204 C   0  0  0  0  0  0  0  0  0  0  0  0
   66.3265   78.1954   87.1946 C   0  0  0  0  0  0  0  0  0  0  0  0
   66.6623   76.8825   87.5328 C   0  0  0  0  0  0  0  0  0  0  0  0
   67.6484   76.6358   88.4920 C   0  0  0  0  0  0  0  0  0  0  0  0
   68.2846   77.7041   89.1441 C   0  0  0  0  0  0  0  0  0  0  0  0
   67.9318   79.0219   88.8176 C   0  0  0  0  0  0  0  0  0  0  0  0
   69.3647   77.4440   90.1128 C   0  0  0  0  0  0  0  0  0  0  0  0
   70.5669   78.1660   90.0561 C   0  0  0  0  0  0  0  0  0  0  0  0
   71.5737   77.9257   90.9968 C   0  0  0  0  0  0  0  0  0  0  0  0
   71.4002   76.9419   91.9775 C   0  0  0  0  0  0  0  0  0  0  0  0
   70.2290   76.1804   92.0084 C   0  0  0  0  0  0  0  0  0  0  0  0
   69.1986   76.4567   91.0945 C   0  0  0  0  0  0  0  0  0  0  0  0
   70.0979   75.1638   92.9621 O   0  0  0  0  0  0  0  0  0  0  0  0
   69.8788   73.8122   92.6524 C   0  0  0  0  0  0  0  0  0  0  0  0
   69.3401   73.4115   91.4138 C   0  0  0  0  0  0  0  0  0  0  0  0
   69.1744   72.0535   91.1254 C   0  0  0  0  0  0  0  0  0  0  0  0
   69.5488   71.0856   92.0621 C   0  0  0  0  0  0  0  0  0  0  0  0
   69.4040   69.7686   91.7698 F   0  0  0  0  0  0  0  0  0  0  0  0
   70.0844   71.4757   93.2928 C   0  0  0  0  0  0  0  0  0  0  0  0
   70.2487   72.8342   93.5850 C   0  0  0  0  0  0  0  0  0  0  0  0
   66.7300   80.6876   87.3618 C   0  0  0  0  0  0  0  0  0  0  0  0
   67.3440   81.6098   88.2656 O   0  0  0  0  0  0  0  0  0  0  0  0
   70.2688   83.8578   87.8650 C   0  0  0  0  0  0  0  0  0  0  0  0
   69.4376   82.8026   88.2829 C   0  0  0  0  0  0  0  0  0  0  0  0
   68.1022   82.7275   87.8742 C   0  0  0  0  0  0  0  0  0  0  0  0
   67.5682   83.7545   87.0809 C   0  0  0  0  0  0  0  0  0  0  0  0
   68.3792   84.8049   86.6560 C   0  0  0  0  0  0  0  0  0  0  0  0
   69.7326   84.8546   87.0101 C   0  0  0  0  0  0  0  0  0  0  0  0
   70.5059   85.8826   86.4686 O   0  0  0  0  0  0  0  0  0  0  0  0
   70.1105   86.5208   85.9079 H   0  0  0  0  0  0  0  0  0  0  0  0
   72.5984   84.3155   87.6241 O   0  0  0  0  0  0  0  0  0  0  0  0
   71.6664   83.8837   88.3532 C   0  0  0  0  0  0  0  0  0  0  0  0
   71.9524   83.4712   89.6533 O   0  0  0  0  0  0  0  0  0  0  0  0
   71.2665   83.1484   90.2040 H   0  0  0  0  0  0  0  0  0  0  0  0
  1  2  2  0  0  0  0
  2  3  1  0  0  0  0
  3  4  2  0  0  0  0
  4  5  1  0  0  0  0
  5  7  1  0  0  0  0
  5  6  2  0  0  0  0
  6  1  1  0  0  0  0
  7  8  2  0  0  0  0
  8  9  1  0  0  0  0
  9 10  2  0  0  0  0
 10 11  1  0  0  0  0
 11 13  1  0  0  0  0
 11 12  2  0  0  0  0
 12  7  1  0  0  0  0
 13 14  1  0  0  0  0
 14 15  2  0  0  0  0
 15 16  1  0  0  0  0
 16 17  2  0  0  0  0
 17 18  1  0  0  0  0
 17 19  1  0  0  0  0
 19 20  2  0  0  0  0
 20 14  1  0  0  0  0
 21  1  1  0  0  0  0
 22 21  1  0  0  0  0
 23 24  2  0  0  0  0
 24 25  1  0  0  0  0
 25 22  1  0  0  0  0
 25 26  2  0  0  0  0
 26 27  1  0  0  0  0
 27 28  2  0  0  0  0
 28 29  1  0  0  0  0
 28 23  1  0  0  0  0
 29 30  1  0  0  0  0
 31 32  2  0  0  0  0
 32 33  1  0  0  0  0
 32 23  1  0  0  0  0
 33 34  1  0  0  0  0
M  END
>  <Activity>
8.4

>  <minimizedAffinity>
-9.16109

>  <RFScoreVS_v2>
6.00565537534

$$$$
HIPS6981
 OpenBabel05252300073D

 34 37  0  0  0  0  0  0  0  0999 V2000
   67.2902   80.4916   88.8018 C   0  0  0  0  0  0  0  0  0  0  0  0
   66.6496   79.7545   87.7915 C   0  0  0  0  0  0  0  0  0  0  0  0
   67.0121   78.4268   87.5538 C   0  0  0  0  0  0  0  0  0  0  0  0
   68.0177   77.8271   88.3169 C   0  0  0  0  0  0  0  0  0  0  0  0
   68.6472   78.5438   89.3470 C   0  0  0  0  0  0  0  0  0  0  0  0
   68.2678   79.8708   89.5977 C   0  0  0  0  0  0  0  0  0  0  0  0
   69.7472   77.9299   90.1125 C   0  0  0  0  0  0  0  0  0  0  0  0
   71.0673   78.3801   89.9557 C   0  0  0  0  0  0  0  0  0  0  0  0
   72.0977   77.8048   90.7065 C   0  0  0  0  0  0  0  0  0  0  0  0
   71.8221   76.7563   91.5922 C   0  0  0  0  0  0  0  0  0  0  0  0
   70.5198   76.2649   91.7148 C   0  0  0  0  0  0  0  0  0  0  0  0
   69.4782   76.8764   90.9977 C   0  0  0  0  0  0  0  0  0  0  0  0
   70.2745   75.1793   92.5642 O   0  0  0  0  0  0  0  0  0  0  0  0
   69.0089   74.8386   93.0671 C   0  0  0  0  0  0  0  0  0  0  0  0
   68.3941   75.5792   94.0958 C   0  0  0  0  0  0  0  0  0  0  0  0
   67.1149   75.2344   94.5427 C   0  0  0  0  0  0  0  0  0  0  0  0
   66.4363   74.1566   93.9662 C   0  0  0  0  0  0  0  0  0  0  0  0
   65.1873   73.8379   94.3900 F   0  0  0  0  0  0  0  0  0  0  0  0
   67.0398   73.4176   92.9447 C   0  0  0  0  0  0  0  0  0  0  0  0
   68.3210   73.7591   92.4977 C   0  0  0  0  0  0  0  0  0  0  0  0
   67.0153   81.9629   88.9709 C   0  0  0  0  0  0  0  0  0  0  0  0
   67.9373   82.5302   89.9050 O   0  0  0  0  0  0  0  0  0  0  0  0
   70.8338   84.2918   88.3967 C   0  0  0  0  0  0  0  0  0  0  0  0
   69.5222   83.8694   88.6800 C   0  0  0  0  0  0  0  0  0  0  0  0
   69.2732   82.8564   89.6115 C   0  0  0  0  0  0  0  0  0  0  0  0
   70.3551   82.2113   90.2300 C   0  0  0  0  0  0  0  0  0  0  0  0
   71.6602   82.6200   89.9624 C   0  0  0  0  0  0  0  0  0  0  0  0
   71.9142   83.6747   89.0777 C   0  0  0  0  0  0  0  0  0  0  0  0
   73.2378   84.0934   88.9329 O   0  0  0  0  0  0  0  0  0  0  0  0
   73.9213   83.6569   89.4023 H   0  0  0  0  0  0  0  0  0  0  0  0
   71.9168   86.2322   87.5269 O   0  0  0  0  0  0  0  0  0  0  0  0
   71.0236   85.3556   87.3844 C   0  0  0  0  0  0  0  0  0  0  0  0
   70.2379   85.3628   86.2333 O   0  0  0  0  0  0  0  0  0  0  0  0
   69.5707   84.7152   86.1174 H   0  0  0  0  0  0  0  0  0  0  0  0
  1  2  2  0  0  0  0
  2  3  1  0  0  0  0
  3  4  2  0  0  0  0
  4  5  1  0  0  0  0
  5  7  1  0  0  0  0
  5  6  2  0  0  0  0
  6  1  1  0  0  0  0
  7  8  2  0  0  0  0
  8  9  1  0  0  0  0
  9 10  2  0  0  0  0
 10 11  1  0  0  0  0
 11 13  1  0  0  0  0
 11 12  2  0  0  0  0
 12  7  1  0  0  0  0
 13 14  1  0  0  0  0
 14 15  2  0  0  0  0
 15 16  1  0  0  0  0
 16 17  2  0  0  0  0
 17 18  1  0  0  0  0
 17 19  1  0  0  0  0
 19 20  2  0  0  0  0
 20 14  1  0  0  0  0
 21  1  1  0  0  0  0
 22 21  1  0  0  0  0
 23 24  2  0  0  0  0
 24 25  1  0  0  0  0
 25 22  1  0  0  0  0
 25 26  2  0  0  0  0
 26 27  1  0  0  0  0
 27 28  2  0  0  0  0
 28 29  1  0  0  0  0
 28 23  1  0  0  0  0
 29 30  1  0  0  0  0
 31 32  2  0  0  0  0
 32 33  1  0  0  0  0
 32 23  1  0  0  0  0
 33 34  1  0  0  0  0
M  END
>  <Activity>
8.4

>  <minimizedAffinity>
-9.08261

>  <RFScoreVS_v2>
5.98852306533

$$$$
HIPS6981
 OpenBabel05252300073D

 34 37  0  0  0  0  0  0  0  0999 V2000
   67.1856   75.6987   88.4719 C   0  0  0  0  0  0  0  0  0  0  0  0
   67.0472   75.4688   87.0926 C   0  0  0  0  0  0  0  0  0  0  0  0
   66.9801   76.5448   86.2047 C   0  0  0  0  0  0  0  0  0  0  0  0
   67.0454   77.8556   86.6852 C   0  0  0  0  0  0  0  0  0  0  0  0
   67.2105   78.0989   88.0581 C   0  0  0  0  0  0  0  0  0  0  0  0
   67.2979   77.0166   88.9462 C   0  0  0  0  0  0  0  0  0  0  0  0
   67.2208   79.4810   88.5701 C   0  0  0  0  0  0  0  0  0  0  0  0
   67.0323   79.7400   89.9366 C   0  0  0  0  0  0  0  0  0  0  0  0
   67.0687   81.0548   90.4122 C   0  0  0  0  0  0  0  0  0  0  0  0
   67.2602   82.1195   89.5236 C   0  0  0  0  0  0  0  0  0  0  0  0
   67.3944   81.8756   88.1544 C   0  0  0  0  0  0  0  0  0  0  0  0
   67.4075   80.5519   87.6844 C   0  0  0  0  0  0  0  0  0  0  0  0
   67.5291   82.9574   87.2759 O   0  0  0  0  0  0  0  0  0  0  0  0
   68.6371   83.8189   87.2461 C   0  0  0  0  0  0  0  0  0  0  0  0
   68.4941   85.2170   87.3440 C   0  0  0  0  0  0  0  0  0  0  0  0
   69.6240   86.0406   87.3519 C   0  0  0  0  0  0  0  0  0  0  0  0
   70.9021   85.4804   87.2696 C   0  0  0  0  0  0  0  0  0  0  0  0
   71.9961   86.2826   87.2973 F   0  0  0  0  0  0  0  0  0  0  0  0
   71.0517   84.0940   87.1729 C   0  0  0  0  0  0  0  0  0  0  0  0
   69.9225   83.2679   87.1619 C   0  0  0  0  0  0  0  0  0  0  0  0
   67.1104   74.5576   89.4521 C   0  0  0  0  0  0  0  0  0  0  0  0
   68.4269   74.1152   89.7922 O   0  0  0  0  0  0  0  0  0  0  0  0
   69.2764   74.9651   93.3028 C   0  0  0  0  0  0  0  0  0  0  0  0
   68.8810   75.0712   91.9569 C   0  0  0  0  0  0  0  0  0  0  0  0
   68.9038   73.9615   91.1061 C   0  0  0  0  0  0  0  0  0  0  0  0
   69.3850   72.7352   91.5897 C   0  0  0  0  0  0  0  0  0  0  0  0
   69.7774   72.6130   92.9212 C   0  0  0  0  0  0  0  0  0  0  0  0
   69.6992   73.7038   93.7950 C   0  0  0  0  0  0  0  0  0  0  0  0
   70.0164   73.4828   95.1362 O   0  0  0  0  0  0  0  0  0  0  0  0
   70.2918   72.6328   95.4185 H   0  0  0  0  0  0  0  0  0  0  0  0
   68.4635   77.1358   93.8701 O   0  0  0  0  0  0  0  0  0  0  0  0
   69.2455   76.1860   94.1400 C   0  0  0  0  0  0  0  0  0  0  0  0
   70.0560   76.2697   95.2707 O   0  0  0  0  0  0  0  0  0  0  0  0
   70.6413   75.5687   95.4805 H   0  0  0  0  0  0  0  0  0  0  0  0
  1  2  2  0  0  0  0
  2  3  1  0  0  0  0
  3  4  2  0  0  0  0
  4  5  1  0  0  0  0
  5  7  1  0  0  0  0
  5  6  2  0  0  0  0
  6  1  1  0  0  0  0
  7  8  2  0  0  0  0
  8  9  1  0  0  0  0
  9 10  2  0  0  0  0
 10 11  1  0  0  0  0
 11 13  1  0  0  0  0
 11 12  2  0  0  0  0
 12  7  1  0  0  0  0
 13 14  1  0  0  0  0
 14 15  2  0  0  0  0
 15 16  1  0  0  0  0
 16 17  2  0  0  0  0
 17 18  1  0  0  0  0
 17 19  1  0  0  0  0
 19 20  2  0  0  0  0
 20 14  1  0  0  0  0
 21  1  1  0  0  0  0
 22 21  1  0  0  0  0
 23 24  2  0  0  0  0
 24 25  1  0  0  0  0
 25 22  1  0  0  0  0
 25 26  2  0  0  0  0
 26 27  1  0  0  0  0
 27 28  2  0  0  0  0
 28 29  1  0  0  0  0
 28 23  1  0  0  0  0
 29 30  1  0  0  0  0
 31 32  2  0  0  0  0
 32 33  1  0  0  0  0
 32 23  1  0  0  0  0
 33 34  1  0  0  0  0
M  END
>  <Activity>
8.4

>  <minimizedAffinity>
-9.02884

>  <RFScoreVS_v2>
6.00455020483

$$$$
HIPS6981
 OpenBabel05252300073D

 34 37  0  0  0  0  0  0  0  0999 V2000
   67.2104   75.5557   88.5549 C   0  0  0  0  0  0  0  0  0  0  0  0
   67.0821   75.4151   87.1626 C   0  0  0  0  0  0  0  0  0  0  0  0
   66.9141   76.5425   86.3555 C   0  0  0  0  0  0  0  0  0  0  0  0
   66.8679   77.8156   86.9301 C   0  0  0  0  0  0  0  0  0  0  0  0
   67.0216   77.9724   88.3169 C   0  0  0  0  0  0  0  0  0  0  0  0
   67.2104   76.8406   89.1237 C   0  0  0  0  0  0  0  0  0  0  0  0
   66.9146   79.3094   88.9282 C   0  0  0  0  0  0  0  0  0  0  0  0
   65.9740   79.5616   89.9389 C   0  0  0  0  0  0  0  0  0  0  0  0
   65.9000   80.8285   90.5271 C   0  0  0  0  0  0  0  0  0  0  0  0
   66.7404   81.8583   90.0879 C   0  0  0  0  0  0  0  0  0  0  0  0
   67.6424   81.6318   89.0451 C   0  0  0  0  0  0  0  0  0  0  0  0
   67.7504   80.3462   88.4894 C   0  0  0  0  0  0  0  0  0  0  0  0
   68.4347   82.6895   88.5829 O   0  0  0  0  0  0  0  0  0  0  0  0
   69.7972   82.8468   88.8825 C   0  0  0  0  0  0  0  0  0  0  0  0
   70.6117   83.7579   88.1816 C   0  0  0  0  0  0  0  0  0  0  0  0
   71.9550   83.9168   88.5357 C   0  0  0  0  0  0  0  0  0  0  0  0
   72.4953   83.1771   89.5918 C   0  0  0  0  0  0  0  0  0  0  0  0
   73.7943   83.3490   89.9441 F   0  0  0  0  0  0  0  0  0  0  0  0
   71.6930   82.2717   90.2920 C   0  0  0  0  0  0  0  0  0  0  0  0
   70.3492   82.1088   89.9378 C   0  0  0  0  0  0  0  0  0  0  0  0
   67.2431   74.3444   89.4494 C   0  0  0  0  0  0  0  0  0  0  0  0
   68.5077   74.2568   90.1109 O   0  0  0  0  0  0  0  0  0  0  0  0
   68.3755   74.9287   93.7577 C   0  0  0  0  0  0  0  0  0  0  0  0
   68.0797   74.4305   92.4758 C   0  0  0  0  0  0  0  0  0  0  0  0
   68.8024   74.8464   91.3530 C   0  0  0  0  0  0  0  0  0  0  0  0
   69.8008   75.8212   91.5015 C   0  0  0  0  0  0  0  0  0  0  0  0
   70.1079   76.3224   92.7649 C   0  0  0  0  0  0  0  0  0  0  0  0
   69.4308   75.8654   93.9017 C   0  0  0  0  0  0  0  0  0  0  0  0
   69.8575   76.3393   95.1433 O   0  0  0  0  0  0  0  0  0  0  0  0
   70.5591   76.9584   95.1926 H   0  0  0  0  0  0  0  0  0  0  0  0
   66.5016   75.0634   95.2291 O   0  0  0  0  0  0  0  0  0  0  0  0
   67.5558   74.4589   94.8978 C   0  0  0  0  0  0  0  0  0  0  0  0
   67.9256   73.3048   95.5861 O   0  0  0  0  0  0  0  0  0  0  0  0
   68.7079   72.8476   95.3477 H   0  0  0  0  0  0  0  0  0  0  0  0
  1  2  2  0  0  0  0
  2  3  1  0  0  0  0
  3  4  2  0  0  0  0
  4  5  1  0  0  0  0
  5  7  1  0  0  0  0
  5  6  2  0  0  0  0
  6  1  1  0  0  0  0
  7  8  2  0  0  0  0
  8  9  1  0  0  0  0
  9 10  2  0  0  0  0
 10 11  1  0  0  0  0
 11 13  1  0  0  0  0
 11 12  2  0  0  0  0
 12  7  1  0  0  0  0
 13 14  1  0  0  0  0
 14 15  2  0  0  0  0
 15 16  1  0  0  0  0
 16 17  2  0  0  0  0
 17 18  1  0  0  0  0
 17 19  1  0  0  0  0
 19 20  2  0  0  0  0
 20 14  1  0  0  0  0
 21  1  1  0  0  0  0
 22 21  1  0  0  0  0
 23 24  2  0  0  0  0
 24 25  1  0  0  0  0
 25 22  1  0  0  0  0
 25 26  2  0  0  0  0
 26 27  1  0  0  0  0
 27 28  2  0  0  0  0
 28 29  1  0  0  0  0
 28 23  1  0  0  0  0
 29 30  1  0  0  0  0
 31 32  2  0  0  0  0
 32 33  1  0  0  0  0
 32 23  1  0  0  0  0
 33 34  1  0  0  0  0
M  END
>  <Activity>
8.4

>  <minimizedAffinity>
-8.97020

>  <RFScoreVS_v2>
6.06769573857

$$$$
HIPS6981
 OpenBabel05252300073D

 34 37  0  0  0  0  0  0  0  0999 V2000
   67.5883   80.8860   88.8725 C   0  0  0  0  0  0  0  0  0  0  0  0
   66.6591   80.1304   88.1374 C   0  0  0  0  0  0  0  0  0  0  0  0
   66.7563   78.7376   88.1040 C   0  0  0  0  0  0  0  0  0  0  0  0
   67.7818   78.0894   88.7979 C   0  0  0  0  0  0  0  0  0  0  0  0
   68.7008   78.8305   89.5578 C   0  0  0  0  0  0  0  0  0  0  0  0
   68.5895   80.2280   89.6065 C   0  0  0  0  0  0  0  0  0  0  0  0
   69.8159   78.1511   90.2417 C   0  0  0  0  0  0  0  0  0  0  0  0
   71.1458   78.4142   89.8782 C   0  0  0  0  0  0  0  0  0  0  0  0
   72.1949   77.7805   90.5521 C   0  0  0  0  0  0  0  0  0  0  0  0
   71.9225   76.8573   91.5686 C   0  0  0  0  0  0  0  0  0  0  0  0
   70.6008   76.5482   91.9004 C   0  0  0  0  0  0  0  0  0  0  0  0
   69.5493   77.2220   91.2574 C   0  0  0  0  0  0  0  0  0  0  0  0
   70.3491   75.5813   92.8811 O   0  0  0  0  0  0  0  0  0  0  0  0
   69.0689   75.1222   93.2290 C   0  0  0  0  0  0  0  0  0  0  0  0
   68.4166   74.1124   92.4945 C   0  0  0  0  0  0  0  0  0  0  0  0
   67.1588   73.6519   92.8956 C   0  0  0  0  0  0  0  0  0  0  0  0
   66.5447   74.1866   94.0320 C   0  0  0  0  0  0  0  0  0  0  0  0
   65.3327   73.7228   94.4282 F   0  0  0  0  0  0  0  0  0  0  0  0
   67.1861   75.1884   94.7660 C   0  0  0  0  0  0  0  0  0  0  0  0
   68.4436   75.6528   94.3650 C   0  0  0  0  0  0  0  0  0  0  0  0
   67.5855   82.3904   88.7979 C   0  0  0  0  0  0  0  0  0  0  0  0
   68.3436   82.8271   87.6670 O   0  0  0  0  0  0  0  0  0  0  0  0
   70.0936   85.9930   88.4933 C   0  0  0  0  0  0  0  0  0  0  0  0
   69.0955   85.0122   88.3501 C   0  0  0  0  0  0  0  0  0  0  0  0
   69.3619   83.7958   87.7134 C   0  0  0  0  0  0  0  0  0  0  0  0
   70.6312   83.5756   87.1569 C   0  0  0  0  0  0  0  0  0  0  0  0
   71.6317   84.5360   87.2930 C   0  0  0  0  0  0  0  0  0  0  0  0
   71.3905   85.7300   87.9827 C   0  0  0  0  0  0  0  0  0  0  0  0
   72.4658   86.6014   88.1636 O   0  0  0  0  0  0  0  0  0  0  0  0
   73.3065   86.3881   87.8089 H   0  0  0  0  0  0  0  0  0  0  0  0
   69.1479   87.2678   90.2752 O   0  0  0  0  0  0  0  0  0  0  0  0
   69.7346   87.2652   89.1606 C   0  0  0  0  0  0  0  0  0  0  0  0
   70.0919   88.4781   88.5747 O   0  0  0  0  0  0  0  0  0  0  0  0
   70.5287   88.4874   87.7458 H   0  0  0  0  0  0  0  0  0  0  0  0
  1  2  2  0  0  0  0
  2  3  1  0  0  0  0
  3  4  2  0  0  0  0
  4  5  1  0  0  0  0
  5  7  1  0  0  0  0
  5  6  2  0  0  0  0
  6  1  1  0  0  0  0
  7  8  2  0  0  0  0
  8  9  1  0  0  0  0
  9 10  2  0  0  0  0
 10 11  1  0  0  0  0
 11 13  1  0  0  0  0
 11 12  2  0  0  0  0
 12  7  1  0  0  0  0
 13 14  1  0  0  0  0
 14 15  2  0  0  0  0
 15 16  1  0  0  0  0
 16 17  2  0  0  0  0
 17 18  1  0  0  0  0
 17 19  1  0  0  0  0
 19 20  2  0  0  0  0
 20 14  1  0  0  0  0
 21  1  1  0  0  0  0
 22 21  1  0  0  0  0
 23 24  2  0  0  0  0
 24 25  1  0  0  0  0
 25 22  1  0  0  0  0
 25 26  2  0  0  0  0
 26 27  1  0  0  0  0
 27 28  2  0  0  0  0
 28 29  1  0  0  0  0
 28 23  1  0  0  0  0
 29 30  1  0  0  0  0
 31 32  2  0  0  0  0
 32 33  1  0  0  0  0
 32 23  1  0  0  0  0
 33 34  1  0  0  0  0
M  END
>  <Activity>
8.4

>  <minimizedAffinity>
-8.94404

>  <RFScoreVS_v2>
5.99651483892

$$$$
HIPS6984
 OpenBabel05252300073D

 33 36  0  0  0  0  0  0  0  0999 V2000
   68.1133   79.3386   89.4867 C   0  0  0  0  0  0  0  0  0  0  0  0
   67.5006   79.7647   88.3010 C   0  0  0  0  0  0  0  0  0  0  0  0
   66.9417   78.8160   87.4799 C   0  0  0  0  0  0  0  0  0  0  0  0
   66.9629   77.4714   87.7804 C   0  0  0  0  0  0  0  0  0  0  0  0
   67.5767   77.0914   88.9588 C   0  0  0  0  0  0  0  0  0  0  0  0
   68.1515   78.0162   89.8125 C   0  0  0  0  0  0  0  0  0  0  0  0
   67.5975   75.6645   89.2759 C   0  0  0  0  0  0  0  0  0  0  0  0
   66.9622   74.7914   88.4228 C   0  0  0  0  0  0  0  0  0  0  0  0
   66.9525   73.4151   88.6789 C   0  0  0  0  0  0  0  0  0  0  0  0
   67.5903   72.9198   89.8064 C   0  0  0  0  0  0  0  0  0  0  0  0
   68.2315   73.7756   90.6712 C   0  0  0  0  0  0  0  0  0  0  0  0
   68.2196   75.1494   90.3812 C   0  0  0  0  0  0  0  0  0  0  0  0
   68.8852   73.3828   91.7999 O   0  0  0  0  0  0  0  0  0  0  0  0
   68.4579   73.4084   93.1302 C   0  0  0  0  0  0  0  0  0  0  0  0
   66.9784   73.1462   93.1613 C   0  0  0  0  0  0  0  0  0  0  0  0
   66.2082   73.9841   94.1233 C   0  0  0  0  0  0  0  0  0  0  0  0
   67.0362   74.0829   95.3913 C   0  0  0  0  0  0  0  0  0  0  0  0
   68.2165   74.9668   95.0934 C   0  0  0  0  0  0  0  0  0  0  0  0
   68.9338   74.6138   93.8303 C   0  0  0  0  0  0  0  0  0  0  0  0
   68.7413   80.3460   90.3517 C   0  0  0  0  0  0  0  0  0  0  0  0
   69.9475   80.8468   90.0236 O   0  0  0  0  0  0  0  0  0  0  0  0
   70.3761   83.9975   88.1139 C   0  0  0  0  0  0  0  0  0  0  0  0
   69.8024   82.8454   88.6263 C   0  0  0  0  0  0  0  0  0  0  0  0
   70.4436   81.9817   89.4898 C   0  0  0  0  0  0  0  0  0  0  0  0
   71.7685   82.3602   89.8305 C   0  0  0  0  0  0  0  0  0  0  0  0
   72.3267   83.4988   89.3205 C   0  0  0  0  0  0  0  0  0  0  0  0
   71.6586   84.3386   88.4604 C   0  0  0  0  0  0  0  0  0  0  0  0
   72.2872   85.4779   87.9812 O   0  0  0  0  0  0  0  0  0  0  0  0
   73.1651   85.6741   88.2434 H   0  0  0  0  0  0  0  0  0  0  0  0
   68.5297   85.3071   87.5803 O   0  0  0  0  0  0  0  0  0  0  0  0
   69.6467   84.8696   87.2046 C   0  0  0  0  0  0  0  0  0  0  0  0
   70.1117   85.2356   85.9681 O   0  0  0  0  0  0  0  0  0  0  0  0
   70.9417   84.9212   85.6678 H   0  0  0  0  0  0  0  0  0  0  0  0
  1  2  2  0  0  0  0
  2  3  1  0  0  0  0
  3  4  2  0  0  0  0
  4  5  1  0  0  0  0
  5  7  1  0  0  0  0
  5  6  2  0  0  0  0
  6  1  1  0  0  0  0
  7  8  2  0  0  0  0
  8  9  1  0  0  0  0
  9 10  2  0  0  0  0
 10 11  1  0  0  0  0
 11 13  1  0  0  0  0
 11 12  2  0  0  0  0
 12  7  1  0  0  0  0
 13 14  1  0  0  0  0
 14 15  1  0  0  0  0
 15 16  1  0  0  0  0
 16 17  1  0  0  0  0
 17 18  1  0  0  0  0
 18 19  1  0  0  0  0
 19 14  1  0  0  0  0
 20  1  1  0  0  0  0
 21 20  1  0  0  0  0
 22 23  2  0  0  0  0
 23 24  1  0  0  0  0
 24 21  1  0  0  0  0
 24 25  2  0  0  0  0
 25 26  1  0  0  0  0
 26 27  2  0  0  0  0
 27 28  1  0  0  0  0
 27 22  1  0  0  0  0
 28 29  1  0  0  0  0
 30 31  2  0  0  0  0
 31 32  1  0  0  0  0
 31 22  1  0  0  0  0
 32 33  1  0  0  0  0
M  END
>  <Activity>
10.3

>  <minimizedAffinity>
-9.38206

>  <RFScoreVS_v2>
5.97200150309

$$$$
HIPS6984
 OpenBabel05252300073D

 33 36  0  0  0  0  0  0  0  0999 V2000
   69.6606   76.7659   91.9507 C   0  0  0  0  0  0  0  0  0  0  0  0
   71.0516   76.8222   91.7929 C   0  0  0  0  0  0  0  0  0  0  0  0
   71.5655   77.6773   90.8488 C   0  0  0  0  0  0  0  0  0  0  0  0
   70.7663   78.4747   90.0589 C   0  0  0  0  0  0  0  0  0  0  0  0
   69.3994   78.3903   90.2448 C   0  0  0  0  0  0  0  0  0  0  0  0
   68.8428   77.5413   91.1849 C   0  0  0  0  0  0  0  0  0  0  0  0
   68.5535   79.2376   89.4062 C   0  0  0  0  0  0  0  0  0  0  0  0
   67.6374   78.6351   88.5745 C   0  0  0  0  0  0  0  0  0  0  0  0
   66.8022   79.3997   87.7512 C   0  0  0  0  0  0  0  0  0  0  0  0
   66.8953   80.7832   87.7702 C   0  0  0  0  0  0  0  0  0  0  0  0
   67.8039   81.4047   88.5947 C   0  0  0  0  0  0  0  0  0  0  0  0
   68.6246   80.6046   89.4058 C   0  0  0  0  0  0  0  0  0  0  0  0
   67.9660   82.7542   88.6833 O   0  0  0  0  0  0  0  0  0  0  0  0
   68.4779   83.6526   87.7431 C   0  0  0  0  0  0  0  0  0  0  0  0
   69.8005   83.1314   87.2558 C   0  0  0  0  0  0  0  0  0  0  0  0
   70.8624   84.1630   87.0855 C   0  0  0  0  0  0  0  0  0  0  0  0
   70.2029   85.3854   86.4741 C   0  0  0  0  0  0  0  0  0  0  0  0
   69.3372   86.0103   87.5338 C   0  0  0  0  0  0  0  0  0  0  0  0
   68.4538   85.0369   88.2457 C   0  0  0  0  0  0  0  0  0  0  0  0
   69.1048   75.8290   92.9359 C   0  0  0  0  0  0  0  0  0  0  0  0
   69.8183   74.7474   93.3027 O   0  0  0  0  0  0  0  0  0  0  0  0
   70.3744   71.0817   93.4056 C   0  0  0  0  0  0  0  0  0  0  0  0
   70.3556   72.4137   93.7855 C   0  0  0  0  0  0  0  0  0  0  0  0
   69.8659   73.4345   92.9976 C   0  0  0  0  0  0  0  0  0  0  0  0
   69.3670   73.0207   91.7347 C   0  0  0  0  0  0  0  0  0  0  0  0
   69.3893   71.7042   91.3681 C   0  0  0  0  0  0  0  0  0  0  0  0
   69.8856   70.7105   92.1790 C   0  0  0  0  0  0  0  0  0  0  0  0
   69.8770   69.3945   91.7419 O   0  0  0  0  0  0  0  0  0  0  0  0
   69.5335   69.1841   90.8960 H   0  0  0  0  0  0  0  0  0  0  0  0
   70.5760   70.0822   95.4960 O   0  0  0  0  0  0  0  0  0  0  0  0
   70.9059   70.0490   94.2833 C   0  0  0  0  0  0  0  0  0  0  0  0
   71.7421   69.0491   93.8588 O   0  0  0  0  0  0  0  0  0  0  0  0
   72.0009   69.0051   92.9593 H   0  0  0  0  0  0  0  0  0  0  0  0
  1  2  2  0  0  0  0
  2  3  1  0  0  0  0
  3  4  2  0  0  0  0
  4  5  1  0  0  0  0
  5  7  1  0  0  0  0
  5  6  2  0  0  0  0
  6  1  1  0  0  0  0
  7  8  2  0  0  0  0
  8  9  1  0  0  0  0
  9 10  2  0  0  0  0
 10 11  1  0  0  0  0
 11 13  1  0  0  0  0
 11 12  2  0  0  0  0
 12  7  1  0  0  0  0
 13 14  1  0  0  0  0
 14 15  1  0  0  0  0
 15 16  1  0  0  0  0
 16 17  1  0  0  0  0
 17 18  1  0  0  0  0
 18 19  1  0  0  0  0
 19 14  1  0  0  0  0
 20  1  1  0  0  0  0
 21 20  1  0  0  0  0
 22 23  2  0  0  0  0
 23 24  1  0  0  0  0
 24 21  1  0  0  0  0
 24 25  2  0  0  0  0
 25 26  1  0  0  0  0
 26 27  2  0  0  0  0
 27 28  1  0  0  0  0
 27 22  1  0  0  0  0
 28 29  1  0  0  0  0
 30 31  2  0  0  0  0
 31 32  1  0  0  0  0
 31 22  1  0  0  0  0
 32 33  1  0  0  0  0
M  END
>  <Activity>
10.3

>  <minimizedAffinity>
-9.23529

>  <RFScoreVS_v2>
5.99450318925

$$$$
HIPS6984
 OpenBabel05252300073D

 33 36  0  0  0  0  0  0  0  0999 V2000
   67.1616   79.8855   88.1873 C   0  0  0  0  0  0  0  0  0  0  0  0
   66.5499   78.9164   87.3814 C   0  0  0  0  0  0  0  0  0  0  0  0
   66.9533   77.6102   87.5144 C   0  0  0  0  0  0  0  0  0  0  0  0
   67.9304   77.2242   88.4060 C   0  0  0  0  0  0  0  0  0  0  0  0
   68.5096   78.2096   89.1828 C   0  0  0  0  0  0  0  0  0  0  0  0
   68.1314   79.5365   89.0785 C   0  0  0  0  0  0  0  0  0  0  0  0
   69.5456   77.7978   90.1284 C   0  0  0  0  0  0  0  0  0  0  0  0
   70.8242   78.2754   89.9529 C   0  0  0  0  0  0  0  0  0  0  0  0
   71.8536   77.9132   90.8299 C   0  0  0  0  0  0  0  0  0  0  0  0
   71.5863   77.0617   91.8914 C   0  0  0  0  0  0  0  0  0  0  0  0
   70.3150   76.5738   92.0845 C   0  0  0  0  0  0  0  0  0  0  0  0
   69.3089   76.9593   91.1842 C   0  0  0  0  0  0  0  0  0  0  0  0
   69.9573   75.7362   93.0974 O   0  0  0  0  0  0  0  0  0  0  0  0
   69.3820   74.4639   93.0386 C   0  0  0  0  0  0  0  0  0  0  0  0
   69.7734   73.8229   91.7369 C   0  0  0  0  0  0  0  0  0  0  0  0
   68.6876   73.0639   91.0546 C   0  0  0  0  0  0  0  0  0  0  0  0
   67.9285   72.3077   92.1294 C   0  0  0  0  0  0  0  0  0  0  0  0
   67.1438   73.3160   92.9235 C   0  0  0  0  0  0  0  0  0  0  0  0
   67.9438   74.5032   93.3538 C   0  0  0  0  0  0  0  0  0  0  0  0
   66.7570   81.2882   88.0254 C   0  0  0  0  0  0  0  0  0  0  0  0
   67.4851   82.1050   87.2405 O   0  0  0  0  0  0  0  0  0  0  0  0
   70.5920   83.8489   88.2715 C   0  0  0  0  0  0  0  0  0  0  0  0
   69.6107   82.8770   88.1643 C   0  0  0  0  0  0  0  0  0  0  0  0
   68.4771   83.0065   87.3892 C   0  0  0  0  0  0  0  0  0  0  0  0
   68.3773   84.2360   86.6868 C   0  0  0  0  0  0  0  0  0  0  0  0
   69.3503   85.1893   86.7981 C   0  0  0  0  0  0  0  0  0  0  0  0
   70.4693   85.0277   87.5812 C   0  0  0  0  0  0  0  0  0  0  0  0
   71.4170   86.0379   87.6475 O   0  0  0  0  0  0  0  0  0  0  0  0
   71.2941   86.8282   87.1594 H   0  0  0  0  0  0  0  0  0  0  0  0
   71.5947   83.1860   90.2626 O   0  0  0  0  0  0  0  0  0  0  0  0
   71.7673   83.6526   89.1081 C   0  0  0  0  0  0  0  0  0  0  0  0
   73.0435   83.9486   88.7048 O   0  0  0  0  0  0  0  0  0  0  0  0
   73.1952   84.2973   87.8484 H   0  0  0  0  0  0  0  0  0  0  0  0
  1  2  2  0  0  0  0
  2  3  1  0  0  0  0
  3  4  2  0  0  0  0
  4  5  1  0  0  0  0
  5  7  1  0  0  0  0
  5  6  2  0  0  0  0
  6  1  1  0  0  0  0
  7  8  2  0  0  0  0
  8  9  1  0  0  0  0
  9 10  2  0  0  0  0
 10 11  1  0  0  0  0
 11 13  1  0  0  0  0
 11 12  2  0  0  0  0
 12  7  1  0  0  0  0
 13 14  1  0  0  0  0
 14 15  1  0  0  0  0
 15 16  1  0  0  0  0
 16 17  1  0  0  0  0
 17 18  1  0  0  0  0
 18 19  1  0  0  0  0
 19 14  1  0  0  0  0
 20  1  1  0  0  0  0
 21 20  1  0  0  0  0
 22 23  2  0  0  0  0
 23 24  1  0  0  0  0
 24 21  1  0  0  0  0
 24 25  2  0  0  0  0
 25 26  1  0  0  0  0
 26 27  2  0  0  0  0
 27 28  1  0  0  0  0
 27 22  1  0  0  0  0
 28 29  1  0  0  0  0
 30 31  2  0  0  0  0
 31 32  1  0  0  0  0
 31 22  1  0  0  0  0
 32 33  1  0  0  0  0
M  END
>  <Activity>
10.3

>  <minimizedAffinity>
-9.16177

>  <RFScoreVS_v2>
5.97896044814

$$$$
HIPS6984
 OpenBabel05252300073D

 33 36  0  0  0  0  0  0  0  0999 V2000
   67.1286   79.8290   88.3728 C   0  0  0  0  0  0  0  0  0  0  0  0
   66.4809   78.8854   87.5649 C   0  0  0  0  0  0  0  0  0  0  0  0
   66.8889   77.5759   87.6387 C   0  0  0  0  0  0  0  0  0  0  0  0
   67.9046   77.1627   88.4732 C   0  0  0  0  0  0  0  0  0  0  0  0
   68.5185   78.1236   89.2540 C   0  0  0  0  0  0  0  0  0  0  0  0
   68.1369   79.4528   89.2085 C   0  0  0  0  0  0  0  0  0  0  0  0
   69.5953   77.6830   90.1390 C   0  0  0  0  0  0  0  0  0  0  0  0
   70.8340   78.2684   90.0103 C   0  0  0  0  0  0  0  0  0  0  0  0
   71.8997   77.8842   90.8329 C   0  0  0  0  0  0  0  0  0  0  0  0
   71.7096   76.9008   91.7920 C   0  0  0  0  0  0  0  0  0  0  0  0
   70.4792   76.3037   91.9371 C   0  0  0  0  0  0  0  0  0  0  0  0
   69.4347   76.7152   91.0937 C   0  0  0  0  0  0  0  0  0  0  0  0
   70.1972   75.3330   92.8501 O   0  0  0  0  0  0  0  0  0  0  0  0
   69.4403   74.1672   92.7043 C   0  0  0  0  0  0  0  0  0  0  0  0
   69.8575   73.1913   93.7684 C   0  0  0  0  0  0  0  0  0  0  0  0
   69.9710   71.7754   93.3179 C   0  0  0  0  0  0  0  0  0  0  0  0
   68.7990   71.5064   92.3921 C   0  0  0  0  0  0  0  0  0  0  0  0
   69.0521   72.2553   91.1122 C   0  0  0  0  0  0  0  0  0  0  0  0
   69.4550   73.6806   91.3141 C   0  0  0  0  0  0  0  0  0  0  0  0
   66.7182   81.2358   88.2733 C   0  0  0  0  0  0  0  0  0  0  0  0
   67.4558   82.1889   88.8741 O   0  0  0  0  0  0  0  0  0  0  0  0
   70.4292   84.1904   87.9201 C   0  0  0  0  0  0  0  0  0  0  0  0
   69.1253   83.7250   87.9681 C   0  0  0  0  0  0  0  0  0  0  0  0
   68.7037   82.6915   88.7785 C   0  0  0  0  0  0  0  0  0  0  0  0
   69.7215   82.1179   89.5846 C   0  0  0  0  0  0  0  0  0  0  0  0
   71.0055   82.5835   89.5310 C   0  0  0  0  0  0  0  0  0  0  0  0
   71.3924   83.6171   88.7104 C   0  0  0  0  0  0  0  0  0  0  0  0
   72.7137   84.0380   88.7072 O   0  0  0  0  0  0  0  0  0  0  0  0
   73.3404   83.6186   89.2632 H   0  0  0  0  0  0  0  0  0  0  0  0
   71.5783   86.1694   87.5050 O   0  0  0  0  0  0  0  0  0  0  0  0
   70.8126   85.2864   87.0419 C   0  0  0  0  0  0  0  0  0  0  0  0
   70.3846   85.4047   85.7450 O   0  0  0  0  0  0  0  0  0  0  0  0
   69.8135   84.7581   85.3794 H   0  0  0  0  0  0  0  0  0  0  0  0
  1  2  2  0  0  0  0
  2  3  1  0  0  0  0
  3  4  2  0  0  0  0
  4  5  1  0  0  0  0
  5  7  1  0  0  0  0
  5  6  2  0  0  0  0
  6  1  1  0  0  0  0
  7  8  2  0  0  0  0
  8  9  1  0  0  0  0
  9 10  2  0  0  0  0
 10 11  1  0  0  0  0
 11 13  1  0  0  0  0
 11 12  2  0  0  0  0
 12  7  1  0  0  0  0
 13 14  1  0  0  0  0
 14 15  1  0  0  0  0
 15 16  1  0  0  0  0
 16 17  1  0  0  0  0
 17 18  1  0  0  0  0
 18 19  1  0  0  0  0
 19 14  1  0  0  0  0
 20  1  1  0  0  0  0
 21 20  1  0  0  0  0
 22 23  2  0  0  0  0
 23 24  1  0  0  0  0
 24 21  1  0  0  0  0
 24 25  2  0  0  0  0
 25 26  1  0  0  0  0
 26 27  2  0  0  0  0
 27 28  1  0  0  0  0
 27 22  1  0  0  0  0
 28 29  1  0  0  0  0
 30 31  2  0  0  0  0
 31 32  1  0  0  0  0
 31 22  1  0  0  0  0
 32 33  1  0  0  0  0
M  END
>  <Activity>
10.3

>  <minimizedAffinity>
-8.97675

>  <RFScoreVS_v2>
5.98826430794

$$$$
HIPS6984
 OpenBabel05252300073D

 33 36  0  0  0  0  0  0  0  0999 V2000
   66.9816   76.2331   88.2321 C   0  0  0  0  0  0  0  0  0  0  0  0
   67.0672   76.4879   86.8572 C   0  0  0  0  0  0  0  0  0  0  0  0
   67.2584   77.7846   86.4463 C   0  0  0  0  0  0  0  0  0  0  0  0
   67.3682   78.8337   87.3329 C   0  0  0  0  0  0  0  0  0  0  0  0
   67.2784   78.5412   88.6806 C   0  0  0  0  0  0  0  0  0  0  0  0
   67.0857   77.2485   89.1347 C   0  0  0  0  0  0  0  0  0  0  0  0
   67.3957   79.6556   89.6193 C   0  0  0  0  0  0  0  0  0  0  0  0
   66.3104   79.9718   90.4042 C   0  0  0  0  0  0  0  0  0  0  0  0
   66.3694   81.0289   91.3202 C   0  0  0  0  0  0  0  0  0  0  0  0
   67.5349   81.7706   91.4419 C   0  0  0  0  0  0  0  0  0  0  0  0
   68.6307   81.4703   90.6672 C   0  0  0  0  0  0  0  0  0  0  0  0
   68.5337   80.4033   89.7597 C   0  0  0  0  0  0  0  0  0  0  0  0
   69.8163   82.1392   90.7178 O   0  0  0  0  0  0  0  0  0  0  0  0
   70.6265   82.5943   89.6740 C   0  0  0  0  0  0  0  0  0  0  0  0
   72.0546   82.2533   89.9951 C   0  0  0  0  0  0  0  0  0  0  0  0
   73.0470   83.3153   89.6665 C   0  0  0  0  0  0  0  0  0  0  0  0
   72.6406   83.9076   88.3296 C   0  0  0  0  0  0  0  0  0  0  0  0
   71.3916   84.7156   88.5536 C   0  0  0  0  0  0  0  0  0  0  0  0
   70.3387   83.9987   89.3359 C   0  0  0  0  0  0  0  0  0  0  0  0
   66.7441   74.8529   88.6752 C   0  0  0  0  0  0  0  0  0  0  0  0
   67.7636   74.1294   89.1756 O   0  0  0  0  0  0  0  0  0  0  0  0
   69.6422   74.8337   92.2953 C   0  0  0  0  0  0  0  0  0  0  0  0
   68.9765   75.0284   91.0962 C   0  0  0  0  0  0  0  0  0  0  0  0
   68.4213   74.0118   90.3472 C   0  0  0  0  0  0  0  0  0  0  0  0
   68.5800   72.7142   90.9003 C   0  0  0  0  0  0  0  0  0  0  0  0
   69.2381   72.5312   92.0841 C   0  0  0  0  0  0  0  0  0  0  0  0
   69.7806   73.5684   92.8062 C   0  0  0  0  0  0  0  0  0  0  0  0
   70.4357   73.3092   94.0006 O   0  0  0  0  0  0  0  0  0  0  0  0
   70.5079   72.4291   94.3140 H   0  0  0  0  0  0  0  0  0  0  0  0
   69.7234   76.2057   94.1715 O   0  0  0  0  0  0  0  0  0  0  0  0
   70.2077   75.9495   93.0400 C   0  0  0  0  0  0  0  0  0  0  0  0
   71.2339   76.7300   92.5743 O   0  0  0  0  0  0  0  0  0  0  0  0
   71.6098   76.5569   91.7337 H   0  0  0  0  0  0  0  0  0  0  0  0
  1  2  2  0  0  0  0
  2  3  1  0  0  0  0
  3  4  2  0  0  0  0
  4  5  1  0  0  0  0
  5  7  1  0  0  0  0
  5  6  2  0  0  0  0
  6  1  1  0  0  0  0
  7  8  2  0  0  0  0
  8  9  1  0  0  0  0
  9 10  2  0  0  0  0
 10 11  1  0  0  0  0
 11 13  1  0  0  0  0
 11 12  2  0  0  0  0
 12  7  1  0  0  0  0
 13 14  1  0  0  0  0
 14 15  1  0  0  0  0
 15 16  1  0  0  0  0
 16 17  1  0  0  0  0
 17 18  1  0  0  0  0
 18 19  1  0  0  0  0
 19 14  1  0  0  0  0
 20  1  1  0  0  0  0
 21 20  1  0  0  0  0
 22 23  2  0  0  0  0
 23 24  1  0  0  0  0
 24 21  1  0  0  0  0
 24 25  2  0  0  0  0
 25 26  1  0  0  0  0
 26 27  2  0  0  0  0
 27 28  1  0  0  0  0
 27 22  1  0  0  0  0
 28 29  1  0  0  0  0
 30 31  2  0  0  0  0
 31 32  1  0  0  0  0
 31 22  1  0  0  0  0
 32 33  1  0  0  0  0
M  END
>  <Activity>
10.3

>  <minimizedAffinity>
-8.95517

>  <RFScoreVS_v2>
6.00652762778

$$$$
HIPS6984
 OpenBabel05252300073D

 33 36  0  0  0  0  0  0  0  0999 V2000
   69.9105   78.6100   90.3360 C   0  0  0  0  0  0  0  0  0  0  0  0
   71.2758   78.5940   90.0222 C   0  0  0  0  0  0  0  0  0  0  0  0
   72.0682   77.6401   90.6128 C   0  0  0  0  0  0  0  0  0  0  0  0
   71.5700   76.7065   91.4954 C   0  0  0  0  0  0  0  0  0  0  0  0
   70.2183   76.7555   91.7791 C   0  0  0  0  0  0  0  0  0  0  0  0
   69.3868   77.7009   91.2053 C   0  0  0  0  0  0  0  0  0  0  0  0
   69.6918   75.7638   92.7152 C   0  0  0  0  0  0  0  0  0  0  0  0
   69.3885   76.1642   93.9964 C   0  0  0  0  0  0  0  0  0  0  0  0
   68.8808   75.2553   94.9325 C   0  0  0  0  0  0  0  0  0  0  0  0
   68.6790   73.9324   94.5686 C   0  0  0  0  0  0  0  0  0  0  0  0
   68.9753   73.5123   93.2930 C   0  0  0  0  0  0  0  0  0  0  0  0
   69.4829   74.4526   92.3822 C   0  0  0  0  0  0  0  0  0  0  0  0
   68.8089   72.2370   92.8441 O   0  0  0  0  0  0  0  0  0  0  0  0
   69.6597   71.1345   92.9609 C   0  0  0  0  0  0  0  0  0  0  0  0
   70.8377   71.5282   93.8070 C   0  0  0  0  0  0  0  0  0  0  0  0
   72.1548   71.0158   93.3344 C   0  0  0  0  0  0  0  0  0  0  0  0
   71.9372   69.5874   92.8701 C   0  0  0  0  0  0  0  0  0  0  0  0
   71.1530   69.6428   91.5876 C   0  0  0  0  0  0  0  0  0  0  0  0
   69.9554   70.5354   91.6482 C   0  0  0  0  0  0  0  0  0  0  0  0
   69.0653   79.6487   89.7325 C   0  0  0  0  0  0  0  0  0  0  0  0
   69.2856   80.9432   90.0312 O   0  0  0  0  0  0  0  0  0  0  0  0
   70.1715   83.9604   88.0642 C   0  0  0  0  0  0  0  0  0  0  0  0
   69.4416   82.9017   88.5794 C   0  0  0  0  0  0  0  0  0  0  0  0
   69.9373   81.9935   89.4916 C   0  0  0  0  0  0  0  0  0  0  0  0
   71.2834   82.2198   89.8809 C   0  0  0  0  0  0  0  0  0  0  0  0
   71.9962   83.2671   89.3677 C   0  0  0  0  0  0  0  0  0  0  0  0
   71.4707   84.1550   88.4584 C   0  0  0  0  0  0  0  0  0  0  0  0
   72.2522   85.1954   87.9790 O   0  0  0  0  0  0  0  0  0  0  0  0
   73.1360   85.2922   88.2748 H   0  0  0  0  0  0  0  0  0  0  0  0
   68.4517   85.3549   87.3521 O   0  0  0  0  0  0  0  0  0  0  0  0
   69.5911   84.8862   87.1021 C   0  0  0  0  0  0  0  0  0  0  0  0
   70.2186   85.2705   85.9455 O   0  0  0  0  0  0  0  0  0  0  0  0
   71.0682   84.9336   85.7392 H   0  0  0  0  0  0  0  0  0  0  0  0
  1  2  2  0  0  0  0
  2  3  1  0  0  0  0
  3  4  2  0  0  0  0
  4  5  1  0  0  0  0
  5  7  1  0  0  0  0
  5  6  2  0  0  0  0
  6  1  1  0  0  0  0
  7  8  2  0  0  0  0
  8  9  1  0  0  0  0
  9 10  2  0  0  0  0
 10 11  1  0  0  0  0
 11 13  1  0  0  0  0
 11 12  2  0  0  0  0
 12  7  1  0  0  0  0
 13 14  1  0  0  0  0
 14 15  1  0  0  0  0
 15 16  1  0  0  0  0
 16 17  1  0  0  0  0
 17 18  1  0  0  0  0
 18 19  1  0  0  0  0
 19 14  1  0  0  0  0
 20  1  1  0  0  0  0
 21 20  1  0  0  0  0
 22 23  2  0  0  0  0
 23 24  1  0  0  0  0
 24 21  1  0  0  0  0
 24 25  2  0  0  0  0
 25 26  1  0  0  0  0
 26 27  2  0  0  0  0
 27 28  1  0  0  0  0
 27 22  1  0  0  0  0
 28 29  1  0  0  0  0
 30 31  2  0  0  0  0
 31 32  1  0  0  0  0
 31 22  1  0  0  0  0
 32 33  1  0  0  0  0
M  END
>  <Activity>
10.3

>  <minimizedAffinity>
-8.93539

>  <RFScoreVS_v2>
5.99185640949

$$$$
HIPS6984
 OpenBabel05252300073D

 33 36  0  0  0  0  0  0  0  0999 V2000
   68.9364   78.3136   90.5062 C   0  0  0  0  0  0  0  0  0  0  0  0
   69.9792   77.3999   90.7074 C   0  0  0  0  0  0  0  0  0  0  0  0
   71.2714   77.8536   90.6019 C   0  0  0  0  0  0  0  0  0  0  0  0
   71.5739   79.1653   90.3078 C   0  0  0  0  0  0  0  0  0  0  0  0
   70.5174   80.0354   90.1163 C   0  0  0  0  0  0  0  0  0  0  0  0
   69.2020   79.6175   90.2134 C   0  0  0  0  0  0  0  0  0  0  0  0
   70.8406   81.4267   89.8049 C   0  0  0  0  0  0  0  0  0  0  0  0
   72.1396   81.8520   89.9643 C   0  0  0  0  0  0  0  0  0  0  0  0
   72.5033   83.1736   89.6796 C   0  0  0  0  0  0  0  0  0  0  0  0
   71.5453   84.0702   89.2308 C   0  0  0  0  0  0  0  0  0  0  0  0
   70.2417   83.6649   89.0644 C   0  0  0  0  0  0  0  0  0  0  0  0
   69.9149   82.3318   89.3603 C   0  0  0  0  0  0  0  0  0  0  0  0
   69.2343   84.4710   88.6276 O   0  0  0  0  0  0  0  0  0  0  0  0
   68.9948   85.8213   88.8969 C   0  0  0  0  0  0  0  0  0  0  0  0
   69.9494   86.6472   88.0814 C   0  0  0  0  0  0  0  0  0  0  0  0
   70.5384   87.8175   88.7914 C   0  0  0  0  0  0  0  0  0  0  0  0
   69.4281   88.4457   89.6134 C   0  0  0  0  0  0  0  0  0  0  0  0
   69.1285   87.5143   90.7561 C   0  0  0  0  0  0  0  0  0  0  0  0
   68.9559   86.0875   90.3451 C   0  0  0  0  0  0  0  0  0  0  0  0
   67.5531   77.8260   90.5853 C   0  0  0  0  0  0  0  0  0  0  0  0
   67.3003   76.5121   90.4332 O   0  0  0  0  0  0  0  0  0  0  0  0
   67.6377   73.8796   93.0243 C   0  0  0  0  0  0  0  0  0  0  0  0
   67.3327   75.0867   92.4169 C   0  0  0  0  0  0  0  0  0  0  0  0
   67.5697   75.3634   91.0865 C   0  0  0  0  0  0  0  0  0  0  0  0
   68.1635   74.3002   90.3572 C   0  0  0  0  0  0  0  0  0  0  0  0
   68.4609   73.1123   90.9644 C   0  0  0  0  0  0  0  0  0  0  0  0
   68.2113   72.8696   92.2949 C   0  0  0  0  0  0  0  0  0  0  0  0
   68.5395   71.6399   92.8455 O   0  0  0  0  0  0  0  0  0  0  0  0
   68.9304   70.9767   92.3112 H   0  0  0  0  0  0  0  0  0  0  0  0
   66.1773   73.7792   94.8316 O   0  0  0  0  0  0  0  0  0  0  0  0
   67.3631   73.6485   94.4352 C   0  0  0  0  0  0  0  0  0  0  0  0
   68.3244   73.2984   95.3476 O   0  0  0  0  0  0  0  0  0  0  0  0
   69.2147   73.1955   95.0741 H   0  0  0  0  0  0  0  0  0  0  0  0
  1  2  2  0  0  0  0
  2  3  1  0  0  0  0
  3  4  2  0  0  0  0
  4  5  1  0  0  0  0
  5  7  1  0  0  0  0
  5  6  2  0  0  0  0
  6  1  1  0  0  0  0
  7  8  2  0  0  0  0
  8  9  1  0  0  0  0
  9 10  2  0  0  0  0
 10 11  1  0  0  0  0
 11 13  1  0  0  0  0
 11 12  2  0  0  0  0
 12  7  1  0  0  0  0
 13 14  1  0  0  0  0
 14 15  1  0  0  0  0
 15 16  1  0  0  0  0
 16 17  1  0  0  0  0
 17 18  1  0  0  0  0
 18 19  1  0  0  0  0
 19 14  1  0  0  0  0
 20  1  1  0  0  0  0
 21 20  1  0  0  0  0
 22 23  2  0  0  0  0
 23 24  1  0  0  0  0
 24 21  1  0  0  0  0
 24 25  2  0  0  0  0
 25 26  1  0  0  0  0
 26 27  2  0  0  0  0
 27 28  1  0  0  0  0
 27 22  1  0  0  0  0
 28 29  1  0  0  0  0
 30 31  2  0  0  0  0
 31 32  1  0  0  0  0
 31 22  1  0  0  0  0
 32 33  1  0  0  0  0
M  END
>  <Activity>
10.3

>  <minimizedAffinity>
-8.87938

>  <RFScoreVS_v2>
5.99394797638

$$$$
HIPS6984
 OpenBabel05252300073D

 33 36  0  0  0  0  0  0  0  0999 V2000
   69.2916   78.3679   90.2706 C   0  0  0  0  0  0  0  0  0  0  0  0
   70.6315   78.5384   89.8987 C   0  0  0  0  0  0  0  0  0  0  0  0
   71.5867   77.7941   90.5470 C   0  0  0  0  0  0  0  0  0  0  0  0
   71.2742   76.8933   91.5418 C   0  0  0  0  0  0  0  0  0  0  0  0
   69.9415   76.7541   91.8799 C   0  0  0  0  0  0  0  0  0  0  0  0
   68.9496   77.4855   91.2509 C   0  0  0  0  0  0  0  0  0  0  0  0
   69.6123   75.7975   92.9351 C   0  0  0  0  0  0  0  0  0  0  0  0
   69.2478   76.2806   94.1710 C   0  0  0  0  0  0  0  0  0  0  0  0
   68.9218   75.4083   95.2164 C   0  0  0  0  0  0  0  0  0  0  0  0
   68.9653   74.0378   95.0087 C   0  0  0  0  0  0  0  0  0  0  0  0
   69.3266   73.5347   93.7808 C   0  0  0  0  0  0  0  0  0  0  0  0
   69.6468   74.4407   92.7569 C   0  0  0  0  0  0  0  0  0  0  0  0
   69.3957   72.2075   93.4824 O   0  0  0  0  0  0  0  0  0  0  0  0
   70.3766   71.5036   92.7786 C   0  0  0  0  0  0  0  0  0  0  0  0
   69.7263   70.3341   92.0944 C   0  0  0  0  0  0  0  0  0  0  0  0
   70.5062   69.0649   92.1343 C   0  0  0  0  0  0  0  0  0  0  0  0
   71.9613   69.4279   91.9016 C   0  0  0  0  0  0  0  0  0  0  0  0
   72.4559   70.1292   93.1372 C   0  0  0  0  0  0  0  0  0  0  0  0
   71.5472   71.2119   93.6237 C   0  0  0  0  0  0  0  0  0  0  0  0
   68.2699   79.1854   89.6032 C   0  0  0  0  0  0  0  0  0  0  0  0
   67.3710   78.5963   88.7919 O   0  0  0  0  0  0  0  0  0  0  0  0
   66.9830   75.1418   87.4984 C   0  0  0  0  0  0  0  0  0  0  0  0
   67.0283   76.2138   88.3745 C   0  0  0  0  0  0  0  0  0  0  0  0
   67.3093   77.5099   87.9951 C   0  0  0  0  0  0  0  0  0  0  0  0
   67.5560   77.6805   86.6077 C   0  0  0  0  0  0  0  0  0  0  0  0
   67.5090   76.6172   85.7502 C   0  0  0  0  0  0  0  0  0  0  0  0
   67.2257   75.3361   86.1625 C   0  0  0  0  0  0  0  0  0  0  0  0
   67.1950   74.3042   85.2367 O   0  0  0  0  0  0  0  0  0  0  0  0
   67.3669   74.4805   84.3327 H   0  0  0  0  0  0  0  0  0  0  0  0
   67.1072   73.4537   89.0934 O   0  0  0  0  0  0  0  0  0  0  0  0
   66.6808   73.7949   87.9610 C   0  0  0  0  0  0  0  0  0  0  0  0
   65.9606   72.8857   87.2306 O   0  0  0  0  0  0  0  0  0  0  0  0
   65.6332   73.1187   86.3841 H   0  0  0  0  0  0  0  0  0  0  0  0
  1  2  2  0  0  0  0
  2  3  1  0  0  0  0
  3  4  2  0  0  0  0
  4  5  1  0  0  0  0
  5  7  1  0  0  0  0
  5  6  2  0  0  0  0
  6  1  1  0  0  0  0
  7  8  2  0  0  0  0
  8  9  1  0  0  0  0
  9 10  2  0  0  0  0
 10 11  1  0  0  0  0
 11 13  1  0  0  0  0
 11 12  2  0  0  0  0
 12  7  1  0  0  0  0
 13 14  1  0  0  0  0
 14 15  1  0  0  0  0
 15 16  1  0  0  0  0
 16 17  1  0  0  0  0
 17 18  1  0  0  0  0
 18 19  1  0  0  0  0
 19 14  1  0  0  0  0
 20  1  1  0  0  0  0
 21 20  1  0  0  0  0
 22 23  2  0  0  0  0
 23 24  1  0  0  0  0
 24 21  1  0  0  0  0
 24 25  2  0  0  0  0
 25 26  1  0  0  0  0
 26 27  2  0  0  0  0
 27 28  1  0  0  0  0
 27 22  1  0  0  0  0
 28 29  1  0  0  0  0
 30 31  2  0  0  0  0
 31 32  1  0  0  0  0
 31 22  1  0  0  0  0
 32 33  1  0  0  0  0
M  END
>  <Activity>
10.3

>  <minimizedAffinity>
-8.87556

>  <RFScoreVS_v2>
5.99077652042

$$$$
HIPS6984
 OpenBabel05252300073D

 33 36  0  0  0  0  0  0  0  0999 V2000
   67.7983   75.8805   89.4573 C   0  0  0  0  0  0  0  0  0  0  0  0
   66.8570   75.9522   88.4222 C   0  0  0  0  0  0  0  0  0  0  0  0
   66.6826   77.1555   87.7832 C   0  0  0  0  0  0  0  0  0  0  0  0
   67.3961   78.2843   88.1228 C   0  0  0  0  0  0  0  0  0  0  0  0
   68.3150   78.1727   89.1490 C   0  0  0  0  0  0  0  0  0  0  0  0
   68.5197   76.9788   89.8175 C   0  0  0  0  0  0  0  0  0  0  0  0
   69.0712   79.3714   89.5072 C   0  0  0  0  0  0  0  0  0  0  0  0
   70.3366   79.2204   90.0267 C   0  0  0  0  0  0  0  0  0  0  0  0
   71.1040   80.3350   90.3855 C   0  0  0  0  0  0  0  0  0  0  0  0
   70.5867   81.6106   90.2172 C   0  0  0  0  0  0  0  0  0  0  0  0
   69.3244   81.7830   89.6992 C   0  0  0  0  0  0  0  0  0  0  0  0
   68.5847   80.6413   89.3511 C   0  0  0  0  0  0  0  0  0  0  0  0
   68.7341   82.9937   89.4959 O   0  0  0  0  0  0  0  0  0  0  0  0
   69.0370   83.9851   88.5587 C   0  0  0  0  0  0  0  0  0  0  0  0
   69.6405   83.3294   87.3485 C   0  0  0  0  0  0  0  0  0  0  0  0
   70.7965   84.0532   86.7481 C   0  0  0  0  0  0  0  0  0  0  0  0
   70.4620   85.5331   86.7806 C   0  0  0  0  0  0  0  0  0  0  0  0
   70.5324   85.9817   88.2147 C   0  0  0  0  0  0  0  0  0  0  0  0
   69.7988   85.0905   89.1646 C   0  0  0  0  0  0  0  0  0  0  0  0
   67.9647   74.6045   90.1656 C   0  0  0  0  0  0  0  0  0  0  0  0
   69.0082   74.4371   91.0001 O   0  0  0  0  0  0  0  0  0  0  0  0
   70.2219   72.4398   93.8802 C   0  0  0  0  0  0  0  0  0  0  0  0
   70.0462   72.8927   92.5829 C   0  0  0  0  0  0  0  0  0  0  0  0
   69.2261   73.9466   92.2374 C   0  0  0  0  0  0  0  0  0  0  0  0
   68.5536   74.5562   93.3288 C   0  0  0  0  0  0  0  0  0  0  0  0
   68.7329   74.1029   94.6057 C   0  0  0  0  0  0  0  0  0  0  0  0
   69.5591   73.0479   94.9156 C   0  0  0  0  0  0  0  0  0  0  0  0
   69.6934   72.6409   96.2343 O   0  0  0  0  0  0  0  0  0  0  0  0
   69.2220   73.0843   96.9119 H   0  0  0  0  0  0  0  0  0  0  0  0
   72.2621   71.3385   93.6957 O   0  0  0  0  0  0  0  0  0  0  0  0
   71.1026   71.3202   94.1811 C   0  0  0  0  0  0  0  0  0  0  0  0
   70.7352   70.2543   94.9608 O   0  0  0  0  0  0  0  0  0  0  0  0
   69.8759   70.2201   95.3328 H   0  0  0  0  0  0  0  0  0  0  0  0
  1  2  2  0  0  0  0
  2  3  1  0  0  0  0
  3  4  2  0  0  0  0
  4  5  1  0  0  0  0
  5  7  1  0  0  0  0
  5  6  2  0  0  0  0
  6  1  1  0  0  0  0
  7  8  2  0  0  0  0
  8  9  1  0  0  0  0
  9 10  2  0  0  0  0
 10 11  1  0  0  0  0
 11 13  1  0  0  0  0
 11 12  2  0  0  0  0
 12  7  1  0  0  0  0
 13 14  1  0  0  0  0
 14 15  1  0  0  0  0
 15 16  1  0  0  0  0
 16 17  1  0  0  0  0
 17 18  1  0  0  0  0
 18 19  1  0  0  0  0
 19 14  1  0  0  0  0
 20  1  1  0  0  0  0
 21 20  1  0  0  0  0
 22 23  2  0  0  0  0
 23 24  1  0  0  0  0
 24 21  1  0  0  0  0
 24 25  2  0  0  0  0
 25 26  1  0  0  0  0
 26 27  2  0  0  0  0
 27 28  1  0  0  0  0
 27 22  1  0  0  0  0
 28 29  1  0  0  0  0
 30 31  2  0  0  0  0
 31 32  1  0  0  0  0
 31 22  1  0  0  0  0
 32 33  1  0  0  0  0
M  END
>  <Activity>
10.3

>  <minimizedAffinity>
-8.84877

>  <RFScoreVS_v2>
6.00946767193

$$$$
HIPS6984
 OpenBabel05252300073D

 33 36  0  0  0  0  0  0  0  0999 V2000
   67.3183   76.3701   88.6226 C   0  0  0  0  0  0  0  0  0  0  0  0
   67.2492   76.4544   87.2258 C   0  0  0  0  0  0  0  0  0  0  0  0
   67.1901   77.7006   86.6511 C   0  0  0  0  0  0  0  0  0  0  0  0
   67.1967   78.8602   87.3954 C   0  0  0  0  0  0  0  0  0  0  0  0
   67.2657   78.7349   88.7700 C   0  0  0  0  0  0  0  0  0  0  0  0
   67.3262   77.4979   89.3870 C   0  0  0  0  0  0  0  0  0  0  0  0
   67.2732   79.9664   89.5575 C   0  0  0  0  0  0  0  0  0  0  0  0
   66.1104   80.3547   90.1828 C   0  0  0  0  0  0  0  0  0  0  0  0
   66.0629   81.5249   90.9498 C   0  0  0  0  0  0  0  0  0  0  0  0
   67.2002   82.3069   91.0844 C   0  0  0  0  0  0  0  0  0  0  0  0
   68.3724   81.9360   90.4680 C   0  0  0  0  0  0  0  0  0  0  0  0
   68.3812   80.7561   89.7069 C   0  0  0  0  0  0  0  0  0  0  0  0
   69.5378   82.6370   90.5442 O   0  0  0  0  0  0  0  0  0  0  0  0
   70.4403   82.9757   89.5323 C   0  0  0  0  0  0  0  0  0  0  0  0
   71.7913   82.4259   89.8943 C   0  0  0  0  0  0  0  0  0  0  0  0
   72.9394   83.3326   89.6104 C   0  0  0  0  0  0  0  0  0  0  0  0
   72.6689   83.9883   88.2688 C   0  0  0  0  0  0  0  0  0  0  0  0
   71.5454   84.9697   88.4629 C   0  0  0  0  0  0  0  0  0  0  0  0
   70.3733   84.4097   89.2026 C   0  0  0  0  0  0  0  0  0  0  0  0
   67.3483   75.0392   89.2433 C   0  0  0  0  0  0  0  0  0  0  0  0
   68.3527   74.7173   90.0806 O   0  0  0  0  0  0  0  0  0  0  0  0
   68.7764   74.5348   93.7608 C   0  0  0  0  0  0  0  0  0  0  0  0
   68.3819   74.2171   92.4715 C   0  0  0  0  0  0  0  0  0  0  0  0
   68.7029   74.9665   91.3589 C   0  0  0  0  0  0  0  0  0  0  0  0
   69.4874   76.1187   91.6272 C   0  0  0  0  0  0  0  0  0  0  0  0
   69.8725   76.4246   92.9025 C   0  0  0  0  0  0  0  0  0  0  0  0
   69.5343   75.6547   93.9907 C   0  0  0  0  0  0  0  0  0  0  0  0
   69.9597   76.0255   95.2574 O   0  0  0  0  0  0  0  0  0  0  0  0
   70.4764   76.7989   95.3703 H   0  0  0  0  0  0  0  0  0  0  0  0
   69.3277   73.1511   95.5471 O   0  0  0  0  0  0  0  0  0  0  0  0
   68.4045   73.7025   94.8959 C   0  0  0  0  0  0  0  0  0  0  0  0
   67.1084   73.4903   95.2885 O   0  0  0  0  0  0  0  0  0  0  0  0
   66.4046   73.8914   94.8176 H   0  0  0  0  0  0  0  0  0  0  0  0
  1  2  2  0  0  0  0
  2  3  1  0  0  0  0
  3  4  2  0  0  0  0
  4  5  1  0  0  0  0
  5  7  1  0  0  0  0
  5  6  2  0  0  0  0
  6  1  1  0  0  0  0
  7  8  2  0  0  0  0
  8  9  1  0  0  0  0
  9 10  2  0  0  0  0
 10 11  1  0  0  0  0
 11 13  1  0  0  0  0
 11 12  2  0  0  0  0
 12  7  1  0  0  0  0
 13 14  1  0  0  0  0
 14 15  1  0  0  0  0
 15 16  1  0  0  0  0
 16 17  1  0  0  0  0
 17 18  1  0  0  0  0
 18 19  1  0  0  0  0
 19 14  1  0  0  0  0
 20  1  1  0  0  0  0
 21 20  1  0  0  0  0
 22 23  2  0  0  0  0
 23 24  1  0  0  0  0
 24 21  1  0  0  0  0
 24 25  2  0  0  0  0
 25 26  1  0  0  0  0
 26 27  2  0  0  0  0
 27 28  1  0  0  0  0
 27 22  1  0  0  0  0
 28 29  1  0  0  0  0
 30 31  2  0  0  0  0
 31 32  1  0  0  0  0
 31 22  1  0  0  0  0
 32 33  1  0  0  0  0
M  END
>  <Activity>
10.3

>  <minimizedAffinity>
-8.78461

>  <RFScoreVS_v2>
6.04701981457

$$$$
HIPS7772
 OpenBabel05252300073D

 44 48  0  0  0  0  0  0  0  0999 V2000
   67.7884   73.4182   90.9417 C   0  0  0  0  0  0  0  0  0  0  0  0
   67.3658   72.4821   89.9852 C   0  0  0  0  0  0  0  0  0  0  0  0
   66.9425   72.9095   88.7251 C   0  0  0  0  0  0  0  0  0  0  0  0
   66.9486   74.2692   88.4031 C   0  0  0  0  0  0  0  0  0  0  0  0
   67.3848   75.2219   89.3420 C   0  0  0  0  0  0  0  0  0  0  0  0
   67.8080   74.7804   90.6090 C   0  0  0  0  0  0  0  0  0  0  0  0
   67.4168   76.6650   89.0003 C   0  0  0  0  0  0  0  0  0  0  0  0
   66.2864   77.2957   88.5779 N   0  0  0  0  0  0  0  0  0  0  0  0
   66.2853   78.6204   88.2836 C   0  0  0  0  0  0  0  0  0  0  0  0
   67.4561   79.3708   88.4276 C   0  0  0  0  0  0  0  0  0  0  0  0
   68.6149   78.7041   88.8392 C   0  0  0  0  0  0  0  0  0  0  0  0
   68.5717   77.3762   89.1197 N   0  0  0  0  0  0  0  0  0  0  0  0
   67.4716   80.8498   88.1466 C   0  0  0  0  0  0  0  0  0  0  0  0
   68.1240   81.5597   89.2007 O   0  0  0  0  0  0  0  0  0  0  0  0
   69.3660   82.2087   89.0976 C   0  0  0  0  0  0  0  0  0  0  0  0
   70.4027   81.7807   89.9295 C   0  0  0  0  0  0  0  0  0  0  0  0
   71.6517   82.3995   89.8820 C   0  0  0  0  0  0  0  0  0  0  0  0
   71.8900   83.4570   88.9987 C   0  0  0  0  0  0  0  0  0  0  0  0
   73.1796   83.9900   88.9527 O   0  0  0  0  0  0  0  0  0  0  0  0
   70.8444   83.9233   88.1666 C   0  0  0  0  0  0  0  0  0  0  0  0
   69.5976   83.2721   88.2044 C   0  0  0  0  0  0  0  0  0  0  0  0
   73.8457   83.6545   89.5200 H   0  0  0  0  0  0  0  0  0  0  0  0
   71.0038   85.1011   87.2879 C   0  0  0  0  0  0  0  0  0  0  0  0
   71.8475   85.9921   87.5741 O   0  0  0  0  0  0  0  0  0  0  0  0
   70.2695   85.2086   86.1111 O   0  0  0  0  0  0  0  0  0  0  0  0
   69.6399   84.5508   85.8900 H   0  0  0  0  0  0  0  0  0  0  0  0
   70.4699   73.7594   91.9768 O   0  0  0  0  0  0  0  0  0  0  0  0
   69.6262   73.1255   92.6659 C   0  0  0  0  0  0  0  0  0  0  0  0
   68.2607   73.0091   92.2345 N   0  0  0  0  0  0  0  0  0  0  0  0
   67.6085   72.6251   92.8642 H   0  0  0  0  0  0  0  0  0  0  0  0
   70.0805   72.4087   93.9062 C   0  0  0  0  0  0  0  0  0  0  0  0
   69.6584   73.1544   95.1801 C   0  0  0  0  0  0  0  0  0  0  0  0
   68.4485   74.0189   94.9724 C   0  0  0  0  0  0  0  0  0  0  0  0
   67.2150   73.6774   95.4014 N   0  0  0  0  0  0  0  0  0  0  0  0
   66.4477   74.7126   95.0109 C   0  0  0  0  0  0  0  0  0  0  0  0
   67.2419   75.6412   94.3653 C   0  0  0  0  0  0  0  0  0  0  0  0
   68.4712   75.1864   94.3693 O   0  0  0  0  0  0  0  0  0  0  0  0
   66.8289   76.9230   93.7511 C   0  0  0  0  0  0  0  0  0  0  0  0
   65.6442   77.5751   94.1419 C   0  0  0  0  0  0  0  0  0  0  0  0
   65.2742   78.7851   93.5478 C   0  0  0  0  0  0  0  0  0  0  0  0
   66.0770   79.3554   92.5559 C   0  0  0  0  0  0  0  0  0  0  0  0
   65.6039   80.8709   91.8110 Cl  0  0  0  0  0  0  0  0  0  0  0  0
   67.2508   78.7120   92.1545 C   0  0  0  0  0  0  0  0  0  0  0  0
   67.6279   77.5045   92.7505 C   0  0  0  0  0  0  0  0  0  0  0  0
  1  2  2  0  0  0  0
  2  3  1  0  0  0  0
  3  4  2  0  0  0  0
  4  5  1  0  0  0  0
  5  7  1  0  0  0  0
  5  6  2  0  0  0  0
  6  1  1  0  0  0  0
  7  8  2  0  0  0  0
  8  9  2  0  0  0  0
  9 10  2  0  0  0  0
 10 13  1  0  0  0  0
 10 11  1  0  0  0  0
 11 12  2  0  0  0  0
 12  7  2  0  0  0  0
 13 14  1  0  0  0  0
 14 15  1  0  0  0  0
 15 16  2  0  0  0  0
 16 17  1  0  0  0  0
 17 18  2  0  0  0  0
 18 19  1  0  0  0  0
 18 20  1  0  0  0  0
 19 22  1  0  0  0  0
 20 23  1  0  0  0  0
 20 21  2  0  0  0  0
 21 15  1  0  0  0  0
 23 24  2  0  0  0  0
 23 25  1  0  0  0  0
 25 26  1  0  0  0  0
 27 28  2  0  0  0  0
 28 31  1  0  0  0  0
 28 29  1  0  0  0  0
 29  1  1  0  0  0  0
 29 30  1  0  0  0  0
 31 32  1  0  0  0  0
 32 33  1  0  0  0  0
 33 34  2  0  0  0  0
 34 35  2  0  0  0  0
 35 36  2  0  0  0  0
 36 38  1  0  0  0  0
 36 37  1  0  0  0  0
 37 33  1  0  0  0  0
 38 39  2  0  0  0  0
 39 40  1  0  0  0  0
 40 41  2  0  0  0  0
 41 42  1  0  0  0  0
 41 43  1  0  0  0  0
 43 44  2  0  0  0  0
 44 38  1  0  0  0  0
M  END
>  <Activity>
11.5

>  <minimizedAffinity>
-9.63012

>  <RFScoreVS_v2>
5.96499901506

$$$$
HIPS7772
 OpenBabel05252300073D

 44 48  0  0  0  0  0  0  0  0999 V2000
   68.7936   73.7345   90.9490 C   0  0  0  0  0  0  0  0  0  0  0  0
   68.1321   72.7095   90.2549 C   0  0  0  0  0  0  0  0  0  0  0  0
   67.2640   73.0197   89.2062 C   0  0  0  0  0  0  0  0  0  0  0  0
   67.0576   74.3501   88.8320 C   0  0  0  0  0  0  0  0  0  0  0  0
   67.7243   75.3910   89.5039 C   0  0  0  0  0  0  0  0  0  0  0  0
   68.5957   75.0673   90.5598 C   0  0  0  0  0  0  0  0  0  0  0  0
   67.5291   76.8042   89.0977 C   0  0  0  0  0  0  0  0  0  0  0  0
   68.6021   77.6275   88.9397 N   0  0  0  0  0  0  0  0  0  0  0  0
   68.4503   78.9168   88.5446 C   0  0  0  0  0  0  0  0  0  0  0  0
   67.1746   79.4209   88.2741 C   0  0  0  0  0  0  0  0  0  0  0  0
   66.0804   78.5704   88.4641 C   0  0  0  0  0  0  0  0  0  0  0  0
   66.2779   77.2879   88.8643 N   0  0  0  0  0  0  0  0  0  0  0  0
   66.9825   80.8353   87.7954 C   0  0  0  0  0  0  0  0  0  0  0  0
   67.5744   81.7637   88.7055 O   0  0  0  0  0  0  0  0  0  0  0  0
   68.8214   82.3883   88.5345 C   0  0  0  0  0  0  0  0  0  0  0  0
   69.0238   83.1474   87.3799 C   0  0  0  0  0  0  0  0  0  0  0  0
   70.2472   83.7761   87.1498 C   0  0  0  0  0  0  0  0  0  0  0  0
   71.2923   83.6609   88.0717 C   0  0  0  0  0  0  0  0  0  0  0  0
   72.4688   84.3676   87.8154 O   0  0  0  0  0  0  0  0  0  0  0  0
   71.1162   82.8737   89.2348 C   0  0  0  0  0  0  0  0  0  0  0  0
   69.8679   82.2679   89.4686 C   0  0  0  0  0  0  0  0  0  0  0  0
   72.5477   84.8782   87.0336 H   0  0  0  0  0  0  0  0  0  0  0  0
   72.2144   82.6300   90.1936 C   0  0  0  0  0  0  0  0  0  0  0  0
   71.9739   82.0809   91.3020 O   0  0  0  0  0  0  0  0  0  0  0  0
   73.5268   82.9492   89.8601 O   0  0  0  0  0  0  0  0  0  0  0  0
   73.7152   83.3577   89.0381 H   0  0  0  0  0  0  0  0  0  0  0  0
   68.5083   71.6761   92.9639 O   0  0  0  0  0  0  0  0  0  0  0  0
   69.4853   72.4691   93.0361 C   0  0  0  0  0  0  0  0  0  0  0  0
   69.7176   73.4475   92.0099 N   0  0  0  0  0  0  0  0  0  0  0  0
   70.5624   73.9522   92.0357 H   0  0  0  0  0  0  0  0  0  0  0  0
   70.3611   72.4462   94.2571 C   0  0  0  0  0  0  0  0  0  0  0  0
   69.6534   73.0562   95.4754 C   0  0  0  0  0  0  0  0  0  0  0  0
   68.4738   73.9043   95.0966 C   0  0  0  0  0  0  0  0  0  0  0  0
   67.1954   73.5314   95.3175 N   0  0  0  0  0  0  0  0  0  0  0  0
   66.4781   74.5623   94.8320 C   0  0  0  0  0  0  0  0  0  0  0  0
   67.3448   75.5197   94.3400 C   0  0  0  0  0  0  0  0  0  0  0  0
   68.5672   75.0861   94.5293 O   0  0  0  0  0  0  0  0  0  0  0  0
   67.0074   76.8084   93.6951 C   0  0  0  0  0  0  0  0  0  0  0  0
   67.8850   77.4234   92.7824 C   0  0  0  0  0  0  0  0  0  0  0  0
   67.5451   78.6409   92.1855 C   0  0  0  0  0  0  0  0  0  0  0  0
   66.3309   79.2603   92.4945 C   0  0  0  0  0  0  0  0  0  0  0  0
   65.9134   80.7903   91.7461 Cl  0  0  0  0  0  0  0  0  0  0  0  0
   65.4562   78.6625   93.4058 C   0  0  0  0  0  0  0  0  0  0  0  0
   65.7894   77.4416   94.0006 C   0  0  0  0  0  0  0  0  0  0  0  0
  1  2  2  0  0  0  0
  2  3  1  0  0  0  0
  3  4  2  0  0  0  0
  4  5  1  0  0  0  0
  5  7  1  0  0  0  0
  5  6  2  0  0  0  0
  6  1  1  0  0  0  0
  7  8  2  0  0  0  0
  8  9  2  0  0  0  0
  9 10  2  0  0  0  0
 10 13  1  0  0  0  0
 10 11  1  0  0  0  0
 11 12  2  0  0  0  0
 12  7  2  0  0  0  0
 13 14  1  0  0  0  0
 14 15  1  0  0  0  0
 15 16  2  0  0  0  0
 16 17  1  0  0  0  0
 17 18  2  0  0  0  0
 18 19  1  0  0  0  0
 18 20  1  0  0  0  0
 19 22  1  0  0  0  0
 20 23  1  0  0  0  0
 20 21  2  0  0  0  0
 21 15  1  0  0  0  0
 23 24  2  0  0  0  0
 23 25  1  0  0  0  0
 25 26  1  0  0  0  0
 27 28  2  0  0  0  0
 28 31  1  0  0  0  0
 28 29  1  0  0  0  0
 29  1  1  0  0  0  0
 29 30  1  0  0  0  0
 31 32  1  0  0  0  0
 32 33  1  0  0  0  0
 33 34  2  0  0  0  0
 34 35  2  0  0  0  0
 35 36  2  0  0  0  0
 36 38  1  0  0  0  0
 36 37  1  0  0  0  0
 37 33  1  0  0  0  0
 38 39  2  0  0  0  0
 39 40  1  0  0  0  0
 40 41  2  0  0  0  0
 41 42  1  0  0  0  0
 41 43  1  0  0  0  0
 43 44  2  0  0  0  0
 44 38  1  0  0  0  0
M  END
>  <Activity>
11.5

>  <minimizedAffinity>
-9.62228

>  <RFScoreVS_v2>
5.97362697584

$$$$
HIPS7772
 OpenBabel05252300073D

 44 48  0  0  0  0  0  0  0  0999 V2000
   68.7477   73.2078   90.6072 C   0  0  0  0  0  0  0  0  0  0  0  0
   67.7433   72.6695   89.7878 C   0  0  0  0  0  0  0  0  0  0  0  0
   66.9131   73.5148   89.0489 C   0  0  0  0  0  0  0  0  0  0  0  0
   67.0841   74.9003   89.1097 C   0  0  0  0  0  0  0  0  0  0  0  0
   68.0960   75.4589   89.9118 C   0  0  0  0  0  0  0  0  0  0  0  0
   68.9260   74.5982   90.6530 C   0  0  0  0  0  0  0  0  0  0  0  0
   68.2996   76.9273   89.9637 C   0  0  0  0  0  0  0  0  0  0  0  0
   69.5315   77.4404   90.2342 N   0  0  0  0  0  0  0  0  0  0  0  0
   69.7476   78.7798   90.2624 C   0  0  0  0  0  0  0  0  0  0  0  0
   68.6987   79.6643   89.9940 C   0  0  0  0  0  0  0  0  0  0  0  0
   67.4338   79.1229   89.7417 C   0  0  0  0  0  0  0  0  0  0  0  0
   67.2616   77.7760   89.7270 N   0  0  0  0  0  0  0  0  0  0  0  0
   68.9212   81.1532   89.9791 C   0  0  0  0  0  0  0  0  0  0  0  0
   70.3122   81.4571   89.8645 O   0  0  0  0  0  0  0  0  0  0  0  0
   70.8457   82.6247   89.2931 C   0  0  0  0  0  0  0  0  0  0  0  0
   72.1773   82.9426   89.5687 C   0  0  0  0  0  0  0  0  0  0  0  0
   72.7542   84.0980   89.0420 C   0  0  0  0  0  0  0  0  0  0  0  0
   72.0117   84.9572   88.2261 C   0  0  0  0  0  0  0  0  0  0  0  0
   72.6657   86.0618   87.6768 O   0  0  0  0  0  0  0  0  0  0  0  0
   70.6528   84.6668   87.9571 C   0  0  0  0  0  0  0  0  0  0  0  0
   70.0910   83.4837   88.4715 C   0  0  0  0  0  0  0  0  0  0  0  0
   73.5667   86.2209   87.8787 H   0  0  0  0  0  0  0  0  0  0  0  0
   69.7888   85.5871   87.1881 C   0  0  0  0  0  0  0  0  0  0  0  0
   69.6700   86.7890   87.5473 O   0  0  0  0  0  0  0  0  0  0  0  0
   69.1475   85.1532   86.0322 O   0  0  0  0  0  0  0  0  0  0  0  0
   69.2301   84.2612   85.7573 H   0  0  0  0  0  0  0  0  0  0  0  0
   67.9874   71.1719   92.5191 O   0  0  0  0  0  0  0  0  0  0  0  0
   69.2105   71.4283   92.3550 C   0  0  0  0  0  0  0  0  0  0  0  0
   69.6390   72.3653   91.3536 N   0  0  0  0  0  0  0  0  0  0  0  0
   70.6034   72.4338   91.1678 H   0  0  0  0  0  0  0  0  0  0  0  0
   70.2207   70.8121   93.2813 C   0  0  0  0  0  0  0  0  0  0  0  0
   70.8233   71.8515   94.2372 C   0  0  0  0  0  0  0  0  0  0  0  0
   69.8176   72.8653   94.7006 C   0  0  0  0  0  0  0  0  0  0  0  0
   69.2442   72.8311   95.9222 N   0  0  0  0  0  0  0  0  0  0  0  0
   68.4238   73.8987   95.9153 C   0  0  0  0  0  0  0  0  0  0  0  0
   68.5324   74.5401   94.6960 C   0  0  0  0  0  0  0  0  0  0  0  0
   69.4082   73.8825   93.9760 O   0  0  0  0  0  0  0  0  0  0  0  0
   67.8059   75.7432   94.2318 C   0  0  0  0  0  0  0  0  0  0  0  0
   68.4926   76.9012   93.8209 C   0  0  0  0  0  0  0  0  0  0  0  0
   67.7852   78.0258   93.3862 C   0  0  0  0  0  0  0  0  0  0  0  0
   66.3878   78.0105   93.3607 C   0  0  0  0  0  0  0  0  0  0  0  0
   65.5067   79.4268   92.8193 Cl  0  0  0  0  0  0  0  0  0  0  0  0
   65.6961   76.8689   93.7745 C   0  0  0  0  0  0  0  0  0  0  0  0
   66.3998   75.7395   94.2043 C   0  0  0  0  0  0  0  0  0  0  0  0
  1  2  2  0  0  0  0
  2  3  1  0  0  0  0
  3  4  2  0  0  0  0
  4  5  1  0  0  0  0
  5  7  1  0  0  0  0
  5  6  2  0  0  0  0
  6  1  1  0  0  0  0
  7  8  2  0  0  0  0
  8  9  2  0  0  0  0
  9 10  2  0  0  0  0
 10 13  1  0  0  0  0
 10 11  1  0  0  0  0
 11 12  2  0  0  0  0
 12  7  2  0  0  0  0
 13 14  1  0  0  0  0
 14 15  1  0  0  0  0
 15 16  2  0  0  0  0
 16 17  1  0  0  0  0
 17 18  2  0  0  0  0
 18 19  1  0  0  0  0
 18 20  1  0  0  0  0
 19 22  1  0  0  0  0
 20 23  1  0  0  0  0
 20 21  2  0  0  0  0
 21 15  1  0  0  0  0
 23 24  2  0  0  0  0
 23 25  1  0  0  0  0
 25 26  1  0  0  0  0
 27 28  2  0  0  0  0
 28 31  1  0  0  0  0
 28 29  1  0  0  0  0
 29  1  1  0  0  0  0
 29 30  1  0  0  0  0
 31 32  1  0  0  0  0
 32 33  1  0  0  0  0
 33 34  2  0  0  0  0
 34 35  2  0  0  0  0
 35 36  2  0  0  0  0
 36 38  1  0  0  0  0
 36 37  1  0  0  0  0
 37 33  1  0  0  0  0
 38 39  2  0  0  0  0
 39 40  1  0  0  0  0
 40 41  2  0  0  0  0
 41 42  1  0  0  0  0
 41 43  1  0  0  0  0
 43 44  2  0  0  0  0
 44 38  1  0  0  0  0
M  END
>  <Activity>
11.5

>  <minimizedAffinity>
-9.54549

>  <RFScoreVS_v2>
5.98520329736

$$$$
HIPS7772
 OpenBabel05252300073D

 44 48  0  0  0  0  0  0  0  0999 V2000
   66.4605   78.9961   91.0487 C   0  0  0  0  0  0  0  0  0  0  0  0
   66.2882   79.7522   92.2185 C   0  0  0  0  0  0  0  0  0  0  0  0
   66.6417   79.2161   93.4584 C   0  0  0  0  0  0  0  0  0  0  0  0
   67.1807   77.9296   93.5423 C   0  0  0  0  0  0  0  0  0  0  0  0
   67.3772   77.1621   92.3796 C   0  0  0  0  0  0  0  0  0  0  0  0
   67.0165   77.7115   91.1358 C   0  0  0  0  0  0  0  0  0  0  0  0
   67.9708   75.8049   92.4574 C   0  0  0  0  0  0  0  0  0  0  0  0
   67.3860   74.8428   93.2231 N   0  0  0  0  0  0  0  0  0  0  0  0
   67.8962   73.5871   93.2902 C   0  0  0  0  0  0  0  0  0  0  0  0
   69.0353   73.2536   92.5513 C   0  0  0  0  0  0  0  0  0  0  0  0
   69.6386   74.2589   91.7884 C   0  0  0  0  0  0  0  0  0  0  0  0
   69.0963   75.5033   91.7530 N   0  0  0  0  0  0  0  0  0  0  0  0
   69.5976   71.8573   92.5766 C   0  0  0  0  0  0  0  0  0  0  0  0
   69.9863   71.4908   93.9014 O   0  0  0  0  0  0  0  0  0  0  0  0
   71.1678   70.8118   94.2442 C   0  0  0  0  0  0  0  0  0  0  0  0
   71.1656   70.0322   95.4028 C   0  0  0  0  0  0  0  0  0  0  0  0
   72.3148   69.3495   95.8005 C   0  0  0  0  0  0  0  0  0  0  0  0
   73.4890   69.4300   95.0453 C   0  0  0  0  0  0  0  0  0  0  0  0
   74.5847   68.6710   95.4606 O   0  0  0  0  0  0  0  0  0  0  0  0
   73.5195   70.2366   93.8826 C   0  0  0  0  0  0  0  0  0  0  0  0
   72.3453   70.8976   93.4772 C   0  0  0  0  0  0  0  0  0  0  0  0
   74.5259   68.1491   96.2366 H   0  0  0  0  0  0  0  0  0  0  0  0
   74.7567   70.4437   93.1009 C   0  0  0  0  0  0  0  0  0  0  0  0
   75.2043   69.5190   92.3714 O   0  0  0  0  0  0  0  0  0  0  0  0
   75.4042   71.6751   93.1169 O   0  0  0  0  0  0  0  0  0  0  0  0
   75.0786   72.3686   93.6563 H   0  0  0  0  0  0  0  0  0  0  0  0
   68.3099   80.2130   89.1840 O   0  0  0  0  0  0  0  0  0  0  0  0
   67.0809   80.2020   88.9047 C   0  0  0  0  0  0  0  0  0  0  0  0
   66.1380   79.5303   89.7555 N   0  0  0  0  0  0  0  0  0  0  0  0
   65.2136   79.4302   89.4319 H   0  0  0  0  0  0  0  0  0  0  0  0
   66.5911   80.9791   87.7153 C   0  0  0  0  0  0  0  0  0  0  0  0
   67.7540   81.5542   86.8942 C   0  0  0  0  0  0  0  0  0  0  0  0
   68.0398   82.9914   87.2210 C   0  0  0  0  0  0  0  0  0  0  0  0
   67.0748   83.9282   87.3361 N   0  0  0  0  0  0  0  0  0  0  0  0
   67.7585   85.0509   87.6274 C   0  0  0  0  0  0  0  0  0  0  0  0
   69.1071   84.7537   87.6814 C   0  0  0  0  0  0  0  0  0  0  0  0
   69.2434   83.4732   87.4368 O   0  0  0  0  0  0  0  0  0  0  0  0
   70.2332   85.6764   87.9480 C   0  0  0  0  0  0  0  0  0  0  0  0
   71.5651   85.3016   87.6895 C   0  0  0  0  0  0  0  0  0  0  0  0
   72.6128   86.1899   87.9492 C   0  0  0  0  0  0  0  0  0  0  0  0
   72.3454   87.4578   88.4730 C   0  0  0  0  0  0  0  0  0  0  0  0
   73.6650   88.5651   88.8016 Cl  0  0  0  0  0  0  0  0  0  0  0  0
   71.0274   87.8368   88.7415 C   0  0  0  0  0  0  0  0  0  0  0  0
   69.9758   86.9536   88.4774 C   0  0  0  0  0  0  0  0  0  0  0  0
  1  2  2  0  0  0  0
  2  3  1  0  0  0  0
  3  4  2  0  0  0  0
  4  5  1  0  0  0  0
  5  7  1  0  0  0  0
  5  6  2  0  0  0  0
  6  1  1  0  0  0  0
  7  8  2  0  0  0  0
  8  9  2  0  0  0  0
  9 10  2  0  0  0  0
 10 13  1  0  0  0  0
 10 11  1  0  0  0  0
 11 12  2  0  0  0  0
 12  7  2  0  0  0  0
 13 14  1  0  0  0  0
 14 15  1  0  0  0  0
 15 16  2  0  0  0  0
 16 17  1  0  0  0  0
 17 18  2  0  0  0  0
 18 19  1  0  0  0  0
 18 20  1  0  0  0  0
 19 22  1  0  0  0  0
 20 23  1  0  0  0  0
 20 21  2  0  0  0  0
 21 15  1  0  0  0  0
 23 24  2  0  0  0  0
 23 25  1  0  0  0  0
 25 26  1  0  0  0  0
 27 28  2  0  0  0  0
 28 31  1  0  0  0  0
 28 29  1  0  0  0  0
 29  1  1  0  0  0  0
 29 30  1  0  0  0  0
 31 32  1  0  0  0  0
 32 33  1  0  0  0  0
 33 34  2  0  0  0  0
 34 35  2  0  0  0  0
 35 36  2  0  0  0  0
 36 38  1  0  0  0  0
 36 37  1  0  0  0  0
 37 33  1  0  0  0  0
 38 39  2  0  0  0  0
 39 40  1  0  0  0  0
 40 41  2  0  0  0  0
 41 42  1  0  0  0  0
 41 43  1  0  0  0  0
 43 44  2  0  0  0  0
 44 38  1  0  0  0  0
M  END
>  <Activity>
11.5

>  <minimizedAffinity>
-9.44318

>  <RFScoreVS_v2>
5.99789765962

$$$$
HIPS7772
 OpenBabel05252300073D

 44 48  0  0  0  0  0  0  0  0999 V2000
   69.1508   79.0268   90.0980 C   0  0  0  0  0  0  0  0  0  0  0  0
   70.4807   79.4753   90.1122 C   0  0  0  0  0  0  0  0  0  0  0  0
   71.5009   78.6305   90.5541 C   0  0  0  0  0  0  0  0  0  0  0  0
   71.2075   77.3300   90.9727 C   0  0  0  0  0  0  0  0  0  0  0  0
   69.8832   76.8558   90.9499 C   0  0  0  0  0  0  0  0  0  0  0  0
   68.8629   77.7156   90.5040 C   0  0  0  0  0  0  0  0  0  0  0  0
   69.5662   75.4690   91.3702 C   0  0  0  0  0  0  0  0  0  0  0  0
   68.8270   74.6590   90.5629 N   0  0  0  0  0  0  0  0  0  0  0  0
   68.5455   73.3790   90.9144 C   0  0  0  0  0  0  0  0  0  0  0  0
   69.0306   72.8606   92.1188 C   0  0  0  0  0  0  0  0  0  0  0  0
   69.7679   73.7118   92.9485 C   0  0  0  0  0  0  0  0  0  0  0  0
   70.0231   74.9874   92.5589 N   0  0  0  0  0  0  0  0  0  0  0  0
   68.7667   71.4318   92.5130 C   0  0  0  0  0  0  0  0  0  0  0  0
   69.7789   70.9554   93.4014 O   0  0  0  0  0  0  0  0  0  0  0  0
   71.0540   70.5075   93.0168 C   0  0  0  0  0  0  0  0  0  0  0  0
   71.1435   69.6254   91.9379 C   0  0  0  0  0  0  0  0  0  0  0  0
   72.3816   69.1355   91.5230 C   0  0  0  0  0  0  0  0  0  0  0  0
   73.5560   69.5208   92.1770 C   0  0  0  0  0  0  0  0  0  0  0  0
   74.7686   69.0475   91.6722 O   0  0  0  0  0  0  0  0  0  0  0  0
   73.4839   70.3927   93.2896 C   0  0  0  0  0  0  0  0  0  0  0  0
   72.2316   70.9016   93.6803 C   0  0  0  0  0  0  0  0  0  0  0  0
   74.7756   68.4713   90.9334 H   0  0  0  0  0  0  0  0  0  0  0  0
   74.6765   70.7544   94.0844 C   0  0  0  0  0  0  0  0  0  0  0  0
   75.6290   71.3783   93.5446 O   0  0  0  0  0  0  0  0  0  0  0  0
   74.7342   70.4630   95.4436 O   0  0  0  0  0  0  0  0  0  0  0  0
   74.0307   69.9995   95.8537 H   0  0  0  0  0  0  0  0  0  0  0  0
   67.7945   78.7826   87.5526 O   0  0  0  0  0  0  0  0  0  0  0  0
   67.5026   79.7475   88.3091 C   0  0  0  0  0  0  0  0  0  0  0  0
   68.0833   79.8589   89.6186 N   0  0  0  0  0  0  0  0  0  0  0  0
   67.7273   80.5483   90.2246 H   0  0  0  0  0  0  0  0  0  0  0  0
   66.6064   80.8388   87.7951 C   0  0  0  0  0  0  0  0  0  0  0  0
   67.4060   81.9517   87.1028 C   0  0  0  0  0  0  0  0  0  0  0  0
   68.3003   82.6986   88.0497 C   0  0  0  0  0  0  0  0  0  0  0  0
   69.5660   83.0543   87.7439 N   0  0  0  0  0  0  0  0  0  0  0  0
   69.9923   83.6871   88.8533 C   0  0  0  0  0  0  0  0  0  0  0  0
   68.9721   83.6946   89.7855 C   0  0  0  0  0  0  0  0  0  0  0  0
   67.9405   83.0864   89.2528 O   0  0  0  0  0  0  0  0  0  0  0  0
   68.9925   84.2590   91.1536 C   0  0  0  0  0  0  0  0  0  0  0  0
   69.5938   83.5685   92.2227 C   0  0  0  0  0  0  0  0  0  0  0  0
   69.6011   84.1213   93.5066 C   0  0  0  0  0  0  0  0  0  0  0  0
   69.0060   85.3642   93.7399 C   0  0  0  0  0  0  0  0  0  0  0  0
   69.0140   86.0493   95.3542 Cl  0  0  0  0  0  0  0  0  0  0  0  0
   68.3988   86.0543   92.6873 C   0  0  0  0  0  0  0  0  0  0  0  0
   68.3947   85.5079   91.4001 C   0  0  0  0  0  0  0  0  0  0  0  0
  1  2  2  0  0  0  0
  2  3  1  0  0  0  0
  3  4  2  0  0  0  0
  4  5  1  0  0  0  0
  5  7  1  0  0  0  0
  5  6  2  0  0  0  0
  6  1  1  0  0  0  0
  7  8  2  0  0  0  0
  8  9  2  0  0  0  0
  9 10  2  0  0  0  0
 10 13  1  0  0  0  0
 10 11  1  0  0  0  0
 11 12  2  0  0  0  0
 12  7  2  0  0  0  0
 13 14  1  0  0  0  0
 14 15  1  0  0  0  0
 15 16  2  0  0  0  0
 16 17  1  0  0  0  0
 17 18  2  0  0  0  0
 18 19  1  0  0  0  0
 18 20  1  0  0  0  0
 19 22  1  0  0  0  0
 20 23  1  0  0  0  0
 20 21  2  0  0  0  0
 21 15  1  0  0  0  0
 23 24  2  0  0  0  0
 23 25  1  0  0  0  0
 25 26  1  0  0  0  0
 27 28  2  0  0  0  0
 28 31  1  0  0  0  0
 28 29  1  0  0  0  0
 29  1  1  0  0  0  0
 29 30  1  0  0  0  0
 31 32  1  0  0  0  0
 32 33  1  0  0  0  0
 33 34  2  0  0  0  0
 34 35  2  0  0  0  0
 35 36  2  0  0  0  0
 36 38  1  0  0  0  0
 36 37  1  0  0  0  0
 37 33  1  0  0  0  0
 38 39  2  0  0  0  0
 39 40  1  0  0  0  0
 40 41  2  0  0  0  0
 41 42  1  0  0  0  0
 41 43  1  0  0  0  0
 43 44  2  0  0  0  0
 44 38  1  0  0  0  0
M  END
>  <Activity>
11.5

>  <minimizedAffinity>
-9.24428

>  <RFScoreVS_v2>
5.98825239211

$$$$
HIPS7772
 OpenBabel05252300073D

 44 48  0  0  0  0  0  0  0  0999 V2000
   68.6982   73.2707   90.7077 C   0  0  0  0  0  0  0  0  0  0  0  0
   67.9591   72.4061   89.8853 C   0  0  0  0  0  0  0  0  0  0  0  0
   67.0843   72.9253   88.9289 C   0  0  0  0  0  0  0  0  0  0  0  0
   66.9478   74.3074   88.7749 C   0  0  0  0  0  0  0  0  0  0  0  0
   67.6924   75.1908   89.5777 C   0  0  0  0  0  0  0  0  0  0  0  0
   68.5700   74.6570   90.5390 C   0  0  0  0  0  0  0  0  0  0  0  0
   67.5713   76.6591   89.4046 C   0  0  0  0  0  0  0  0  0  0  0  0
   66.3455   77.2347   89.2625 N   0  0  0  0  0  0  0  0  0  0  0  0
   66.2079   78.5780   89.1279 C   0  0  0  0  0  0  0  0  0  0  0  0
   67.3361   79.4034   89.1503 C   0  0  0  0  0  0  0  0  0  0  0  0
   68.5900   78.7955   89.2728 C   0  0  0  0  0  0  0  0  0  0  0  0
   68.6818   77.4468   89.4012 N   0  0  0  0  0  0  0  0  0  0  0  0
   67.2075   80.8996   89.0437 C   0  0  0  0  0  0  0  0  0  0  0  0
   68.4678   81.5342   89.2662 O   0  0  0  0  0  0  0  0  0  0  0  0
   68.9858   82.6012   88.5128 C   0  0  0  0  0  0  0  0  0  0  0  0
   68.1857   83.1441   87.5051 C   0  0  0  0  0  0  0  0  0  0  0  0
   68.6547   84.1934   86.7151 C   0  0  0  0  0  0  0  0  0  0  0  0
   69.9326   84.7233   86.9192 C   0  0  0  0  0  0  0  0  0  0  0  0
   70.3176   85.8156   86.1396 O   0  0  0  0  0  0  0  0  0  0  0  0
   70.7690   84.1690   87.9174 C   0  0  0  0  0  0  0  0  0  0  0  0
   70.2733   83.1295   88.7260 C   0  0  0  0  0  0  0  0  0  0  0  0
   69.7357   86.1545   85.4881 H   0  0  0  0  0  0  0  0  0  0  0  0
   72.1643   84.6162   88.1123 C   0  0  0  0  0  0  0  0  0  0  0  0
   72.5089   85.7775   87.7653 O   0  0  0  0  0  0  0  0  0  0  0  0
   73.0923   83.7847   88.7313 O   0  0  0  0  0  0  0  0  0  0  0  0
   72.8451   82.9196   88.9928 H   0  0  0  0  0  0  0  0  0  0  0  0
   68.2151   71.1484   92.6158 O   0  0  0  0  0  0  0  0  0  0  0  0
   69.3101   71.7710   92.6602 C   0  0  0  0  0  0  0  0  0  0  0  0
   69.6304   72.7693   91.6778 N   0  0  0  0  0  0  0  0  0  0  0  0
   70.5457   73.1319   91.6693 H   0  0  0  0  0  0  0  0  0  0  0  0
   70.2481   71.5264   93.8086 C   0  0  0  0  0  0  0  0  0  0  0  0
   70.4114   72.7764   94.6850 C   0  0  0  0  0  0  0  0  0  0  0  0
   69.1562   73.5961   94.7659 C   0  0  0  0  0  0  0  0  0  0  0  0
   68.0805   73.2289   95.4941 N   0  0  0  0  0  0  0  0  0  0  0  0
   67.2023   74.2278   95.2849 C   0  0  0  0  0  0  0  0  0  0  0  0
   67.7771   75.1617   94.4438 C   0  0  0  0  0  0  0  0  0  0  0  0
   68.9854   74.7458   94.1524 O   0  0  0  0  0  0  0  0  0  0  0  0
   67.1774   76.4115   93.9251 C   0  0  0  0  0  0  0  0  0  0  0  0
   65.8400   76.7526   94.2013 C   0  0  0  0  0  0  0  0  0  0  0  0
   65.2950   77.9386   93.7006 C   0  0  0  0  0  0  0  0  0  0  0  0
   66.0741   78.7939   92.9166 C   0  0  0  0  0  0  0  0  0  0  0  0
   65.3823   80.2774   92.2873 Cl  0  0  0  0  0  0  0  0  0  0  0  0
   67.4005   78.4606   92.6293 C   0  0  0  0  0  0  0  0  0  0  0  0
   67.9516   77.2783   93.1332 C   0  0  0  0  0  0  0  0  0  0  0  0
  1  2  2  0  0  0  0
  2  3  1  0  0  0  0
  3  4  2  0  0  0  0
  4  5  1  0  0  0  0
  5  7  1  0  0  0  0
  5  6  2  0  0  0  0
  6  1  1  0  0  0  0
  7  8  2  0  0  0  0
  8  9  2  0  0  0  0
  9 10  2  0  0  0  0
 10 13  1  0  0  0  0
 10 11  1  0  0  0  0
 11 12  2  0  0  0  0
 12  7  2  0  0  0  0
 13 14  1  0  0  0  0
 14 15  1  0  0  0  0
 15 16  2  0  0  0  0
 16 17  1  0  0  0  0
 17 18  2  0  0  0  0
 18 19  1  0  0  0  0
 18 20  1  0  0  0  0
 19 22  1  0  0  0  0
 20 23  1  0  0  0  0
 20 21  2  0  0  0  0
 21 15  1  0  0  0  0
 23 24  2  0  0  0  0
 23 25  1  0  0  0  0
 25 26  1  0  0  0  0
 27 28  2  0  0  0  0
 28 31  1  0  0  0  0
 28 29  1  0  0  0  0
 29  1  1  0  0  0  0
 29 30  1  0  0  0  0
 31 32  1  0  0  0  0
 32 33  1  0  0  0  0
 33 34  2  0  0  0  0
 34 35  2  0  0  0  0
 35 36  2  0  0  0  0
 36 38  1  0  0  0  0
 36 37  1  0  0  0  0
 37 33  1  0  0  0  0
 38 39  2  0  0  0  0
 39 40  1  0  0  0  0
 40 41  2  0  0  0  0
 41 42  1  0  0  0  0
 41 43  1  0  0  0  0
 43 44  2  0  0  0  0
 44 38  1  0  0  0  0
M  END
>  <Activity>
11.5

>  <minimizedAffinity>
-9.24253

>  <RFScoreVS_v2>
5.99712179637

$$$$
HIPS7772
 OpenBabel05252300073D

 44 48  0  0  0  0  0  0  0  0999 V2000
   68.7970   73.7600   90.9742 C   0  0  0  0  0  0  0  0  0  0  0  0
   68.2059   72.6913   90.2826 C   0  0  0  0  0  0  0  0  0  0  0  0
   67.3390   72.9396   89.2165 C   0  0  0  0  0  0  0  0  0  0  0  0
   67.0639   74.2518   88.8227 C   0  0  0  0  0  0  0  0  0  0  0  0
   67.6597   75.3365   89.4920 C   0  0  0  0  0  0  0  0  0  0  0  0
   68.5306   75.0749   90.5654 C   0  0  0  0  0  0  0  0  0  0  0  0
   67.3916   76.7316   89.0653 C   0  0  0  0  0  0  0  0  0  0  0  0
   68.4160   77.6198   88.9395 N   0  0  0  0  0  0  0  0  0  0  0  0
   68.1986   78.8941   88.5266 C   0  0  0  0  0  0  0  0  0  0  0  0
   66.9049   79.3147   88.2040 C   0  0  0  0  0  0  0  0  0  0  0  0
   65.8599   78.3982   88.3613 C   0  0  0  0  0  0  0  0  0  0  0  0
   66.1222   77.1337   88.7809 N   0  0  0  0  0  0  0  0  0  0  0  0
   66.6426   80.7107   87.7050 C   0  0  0  0  0  0  0  0  0  0  0  0
   67.1534   81.6810   88.6205 O   0  0  0  0  0  0  0  0  0  0  0  0
   67.7102   82.9212   88.2650 C   0  0  0  0  0  0  0  0  0  0  0  0
   68.0161   83.1436   86.9207 C   0  0  0  0  0  0  0  0  0  0  0  0
   68.5858   84.3495   86.5131 C   0  0  0  0  0  0  0  0  0  0  0  0
   68.8580   85.3591   87.4416 C   0  0  0  0  0  0  0  0  0  0  0  0
   69.3671   86.5670   86.9609 O   0  0  0  0  0  0  0  0  0  0  0  0
   68.5803   85.1428   88.8125 C   0  0  0  0  0  0  0  0  0  0  0  0
   67.9799   83.9327   89.2065 C   0  0  0  0  0  0  0  0  0  0  0  0
   69.5381   86.6722   86.0457 H   0  0  0  0  0  0  0  0  0  0  0  0
   68.9395   86.1290   89.8532 C   0  0  0  0  0  0  0  0  0  0  0  0
   68.5468   85.9658   91.0393 O   0  0  0  0  0  0  0  0  0  0  0  0
   69.7594   87.2108   89.5479 O   0  0  0  0  0  0  0  0  0  0  0  0
   70.0563   87.3401   88.6687 H   0  0  0  0  0  0  0  0  0  0  0  0
   68.6291   71.6731   92.9729 O   0  0  0  0  0  0  0  0  0  0  0  0
   69.5406   72.5383   93.0694 C   0  0  0  0  0  0  0  0  0  0  0  0
   69.7182   73.5380   92.0529 N   0  0  0  0  0  0  0  0  0  0  0  0
   70.5210   74.1059   92.0990 H   0  0  0  0  0  0  0  0  0  0  0  0
   70.3902   72.5750   94.3085 C   0  0  0  0  0  0  0  0  0  0  0  0
   69.6163   73.1325   95.5117 C   0  0  0  0  0  0  0  0  0  0  0  0
   68.4249   73.9512   95.1062 C   0  0  0  0  0  0  0  0  0  0  0  0
   67.1519   73.5332   95.2700 N   0  0  0  0  0  0  0  0  0  0  0  0
   66.4202   74.5516   94.7795 C   0  0  0  0  0  0  0  0  0  0  0  0
   67.2733   75.5468   94.3416 C   0  0  0  0  0  0  0  0  0  0  0  0
   68.5011   75.1479   94.5683 O   0  0  0  0  0  0  0  0  0  0  0  0
   66.9188   76.8385   93.7120 C   0  0  0  0  0  0  0  0  0  0  0  0
   65.7134   77.4973   94.0189 C   0  0  0  0  0  0  0  0  0  0  0  0
   65.3996   78.7167   93.4118 C   0  0  0  0  0  0  0  0  0  0  0  0
   66.2800   79.2898   92.4899 C   0  0  0  0  0  0  0  0  0  0  0  0
   65.8774   80.8171   91.7278 Cl  0  0  0  0  0  0  0  0  0  0  0  0
   67.4755   78.6398   92.1715 C   0  0  0  0  0  0  0  0  0  0  0  0
   67.7962   77.4229   92.7812 C   0  0  0  0  0  0  0  0  0  0  0  0
  1  2  2  0  0  0  0
  2  3  1  0  0  0  0
  3  4  2  0  0  0  0
  4  5  1  0  0  0  0
  5  7  1  0  0  0  0
  5  6  2  0  0  0  0
  6  1  1  0  0  0  0
  7  8  2  0  0  0  0
  8  9  2  0  0  0  0
  9 10  2  0  0  0  0
 10 13  1  0  0  0  0
 10 11  1  0  0  0  0
 11 12  2  0  0  0  0
 12  7  2  0  0  0  0
 13 14  1  0  0  0  0
 14 15  1  0  0  0  0
 15 16  2  0  0  0  0
 16 17  1  0  0  0  0
 17 18  2  0  0  0  0
 18 19  1  0  0  0  0
 18 20  1  0  0  0  0
 19 22  1  0  0  0  0
 20 23  1  0  0  0  0
 20 21  2  0  0  0  0
 21 15  1  0  0  0  0
 23 24  2  0  0  0  0
 23 25  1  0  0  0  0
 25 26  1  0  0  0  0
 27 28  2  0  0  0  0
 28 31  1  0  0  0  0
 28 29  1  0  0  0  0
 29  1  1  0  0  0  0
 29 30  1  0  0  0  0
 31 32  1  0  0  0  0
 32 33  1  0  0  0  0
 33 34  2  0  0  0  0
 34 35  2  0  0  0  0
 35 36  2  0  0  0  0
 36 38  1  0  0  0  0
 36 37  1  0  0  0  0
 37 33  1  0  0  0  0
 38 39  2  0  0  0  0
 39 40  1  0  0  0  0
 40 41  2  0  0  0  0
 41 42  1  0  0  0  0
 41 43  1  0  0  0  0
 43 44  2  0  0  0  0
 44 38  1  0  0  0  0
M  END
>  <Activity>
11.5

>  <minimizedAffinity>
-9.21681

>  <RFScoreVS_v2>
6.00269428318

$$$$
HIPS7772
 OpenBabel05252300073D

 44 48  0  0  0  0  0  0  0  0999 V2000
   71.1226   83.9404   88.9630 C   0  0  0  0  0  0  0  0  0  0  0  0
   72.5064   84.0212   89.1834 C   0  0  0  0  0  0  0  0  0  0  0  0
   73.1974   82.9283   89.7104 C   0  0  0  0  0  0  0  0  0  0  0  0
   72.5198   81.7436   90.0099 C   0  0  0  0  0  0  0  0  0  0  0  0
   71.1358   81.6367   89.7803 C   0  0  0  0  0  0  0  0  0  0  0  0
   70.4492   82.7442   89.2501 C   0  0  0  0  0  0  0  0  0  0  0  0
   70.4130   80.3749   90.0732 C   0  0  0  0  0  0  0  0  0  0  0  0
   69.0599   80.3783   90.2253 N   0  0  0  0  0  0  0  0  0  0  0  0
   68.3741   79.2329   90.4687 C   0  0  0  0  0  0  0  0  0  0  0  0
   69.0536   78.0139   90.5515 C   0  0  0  0  0  0  0  0  0  0  0  0
   70.4459   78.0296   90.4171 C   0  0  0  0  0  0  0  0  0  0  0  0
   71.0924   79.1996   90.1778 N   0  0  0  0  0  0  0  0  0  0  0  0
   68.3119   76.7239   90.7803 C   0  0  0  0  0  0  0  0  0  0  0  0
   67.4387   76.8335   91.9054 O   0  0  0  0  0  0  0  0  0  0  0  0
   67.3913   75.9399   92.9888 C   0  0  0  0  0  0  0  0  0  0  0  0
   66.2737   75.9791   93.8252 C   0  0  0  0  0  0  0  0  0  0  0  0
   66.1807   75.1268   94.9252 C   0  0  0  0  0  0  0  0  0  0  0  0
   67.2025   74.2152   95.2089 C   0  0  0  0  0  0  0  0  0  0  0  0
   67.0194   73.3448   96.2850 O   0  0  0  0  0  0  0  0  0  0  0  0
   68.3556   74.1787   94.3890 C   0  0  0  0  0  0  0  0  0  0  0  0
   68.4242   75.0244   93.2664 C   0  0  0  0  0  0  0  0  0  0  0  0
   66.2420   73.3998   96.8051 H   0  0  0  0  0  0  0  0  0  0  0  0
   69.5123   73.3113   94.6961 C   0  0  0  0  0  0  0  0  0  0  0  0
   70.4537   73.1978   93.8663 O   0  0  0  0  0  0  0  0  0  0  0  0
   69.6011   72.6608   95.9228 O   0  0  0  0  0  0  0  0  0  0  0  0
   68.9059   72.7395   96.5461 H   0  0  0  0  0  0  0  0  0  0  0  0
   72.1266   86.6102   88.4703 O   0  0  0  0  0  0  0  0  0  0  0  0
   70.9103   86.3653   88.2481 C   0  0  0  0  0  0  0  0  0  0  0  0
   70.3886   85.0343   88.3917 N   0  0  0  0  0  0  0  0  0  0  0  0
   69.4712   84.8616   88.0791 H   0  0  0  0  0  0  0  0  0  0  0  0
   69.9811   87.4992   87.9178 C   0  0  0  0  0  0  0  0  0  0  0  0
   69.7641   88.4254   89.1229 C   0  0  0  0  0  0  0  0  0  0  0  0
   69.2095   87.7035   90.3168 C   0  0  0  0  0  0  0  0  0  0  0  0
   68.9417   88.3149   91.4901 N   0  0  0  0  0  0  0  0  0  0  0  0
   68.4742   87.3183   92.2654 C   0  0  0  0  0  0  0  0  0  0  0  0
   68.4724   86.1450   91.5351 C   0  0  0  0  0  0  0  0  0  0  0  0
   68.9216   86.4213   90.3351 O   0  0  0  0  0  0  0  0  0  0  0  0
   68.0627   84.7947   91.9818 C   0  0  0  0  0  0  0  0  0  0  0  0
   68.4866   84.2713   93.2178 C   0  0  0  0  0  0  0  0  0  0  0  0
   68.0869   82.9933   93.6189 C   0  0  0  0  0  0  0  0  0  0  0  0
   67.2655   82.2220   92.7919 C   0  0  0  0  0  0  0  0  0  0  0  0
   66.7723   80.6173   93.2990 Cl  0  0  0  0  0  0  0  0  0  0  0  0
   66.8459   82.7287   91.5590 C   0  0  0  0  0  0  0  0  0  0  0  0
   67.2383   84.0092   91.1565 C   0  0  0  0  0  0  0  0  0  0  0  0
  1  2  2  0  0  0  0
  2  3  1  0  0  0  0
  3  4  2  0  0  0  0
  4  5  1  0  0  0  0
  5  7  1  0  0  0  0
  5  6  2  0  0  0  0
  6  1  1  0  0  0  0
  7  8  2  0  0  0  0
  8  9  2  0  0  0  0
  9 10  2  0  0  0  0
 10 13  1  0  0  0  0
 10 11  1  0  0  0  0
 11 12  2  0  0  0  0
 12  7  2  0  0  0  0
 13 14  1  0  0  0  0
 14 15  1  0  0  0  0
 15 16  2  0  0  0  0
 16 17  1  0  0  0  0
 17 18  2  0  0  0  0
 18 19  1  0  0  0  0
 18 20  1  0  0  0  0
 19 22  1  0  0  0  0
 20 23  1  0  0  0  0
 20 21  2  0  0  0  0
 21 15  1  0  0  0  0
 23 24  2  0  0  0  0
 23 25  1  0  0  0  0
 25 26  1  0  0  0  0
 27 28  2  0  0  0  0
 28 31  1  0  0  0  0
 28 29  1  0  0  0  0
 29  1  1  0  0  0  0
 29 30  1  0  0  0  0
 31 32  1  0  0  0  0
 32 33  1  0  0  0  0
 33 34  2  0  0  0  0
 34 35  2  0  0  0  0
 35 36  2  0  0  0  0
 36 38  1  0  0  0  0
 36 37  1  0  0  0  0
 37 33  1  0  0  0  0
 38 39  2  0  0  0  0
 39 40  1  0  0  0  0
 40 41  2  0  0  0  0
 41 42  1  0  0  0  0
 41 43  1  0  0  0  0
 43 44  2  0  0  0  0
 44 38  1  0  0  0  0
M  END
>  <Activity>
11.5

>  <minimizedAffinity>
-9.14164

>  <RFScoreVS_v2>
5.99125848412

$$$$
HIPS7772
 OpenBabel05252300073D

 44 48  0  0  0  0  0  0  0  0999 V2000
   67.4328   73.9703   94.8220 C   0  0  0  0  0  0  0  0  0  0  0  0
   66.7181   73.8027   96.0182 C   0  0  0  0  0  0  0  0  0  0  0  0
   65.8314   74.7913   96.4497 C   0  0  0  0  0  0  0  0  0  0  0  0
   65.6397   75.9473   95.6883 C   0  0  0  0  0  0  0  0  0  0  0  0
   66.3338   76.1265   94.4777 C   0  0  0  0  0  0  0  0  0  0  0  0
   67.2255   75.1247   94.0530 C   0  0  0  0  0  0  0  0  0  0  0  0
   66.1185   77.3396   93.6517 C   0  0  0  0  0  0  0  0  0  0  0  0
   65.2255   78.2889   94.0460 N   0  0  0  0  0  0  0  0  0  0  0  0
   65.0298   79.4187   93.3201 C   0  0  0  0  0  0  0  0  0  0  0  0
   65.7638   79.6353   92.1501 C   0  0  0  0  0  0  0  0  0  0  0  0
   66.6596   78.6403   91.7452 C   0  0  0  0  0  0  0  0  0  0  0  0
   66.8215   77.5233   92.5002 N   0  0  0  0  0  0  0  0  0  0  0  0
   65.5949   80.8985   91.3486 C   0  0  0  0  0  0  0  0  0  0  0  0
   66.4689   80.9032   90.2187 O   0  0  0  0  0  0  0  0  0  0  0  0
   67.4318   81.8876   89.9389 C   0  0  0  0  0  0  0  0  0  0  0  0
   68.1785   82.3982   91.0027 C   0  0  0  0  0  0  0  0  0  0  0  0
   69.1362   83.3887   90.7860 C   0  0  0  0  0  0  0  0  0  0  0  0
   69.3688   83.8861   89.5000 C   0  0  0  0  0  0  0  0  0  0  0  0
   70.3861   84.8288   89.3397 O   0  0  0  0  0  0  0  0  0  0  0  0
   68.6034   83.4009   88.4127 C   0  0  0  0  0  0  0  0  0  0  0  0
   67.6602   82.3819   88.6405 C   0  0  0  0  0  0  0  0  0  0  0  0
   70.8711   85.1259   90.0843 H   0  0  0  0  0  0  0  0  0  0  0  0
   68.7304   83.9591   87.0500 C   0  0  0  0  0  0  0  0  0  0  0  0
   69.8625   84.2908   86.6071 O   0  0  0  0  0  0  0  0  0  0  0  0
   67.6154   84.0686   86.2251 O   0  0  0  0  0  0  0  0  0  0  0  0
   66.7696   83.8242   86.5458 H   0  0  0  0  0  0  0  0  0  0  0  0
   70.2778   73.8038   95.3288 O   0  0  0  0  0  0  0  0  0  0  0  0
   69.7480   72.9709   94.5450 C   0  0  0  0  0  0  0  0  0  0  0  0
   68.3269   72.9584   94.3339 N   0  0  0  0  0  0  0  0  0  0  0  0
   67.9424   72.2097   93.8232 H   0  0  0  0  0  0  0  0  0  0  0  0
   70.6277   72.0423   93.7560 C   0  0  0  0  0  0  0  0  0  0  0  0
   70.1021   71.8384   92.3280 C   0  0  0  0  0  0  0  0  0  0  0  0
   69.6215   73.1141   91.6989 C   0  0  0  0  0  0  0  0  0  0  0  0
   68.4258   73.2286   91.0832 N   0  0  0  0  0  0  0  0  0  0  0  0
   68.4046   74.5104   90.6717 C   0  0  0  0  0  0  0  0  0  0  0  0
   69.5821   75.1241   91.0547 C   0  0  0  0  0  0  0  0  0  0  0  0
   70.3041   74.2372   91.6952 O   0  0  0  0  0  0  0  0  0  0  0  0
   70.0064   76.5193   90.8015 C   0  0  0  0  0  0  0  0  0  0  0  0
   69.2396   77.3845   89.9986 C   0  0  0  0  0  0  0  0  0  0  0  0
   69.6601   78.6985   89.7733 C   0  0  0  0  0  0  0  0  0  0  0  0
   70.8501   79.1625   90.3408 C   0  0  0  0  0  0  0  0  0  0  0  0
   71.3745   80.8103   90.0494 Cl  0  0  0  0  0  0  0  0  0  0  0  0
   71.6234   78.3091   91.1325 C   0  0  0  0  0  0  0  0  0  0  0  0
   71.2033   76.9958   91.3656 C   0  0  0  0  0  0  0  0  0  0  0  0
  1  2  2  0  0  0  0
  2  3  1  0  0  0  0
  3  4  2  0  0  0  0
  4  5  1  0  0  0  0
  5  7  1  0  0  0  0
  5  6  2  0  0  0  0
  6  1  1  0  0  0  0
  7  8  2  0  0  0  0
  8  9  2  0  0  0  0
  9 10  2  0  0  0  0
 10 13  1  0  0  0  0
 10 11  1  0  0  0  0
 11 12  2  0  0  0  0
 12  7  2  0  0  0  0
 13 14  1  0  0  0  0
 14 15  1  0  0  0  0
 15 16  2  0  0  0  0
 16 17  1  0  0  0  0
 17 18  2  0  0  0  0
 18 19  1  0  0  0  0
 18 20  1  0  0  0  0
 19 22  1  0  0  0  0
 20 23  1  0  0  0  0
 20 21  2  0  0  0  0
 21 15  1  0  0  0  0
 23 24  2  0  0  0  0
 23 25  1  0  0  0  0
 25 26  1  0  0  0  0
 27 28  2  0  0  0  0
 28 31  1  0  0  0  0
 28 29  1  0  0  0  0
 29  1  1  0  0  0  0
 29 30  1  0  0  0  0
 31 32  1  0  0  0  0
 32 33  1  0  0  0  0
 33 34  2  0  0  0  0
 34 35  2  0  0  0  0
 35 36  2  0  0  0  0
 36 38  1  0  0  0  0
 36 37  1  0  0  0  0
 37 33  1  0  0  0  0
 38 39  2  0  0  0  0
 39 40  1  0  0  0  0
 40 41  2  0  0  0  0
 41 42  1  0  0  0  0
 41 43  1  0  0  0  0
 43 44  2  0  0  0  0
 44 38  1  0  0  0  0
M  END
>  <Activity>
11.5

>  <minimizedAffinity>
-8.98247

>  <RFScoreVS_v2>
5.97926178812

$$$$
HIPS7772
 OpenBabel05252300073D

 44 48  0  0  0  0  0  0  0  0999 V2000
   71.1668   84.1545   89.0212 C   0  0  0  0  0  0  0  0  0  0  0  0
   72.5565   84.2505   89.1925 C   0  0  0  0  0  0  0  0  0  0  0  0
   73.2850   83.1487   89.6453 C   0  0  0  0  0  0  0  0  0  0  0  0
   72.6387   81.9403   89.9185 C   0  0  0  0  0  0  0  0  0  0  0  0
   71.2489   81.8186   89.7369 C   0  0  0  0  0  0  0  0  0  0  0  0
   70.5245   82.9352   89.2815 C   0  0  0  0  0  0  0  0  0  0  0  0
   70.5585   80.5327   90.0020 C   0  0  0  0  0  0  0  0  0  0  0  0
   71.2781   79.4159   90.3003 N   0  0  0  0  0  0  0  0  0  0  0  0
   70.6679   78.2345   90.5711 C   0  0  0  0  0  0  0  0  0  0  0  0
   69.2724   78.1492   90.5642 C   0  0  0  0  0  0  0  0  0  0  0  0
   68.5476   79.2987   90.2325 C   0  0  0  0  0  0  0  0  0  0  0  0
   69.1994   80.4595   89.9647 N   0  0  0  0  0  0  0  0  0  0  0  0
   68.5702   76.8607   90.9008 C   0  0  0  0  0  0  0  0  0  0  0  0
   69.5130   75.8437   91.2434 O   0  0  0  0  0  0  0  0  0  0  0  0
   69.4658   75.0466   92.3997 C   0  0  0  0  0  0  0  0  0  0  0  0
   68.8388   75.5685   93.5331 C   0  0  0  0  0  0  0  0  0  0  0  0
   68.7769   74.8285   94.7135 C   0  0  0  0  0  0  0  0  0  0  0  0
   69.3382   73.5495   94.7832 C   0  0  0  0  0  0  0  0  0  0  0  0
   69.1851   72.8343   95.9725 O   0  0  0  0  0  0  0  0  0  0  0  0
   70.0017   73.0138   93.6537 C   0  0  0  0  0  0  0  0  0  0  0  0
   70.0325   73.7592   92.4606 C   0  0  0  0  0  0  0  0  0  0  0  0
   68.7394   73.2233   96.6991 H   0  0  0  0  0  0  0  0  0  0  0  0
   70.7026   71.7131   93.6964 C   0  0  0  0  0  0  0  0  0  0  0  0
   71.6256   71.4665   92.8748 O   0  0  0  0  0  0  0  0  0  0  0  0
   70.3921   70.7756   94.6765 O   0  0  0  0  0  0  0  0  0  0  0  0
   69.7074   70.9503   95.2917 H   0  0  0  0  0  0  0  0  0  0  0  0
   72.1413   86.8247   88.4749 O   0  0  0  0  0  0  0  0  0  0  0  0
   70.9092   86.5883   88.3534 C   0  0  0  0  0  0  0  0  0  0  0  0
   70.3937   85.2584   88.5259 N   0  0  0  0  0  0  0  0  0  0  0  0
   69.4522   85.0938   88.2898 H   0  0  0  0  0  0  0  0  0  0  0  0
   69.9622   87.7306   88.1151 C   0  0  0  0  0  0  0  0  0  0  0  0
   69.7607   88.5752   89.3812 C   0  0  0  0  0  0  0  0  0  0  0  0
   69.2202   87.7762   90.5317 C   0  0  0  0  0  0  0  0  0  0  0  0
   68.9916   88.3030   91.7533 N   0  0  0  0  0  0  0  0  0  0  0  0
   68.5230   87.2596   92.4638 C   0  0  0  0  0  0  0  0  0  0  0  0
   68.4817   86.1442   91.6488 C   0  0  0  0  0  0  0  0  0  0  0  0
   68.9081   86.5014   90.4620 O   0  0  0  0  0  0  0  0  0  0  0  0
   68.0565   84.7718   92.0041 C   0  0  0  0  0  0  0  0  0  0  0  0
   67.3371   83.9696   91.0984 C   0  0  0  0  0  0  0  0  0  0  0  0
   66.9459   82.6760   91.4560 C   0  0  0  0  0  0  0  0  0  0  0  0
   67.2627   82.1702   92.7198 C   0  0  0  0  0  0  0  0  0  0  0  0
   66.7641   80.5486   93.1638 Cl  0  0  0  0  0  0  0  0  0  0  0  0
   67.9692   82.9614   93.6297 C   0  0  0  0  0  0  0  0  0  0  0  0
   68.3678   84.2537   93.2739 C   0  0  0  0  0  0  0  0  0  0  0  0
  1  2  2  0  0  0  0
  2  3  1  0  0  0  0
  3  4  2  0  0  0  0
  4  5  1  0  0  0  0
  5  7  1  0  0  0  0
  5  6  2  0  0  0  0
  6  1  1  0  0  0  0
  7  8  2  0  0  0  0
  8  9  2  0  0  0  0
  9 10  2  0  0  0  0
 10 13  1  0  0  0  0
 10 11  1  0  0  0  0
 11 12  2  0  0  0  0
 12  7  2  0  0  0  0
 13 14  1  0  0  0  0
 14 15  1  0  0  0  0
 15 16  2  0  0  0  0
 16 17  1  0  0  0  0
 17 18  2  0  0  0  0
 18 19  1  0  0  0  0
 18 20  1  0  0  0  0
 19 22  1  0  0  0  0
 20 23  1  0  0  0  0
 20 21  2  0  0  0  0
 21 15  1  0  0  0  0
 23 24  2  0  0  0  0
 23 25  1  0  0  0  0
 25 26  1  0  0  0  0
 27 28  2  0  0  0  0
 28 31  1  0  0  0  0
 28 29  1  0  0  0  0
 29  1  1  0  0  0  0
 29 30  1  0  0  0  0
 31 32  1  0  0  0  0
 32 33  1  0  0  0  0
 33 34  2  0  0  0  0
 34 35  2  0  0  0  0
 35 36  2  0  0  0  0
 36 38  1  0  0  0  0
 36 37  1  0  0  0  0
 37 33  1  0  0  0  0
 38 39  2  0  0  0  0
 39 40  1  0  0  0  0
 40 41  2  0  0  0  0
 41 42  1  0  0  0  0
 41 43  1  0  0  0  0
 43 44  2  0  0  0  0
 44 38  1  0  0  0  0
M  END
>  <Activity>
11.5

>  <minimizedAffinity>
-8.88835

>  <RFScoreVS_v2>
5.96621158204

$$$$
HIPS6990
 OpenBabel05252300073D

 35 38  0  0  0  0  0  0  0  0999 V2000
   70.0006   76.6742   91.9200 C   0  0  0  0  0  0  0  0  0  0  0  0
   71.3564   76.9230   91.6416 C   0  0  0  0  0  0  0  0  0  0  0  0
   71.7182   77.8207   90.6343 C   0  0  0  0  0  0  0  0  0  0  0  0
   70.7349   78.4842   89.8979 C   0  0  0  0  0  0  0  0  0  0  0  0
   69.3774   78.2554   90.1651 C   0  0  0  0  0  0  0  0  0  0  0  0
   69.0164   77.3390   91.1658 C   0  0  0  0  0  0  0  0  0  0  0  0
   69.2541   73.4377   93.7741 C   0  0  0  0  0  0  0  0  0  0  0  0
   68.8946   73.9297   95.0327 C   0  0  0  0  0  0  0  0  0  0  0  0
   68.9021   75.3034   95.2826 C   0  0  0  0  0  0  0  0  0  0  0  0
   69.2628   76.1991   94.2732 C   0  0  0  0  0  0  0  0  0  0  0  0
   69.6093   75.7276   92.9946 C   0  0  0  0  0  0  0  0  0  0  0  0
   69.5857   74.3421   92.7491 C   0  0  0  0  0  0  0  0  0  0  0  0
   69.2282   72.0511   93.5614 O   0  0  0  0  0  0  0  0  0  0  0  0
   72.6181   69.6977   92.6741 C   0  0  0  0  0  0  0  0  0  0  0  0
   71.4800   69.6117   91.8643 C   0  0  0  0  0  0  0  0  0  0  0  0
   70.3506   70.3869   92.1413 C   0  0  0  0  0  0  0  0  0  0  0  0
   70.3387   71.2513   93.2506 C   0  0  0  0  0  0  0  0  0  0  0  0
   71.4844   71.3564   94.0466 C   0  0  0  0  0  0  0  0  0  0  0  0
   72.6162   70.5842   93.7681 C   0  0  0  0  0  0  0  0  0  0  0  0
   74.1446   68.5906   91.0333 C   0  0  0  0  0  0  0  0  0  0  0  0
   73.7230   68.8930   92.3591 O   0  0  0  0  0  0  0  0  0  0  0  0
   68.3201   78.9811   89.3748 C   0  0  0  0  0  0  0  0  0  0  0  0
   67.2089   78.1244   89.1073 O   0  0  0  0  0  0  0  0  0  0  0  0
   67.1865   77.0946   88.1519 C   0  0  0  0  0  0  0  0  0  0  0  0
   67.4046   77.4327   86.8150 C   0  0  0  0  0  0  0  0  0  0  0  0
   67.3916   76.4511   85.8244 C   0  0  0  0  0  0  0  0  0  0  0  0
   67.1596   75.1108   86.1501 C   0  0  0  0  0  0  0  0  0  0  0  0
   67.2328   74.1710   85.1196 O   0  0  0  0  0  0  0  0  0  0  0  0
   66.8978   74.7528   87.4966 C   0  0  0  0  0  0  0  0  0  0  0  0
   66.9466   75.7492   88.4885 C   0  0  0  0  0  0  0  0  0  0  0  0
   67.4081   74.4501   84.2425 H   0  0  0  0  0  0  0  0  0  0  0  0
   66.5311   73.3776   87.9029 C   0  0  0  0  0  0  0  0  0  0  0  0
   66.8577   72.9307   89.0348 O   0  0  0  0  0  0  0  0  0  0  0  0
   65.8773   72.5400   87.0036 O   0  0  0  0  0  0  0  0  0  0  0  0
   65.6296   72.8614   86.1590 H   0  0  0  0  0  0  0  0  0  0  0  0
  1  2  2  0  0  0  0
  2  3  1  0  0  0  0
  3  4  2  0  0  0  0
  4  5  1  0  0  0  0
  5 22  1  0  0  0  0
  5  6  2  0  0  0  0
  6  1  1  0  0  0  0
  7  8  2  0  0  0  0
  8  9  1  0  0  0  0
  9 10  2  0  0  0  0
 10 11  1  0  0  0  0
 11  1  1  0  0  0  0
 11 12  2  0  0  0  0
 12  7  1  0  0  0  0
 13  7  1  0  0  0  0
 14 15  2  0  0  0  0
 15 16  1  0  0  0  0
 16 17  2  0  0  0  0
 17 13  1  0  0  0  0
 17 18  1  0  0  0  0
 18 19  2  0  0  0  0
 19 14  1  0  0  0  0
 20 21  1  0  0  0  0
 21 14  1  0  0  0  0
 22 23  1  0  0  0  0
 23 24  1  0  0  0  0
 24 25  2  0  0  0  0
 25 26  1  0  0  0  0
 26 27  2  0  0  0  0
 27 28  1  0  0  0  0
 27 29  1  0  0  0  0
 28 31  1  0  0  0  0
 29 32  1  0  0  0  0
 29 30  2  0  0  0  0
 30 24  1  0  0  0  0
 32 33  2  0  0  0  0
 32 34  1  0  0  0  0
 34 35  1  0  0  0  0
M  END
>  <Activity>
13.0

>  <minimizedAffinity>
-9.15234

>  <RFScoreVS_v2>
5.97263172227

$$$$
HIPS6990
 OpenBabel05252300073D

 35 38  0  0  0  0  0  0  0  0999 V2000
   69.4164   78.2708   90.1729 C   0  0  0  0  0  0  0  0  0  0  0  0
   70.8125   78.3933   90.0577 C   0  0  0  0  0  0  0  0  0  0  0  0
   71.6585   77.6044   90.8410 C   0  0  0  0  0  0  0  0  0  0  0  0
   71.1239   76.6818   91.7424 C   0  0  0  0  0  0  0  0  0  0  0  0
   69.7344   76.5394   91.8668 C   0  0  0  0  0  0  0  0  0  0  0  0
   68.8863   77.3463   91.0914 C   0  0  0  0  0  0  0  0  0  0  0  0
   67.7044   81.2963   88.6282 C   0  0  0  0  0  0  0  0  0  0  0  0
   66.8202   80.6761   87.7399 C   0  0  0  0  0  0  0  0  0  0  0  0
   66.7844   79.2842   87.6354 C   0  0  0  0  0  0  0  0  0  0  0  0
   67.6284   78.4986   88.4238 C   0  0  0  0  0  0  0  0  0  0  0  0
   68.5118   79.1002   89.3375 C   0  0  0  0  0  0  0  0  0  0  0  0
   68.5307   80.5033   89.4449 C   0  0  0  0  0  0  0  0  0  0  0  0
   67.7057   82.6970   88.7078 O   0  0  0  0  0  0  0  0  0  0  0  0
   70.9871   85.1495   87.6901 C   0  0  0  0  0  0  0  0  0  0  0  0
   70.2709   85.3983   88.8664 C   0  0  0  0  0  0  0  0  0  0  0  0
   69.1845   84.5935   89.2205 C   0  0  0  0  0  0  0  0  0  0  0  0
   68.7868   83.5326   88.3873 C   0  0  0  0  0  0  0  0  0  0  0  0
   69.5169   83.2676   87.2237 C   0  0  0  0  0  0  0  0  0  0  0  0
   70.6062   84.0698   86.8705 C   0  0  0  0  0  0  0  0  0  0  0  0
   72.6326   86.9387   88.2721 C   0  0  0  0  0  0  0  0  0  0  0  0
   72.0643   85.9907   87.3747 O   0  0  0  0  0  0  0  0  0  0  0  0
   69.1623   75.5357   92.8333 C   0  0  0  0  0  0  0  0  0  0  0  0
   70.1452   74.5661   93.1992 O   0  0  0  0  0  0  0  0  0  0  0  0
   70.0801   73.1924   92.9118 C   0  0  0  0  0  0  0  0  0  0  0  0
   69.4979   72.7997   91.7051 C   0  0  0  0  0  0  0  0  0  0  0  0
   69.4051   71.4493   91.3692 C   0  0  0  0  0  0  0  0  0  0  0  0
   69.8922   70.4633   92.2334 C   0  0  0  0  0  0  0  0  0  0  0  0
   69.8331   69.1362   91.8022 O   0  0  0  0  0  0  0  0  0  0  0  0
   70.4517   70.8397   93.4804 C   0  0  0  0  0  0  0  0  0  0  0  0
   70.5679   72.2069   93.7903 C   0  0  0  0  0  0  0  0  0  0  0  0
   69.4546   68.9304   90.9701 H   0  0  0  0  0  0  0  0  0  0  0  0
   70.8829   69.8524   94.4954 C   0  0  0  0  0  0  0  0  0  0  0  0
   70.6100   70.0192   95.7141 O   0  0  0  0  0  0  0  0  0  0  0  0
   71.6574   68.7601   94.1150 O   0  0  0  0  0  0  0  0  0  0  0  0
   71.8667   68.6260   93.2116 H   0  0  0  0  0  0  0  0  0  0  0  0
  1  2  2  0  0  0  0
  2  3  1  0  0  0  0
  3  4  2  0  0  0  0
  4  5  1  0  0  0  0
  5 22  1  0  0  0  0
  5  6  2  0  0  0  0
  6  1  1  0  0  0  0
  7  8  2  0  0  0  0
  8  9  1  0  0  0  0
  9 10  2  0  0  0  0
 10 11  1  0  0  0  0
 11  1  1  0  0  0  0
 11 12  2  0  0  0  0
 12  7  1  0  0  0  0
 13  7  1  0  0  0  0
 14 15  2  0  0  0  0
 15 16  1  0  0  0  0
 16 17  2  0  0  0  0
 17 13  1  0  0  0  0
 17 18  1  0  0  0  0
 18 19  2  0  0  0  0
 19 14  1  0  0  0  0
 20 21  1  0  0  0  0
 21 14  1  0  0  0  0
 22 23  1  0  0  0  0
 23 24  1  0  0  0  0
 24 25  2  0  0  0  0
 25 26  1  0  0  0  0
 26 27  2  0  0  0  0
 27 28  1  0  0  0  0
 27 29  1  0  0  0  0
 28 31  1  0  0  0  0
 29 32  1  0  0  0  0
 29 30  2  0  0  0  0
 30 24  1  0  0  0  0
 32 33  2  0  0  0  0
 32 34  1  0  0  0  0
 34 35  1  0  0  0  0
M  END
>  <Activity>
13.0

>  <minimizedAffinity>
-9.05004

>  <RFScoreVS_v2>
5.97422985516

$$$$
HIPS6990
 OpenBabel05252300073D

 35 38  0  0  0  0  0  0  0  0999 V2000
   69.6366   76.5871   91.7030 C   0  0  0  0  0  0  0  0  0  0  0  0
   71.0393   76.5321   91.6205 C   0  0  0  0  0  0  0  0  0  0  0  0
   71.7440   77.5030   90.9047 C   0  0  0  0  0  0  0  0  0  0  0  0
   71.0607   78.5415   90.2689 C   0  0  0  0  0  0  0  0  0  0  0  0
   69.6626   78.6181   90.3456 C   0  0  0  0  0  0  0  0  0  0  0  0
   68.9553   77.6309   91.0504 C   0  0  0  0  0  0  0  0  0  0  0  0
   68.8324   73.4576   93.7103 C   0  0  0  0  0  0  0  0  0  0  0  0
   67.4647   73.6347   93.9416 C   0  0  0  0  0  0  0  0  0  0  0  0
   66.8073   74.7671   93.4568 C   0  0  0  0  0  0  0  0  0  0  0  0
   67.5106   75.7304   92.7297 C   0  0  0  0  0  0  0  0  0  0  0  0
   68.8822   75.5633   92.4689 C   0  0  0  0  0  0  0  0  0  0  0  0
   69.5326   74.4119   92.9504 C   0  0  0  0  0  0  0  0  0  0  0  0
   69.4550   72.3034   94.2091 O   0  0  0  0  0  0  0  0  0  0  0  0
   71.7859   69.6102   91.9439 C   0  0  0  0  0  0  0  0  0  0  0  0
   72.3551   70.2748   93.0360 C   0  0  0  0  0  0  0  0  0  0  0  0
   71.5965   71.1666   93.7992 C   0  0  0  0  0  0  0  0  0  0  0  0
   70.2537   71.4202   93.4665 C   0  0  0  0  0  0  0  0  0  0  0  0
   69.6766   70.7381   92.3900 C   0  0  0  0  0  0  0  0  0  0  0  0
   70.4336   69.8428   91.6281 C   0  0  0  0  0  0  0  0  0  0  0  0
   74.0148   68.7340   91.2281 C   0  0  0  0  0  0  0  0  0  0  0  0
   72.5912   68.7314   91.2045 O   0  0  0  0  0  0  0  0  0  0  0  0
   68.9305   79.7458   89.6665 C   0  0  0  0  0  0  0  0  0  0  0  0
   69.2981   81.0041   90.2338 O   0  0  0  0  0  0  0  0  0  0  0  0
   70.0009   82.0227   89.5687 C   0  0  0  0  0  0  0  0  0  0  0  0
   71.3045   82.3015   89.9838 C   0  0  0  0  0  0  0  0  0  0  0  0
   72.0479   83.3034   89.3603 C   0  0  0  0  0  0  0  0  0  0  0  0
   71.5028   84.0478   88.3091 C   0  0  0  0  0  0  0  0  0  0  0  0
   72.3272   84.9850   87.6825 O   0  0  0  0  0  0  0  0  0  0  0  0
   70.1675   83.8060   87.8988 C   0  0  0  0  0  0  0  0  0  0  0  0
   69.4420   82.7704   88.5154 C   0  0  0  0  0  0  0  0  0  0  0  0
   73.2044   85.1140   87.9853 H   0  0  0  0  0  0  0  0  0  0  0  0
   69.4834   84.6266   86.8744 C   0  0  0  0  0  0  0  0  0  0  0  0
   68.2256   84.6563   86.8062 O   0  0  0  0  0  0  0  0  0  0  0  0
   70.2325   85.3223   85.9296 O   0  0  0  0  0  0  0  0  0  0  0  0
   71.1685   85.3074   85.9704 H   0  0  0  0  0  0  0  0  0  0  0  0
  1  2  2  0  0  0  0
  2  3  1  0  0  0  0
  3  4  2  0  0  0  0
  4  5  1  0  0  0  0
  5 22  1  0  0  0  0
  5  6  2  0  0  0  0
  6  1  1  0  0  0  0
  7  8  2  0  0  0  0
  8  9  1  0  0  0  0
  9 10  2  0  0  0  0
 10 11  1  0  0  0  0
 11  1  1  0  0  0  0
 11 12  2  0  0  0  0
 12  7  1  0  0  0  0
 13  7  1  0  0  0  0
 14 15  2  0  0  0  0
 15 16  1  0  0  0  0
 16 17  2  0  0  0  0
 17 13  1  0  0  0  0
 17 18  1  0  0  0  0
 18 19  2  0  0  0  0
 19 14  1  0  0  0  0
 20 21  1  0  0  0  0
 21 14  1  0  0  0  0
 22 23  1  0  0  0  0
 23 24  1  0  0  0  0
 24 25  2  0  0  0  0
 25 26  1  0  0  0  0
 26 27  2  0  0  0  0
 27 28  1  0  0  0  0
 27 29  1  0  0  0  0
 28 31  1  0  0  0  0
 29 32  1  0  0  0  0
 29 30  2  0  0  0  0
 30 24  1  0  0  0  0
 32 33  2  0  0  0  0
 32 34  1  0  0  0  0
 34 35  1  0  0  0  0
M  END
>  <Activity>
13.0

>  <minimizedAffinity>
-8.97615

>  <RFScoreVS_v2>
5.97417228734

$$$$
HIPS6990
 OpenBabel05252300073D

 35 38  0  0  0  0  0  0  0  0999 V2000
   68.5148   78.4672   89.1205 C   0  0  0  0  0  0  0  0  0  0  0  0
   67.8427   77.6554   88.1894 C   0  0  0  0  0  0  0  0  0  0  0  0
   66.9360   78.2165   87.2869 C   0  0  0  0  0  0  0  0  0  0  0  0
   66.6932   79.5914   87.2978 C   0  0  0  0  0  0  0  0  0  0  0  0
   67.3588   80.4190   88.2135 C   0  0  0  0  0  0  0  0  0  0  0  0
   68.2561   79.8501   89.1316 C   0  0  0  0  0  0  0  0  0  0  0  0
   69.9875   76.3338   91.9044 C   0  0  0  0  0  0  0  0  0  0  0  0
   71.3247   76.7417   91.8722 C   0  0  0  0  0  0  0  0  0  0  0  0
   71.7495   77.6974   90.9472 C   0  0  0  0  0  0  0  0  0  0  0  0
   70.8390   78.2598   90.0495 C   0  0  0  0  0  0  0  0  0  0  0  0
   69.4858   77.8785   90.0768 C   0  0  0  0  0  0  0  0  0  0  0  0
   69.0650   76.9243   91.0218 C   0  0  0  0  0  0  0  0  0  0  0  0
   69.5992   75.3755   92.8526 O   0  0  0  0  0  0  0  0  0  0  0  0
   69.6269   71.1879   92.3226 C   0  0  0  0  0  0  0  0  0  0  0  0
   69.2308   72.0200   91.2694 C   0  0  0  0  0  0  0  0  0  0  0  0
   69.2197   73.4087   91.4265 C   0  0  0  0  0  0  0  0  0  0  0  0
   69.5907   73.9862   92.6540 C   0  0  0  0  0  0  0  0  0  0  0  0
   70.0103   73.1570   93.6996 C   0  0  0  0  0  0  0  0  0  0  0  0
   70.0253   71.7677   93.5423 C   0  0  0  0  0  0  0  0  0  0  0  0
   70.2748   68.8580   92.9549 C   0  0  0  0  0  0  0  0  0  0  0  0
   69.6128   69.8004   92.1177 O   0  0  0  0  0  0  0  0  0  0  0  0
   67.1013   81.9031   88.2150 C   0  0  0  0  0  0  0  0  0  0  0  0
   67.8496   82.5491   87.1840 O   0  0  0  0  0  0  0  0  0  0  0  0
   68.9656   83.3784   87.3858 C   0  0  0  0  0  0  0  0  0  0  0  0
   69.0693   84.5400   86.6183 C   0  0  0  0  0  0  0  0  0  0  0  0
   70.1569   85.3988   86.7757 C   0  0  0  0  0  0  0  0  0  0  0  0
   71.1638   85.1135   87.7036 C   0  0  0  0  0  0  0  0  0  0  0  0
   72.1855   86.0524   87.8612 O   0  0  0  0  0  0  0  0  0  0  0  0
   71.0962   83.9194   88.4648 C   0  0  0  0  0  0  0  0  0  0  0  0
   69.9769   83.0801   88.3182 C   0  0  0  0  0  0  0  0  0  0  0  0
   72.1928   86.8293   87.3373 H   0  0  0  0  0  0  0  0  0  0  0  0
   72.1770   83.4917   89.3813 C   0  0  0  0  0  0  0  0  0  0  0  0
   73.3612   83.8869   89.2111 O   0  0  0  0  0  0  0  0  0  0  0  0
   71.9016   82.5888   90.4044 O   0  0  0  0  0  0  0  0  0  0  0  0
   71.0247   82.2879   90.5404 H   0  0  0  0  0  0  0  0  0  0  0  0
  1  2  2  0  0  0  0
  2  3  1  0  0  0  0
  3  4  2  0  0  0  0
  4  5  1  0  0  0  0
  5 22  1  0  0  0  0
  5  6  2  0  0  0  0
  6  1  1  0  0  0  0
  7  8  2  0  0  0  0
  8  9  1  0  0  0  0
  9 10  2  0  0  0  0
 10 11  1  0  0  0  0
 11  1  1  0  0  0  0
 11 12  2  0  0  0  0
 12  7  1  0  0  0  0
 13  7  1  0  0  0  0
 14 15  2  0  0  0  0
 15 16  1  0  0  0  0
 16 17  2  0  0  0  0
 17 13  1  0  0  0  0
 17 18  1  0  0  0  0
 18 19  2  0  0  0  0
 19 14  1  0  0  0  0
 20 21  1  0  0  0  0
 21 14  1  0  0  0  0
 22 23  1  0  0  0  0
 23 24  1  0  0  0  0
 24 25  2  0  0  0  0
 25 26  1  0  0  0  0
 26 27  2  0  0  0  0
 27 28  1  0  0  0  0
 27 29  1  0  0  0  0
 28 31  1  0  0  0  0
 29 32  1  0  0  0  0
 29 30  2  0  0  0  0
 30 24  1  0  0  0  0
 32 33  2  0  0  0  0
 32 34  1  0  0  0  0
 34 35  1  0  0  0  0
M  END
>  <Activity>
13.0

>  <minimizedAffinity>
-8.94313

>  <RFScoreVS_v2>
5.98527473115

$$$$
HIPS6990
 OpenBabel05252300073D

 35 38  0  0  0  0  0  0  0  0999 V2000
   68.5141   79.2312   89.2954 C   0  0  0  0  0  0  0  0  0  0  0  0
   67.6780   78.6794   88.3086 C   0  0  0  0  0  0  0  0  0  0  0  0
   66.8534   79.5035   87.5388 C   0  0  0  0  0  0  0  0  0  0  0  0
   66.8568   80.8852   87.7393 C   0  0  0  0  0  0  0  0  0  0  0  0
   67.6888   81.4557   88.7133 C   0  0  0  0  0  0  0  0  0  0  0  0
   68.5032   80.6234   89.4980 C   0  0  0  0  0  0  0  0  0  0  0  0
   69.6827   76.5345   91.7105 C   0  0  0  0  0  0  0  0  0  0  0  0
   71.0698   76.6963   91.6379 C   0  0  0  0  0  0  0  0  0  0  0  0
   71.6248   77.6689   90.8040 C   0  0  0  0  0  0  0  0  0  0  0  0
   70.7970   78.4942   90.0393 C   0  0  0  0  0  0  0  0  0  0  0  0
   69.3989   78.3620   90.1112 C   0  0  0  0  0  0  0  0  0  0  0  0
   68.8490   77.3876   90.9649 C   0  0  0  0  0  0  0  0  0  0  0  0
   69.1641   75.5499   92.5648 O   0  0  0  0  0  0  0  0  0  0  0  0
   69.5733   71.3773   92.0746 C   0  0  0  0  0  0  0  0  0  0  0  0
   69.0614   72.1539   91.0289 C   0  0  0  0  0  0  0  0  0  0  0  0
   68.9232   73.5372   91.1729 C   0  0  0  0  0  0  0  0  0  0  0  0
   69.2815   74.1636   92.3800 C   0  0  0  0  0  0  0  0  0  0  0  0
   69.8162   73.3920   93.4172 C   0  0  0  0  0  0  0  0  0  0  0  0
   69.9584   72.0085   93.2728 C   0  0  0  0  0  0  0  0  0  0  0  0
   70.7346   69.3635   91.1561 C   0  0  0  0  0  0  0  0  0  0  0  0
   69.6847   69.9922   91.8838 O   0  0  0  0  0  0  0  0  0  0  0  0
   67.6965   82.9479   88.9191 C   0  0  0  0  0  0  0  0  0  0  0  0
   68.3109   83.6097   87.8125 O   0  0  0  0  0  0  0  0  0  0  0  0
   69.4264   84.4603   87.8898 C   0  0  0  0  0  0  0  0  0  0  0  0
   70.6663   83.9569   87.4916 C   0  0  0  0  0  0  0  0  0  0  0  0
   71.8075   84.7565   87.5491 C   0  0  0  0  0  0  0  0  0  0  0  0
   71.7327   86.0761   88.0065 C   0  0  0  0  0  0  0  0  0  0  0  0
   72.8996   86.8426   87.9691 O   0  0  0  0  0  0  0  0  0  0  0  0
   70.4901   86.5932   88.4517 C   0  0  0  0  0  0  0  0  0  0  0  0
   69.3424   85.7853   88.3569 C   0  0  0  0  0  0  0  0  0  0  0  0
   73.7008   86.4617   87.6676 H   0  0  0  0  0  0  0  0  0  0  0  0
   70.3521   87.9378   89.0550 C   0  0  0  0  0  0  0  0  0  0  0  0
   71.1519   88.8643   88.7557 O   0  0  0  0  0  0  0  0  0  0  0  0
   69.3715   88.1695   90.0155 O   0  0  0  0  0  0  0  0  0  0  0  0
   68.7713   87.4879   90.2461 H   0  0  0  0  0  0  0  0  0  0  0  0
  1  2  2  0  0  0  0
  2  3  1  0  0  0  0
  3  4  2  0  0  0  0
  4  5  1  0  0  0  0
  5 22  1  0  0  0  0
  5  6  2  0  0  0  0
  6  1  1  0  0  0  0
  7  8  2  0  0  0  0
  8  9  1  0  0  0  0
  9 10  2  0  0  0  0
 10 11  1  0  0  0  0
 11  1  1  0  0  0  0
 11 12  2  0  0  0  0
 12  7  1  0  0  0  0
 13  7  1  0  0  0  0
 14 15  2  0  0  0  0
 15 16  1  0  0  0  0
 16 17  2  0  0  0  0
 17 13  1  0  0  0  0
 17 18  1  0  0  0  0
 18 19  2  0  0  0  0
 19 14  1  0  0  0  0
 20 21  1  0  0  0  0
 21 14  1  0  0  0  0
 22 23  1  0  0  0  0
 23 24  1  0  0  0  0
 24 25  2  0  0  0  0
 25 26  1  0  0  0  0
 26 27  2  0  0  0  0
 27 28  1  0  0  0  0
 27 29  1  0  0  0  0
 28 31  1  0  0  0  0
 29 32  1  0  0  0  0
 29 30  2  0  0  0  0
 30 24  1  0  0  0  0
 32 33  2  0  0  0  0
 32 34  1  0  0  0  0
 34 35  1  0  0  0  0
M  END
>  <Activity>
13.0

>  <minimizedAffinity>
-8.73035

>  <RFScoreVS_v2>
5.9754516867

$$$$
HIPS6990
 OpenBabel05252300073D

 35 38  0  0  0  0  0  0  0  0999 V2000
   68.0992   77.7192   89.1240 C   0  0  0  0  0  0  0  0  0  0  0  0
   67.4453   76.9686   88.1308 C   0  0  0  0  0  0  0  0  0  0  0  0
   66.7374   77.6098   87.1113 C   0  0  0  0  0  0  0  0  0  0  0  0
   66.6779   79.0040   87.0665 C   0  0  0  0  0  0  0  0  0  0  0  0
   67.3295   79.7705   88.0434 C   0  0  0  0  0  0  0  0  0  0  0  0
   68.0251   79.1234   89.0773 C   0  0  0  0  0  0  0  0  0  0  0  0
   69.0843   75.2181   91.8156 C   0  0  0  0  0  0  0  0  0  0  0  0
   70.3085   75.7480   92.2350 C   0  0  0  0  0  0  0  0  0  0  0  0
   70.8171   76.9057   91.6429 C   0  0  0  0  0  0  0  0  0  0  0  0
   70.1022   77.5487   90.6296 C   0  0  0  0  0  0  0  0  0  0  0  0
   68.8601   77.0443   90.2055 C   0  0  0  0  0  0  0  0  0  0  0  0
   68.3499   75.8845   90.8179 C   0  0  0  0  0  0  0  0  0  0  0  0
   68.6048   74.0566   92.4397 O   0  0  0  0  0  0  0  0  0  0  0  0
   70.8579   70.5896   93.2888 C   0  0  0  0  0  0  0  0  0  0  0  0
   70.7406   71.5968   94.2533 C   0  0  0  0  0  0  0  0  0  0  0  0
   69.9950   72.7493   93.9903 C   0  0  0  0  0  0  0  0  0  0  0  0
   69.3672   72.9181   92.7432 C   0  0  0  0  0  0  0  0  0  0  0  0
   69.4633   71.9013   91.7872 C   0  0  0  0  0  0  0  0  0  0  0  0
   70.2058   70.7462   92.0508 C   0  0  0  0  0  0  0  0  0  0  0  0
   71.1292   68.3182   94.2963 C   0  0  0  0  0  0  0  0  0  0  0  0
   71.6240   69.4561   93.5981 O   0  0  0  0  0  0  0  0  0  0  0  0
   67.2710   81.2746   87.9853 C   0  0  0  0  0  0  0  0  0  0  0  0
   67.9703   81.8528   89.0884 O   0  0  0  0  0  0  0  0  0  0  0  0
   69.2481   82.4338   89.0280 C   0  0  0  0  0  0  0  0  0  0  0  0
   70.2290   81.9579   89.9000 C   0  0  0  0  0  0  0  0  0  0  0  0
   71.5142   82.4994   89.8847 C   0  0  0  0  0  0  0  0  0  0  0  0
   71.8450   83.5286   88.9972 C   0  0  0  0  0  0  0  0  0  0  0  0
   73.1686   83.9738   88.9848 O   0  0  0  0  0  0  0  0  0  0  0  0
   70.8523   84.0518   88.1307 C   0  0  0  0  0  0  0  0  0  0  0  0
   69.5701   83.4732   88.1352 C   0  0  0  0  0  0  0  0  0  0  0  0
   73.7939   83.6010   89.5747 H   0  0  0  0  0  0  0  0  0  0  0  0
   71.0930   85.2141   87.2465 C   0  0  0  0  0  0  0  0  0  0  0  0
   71.9495   86.0877   87.5481 O   0  0  0  0  0  0  0  0  0  0  0  0
   70.3203   85.3859   86.1014 O   0  0  0  0  0  0  0  0  0  0  0  0
   69.6803   84.7429   85.8672 H   0  0  0  0  0  0  0  0  0  0  0  0
  1  2  2  0  0  0  0
  2  3  1  0  0  0  0
  3  4  2  0  0  0  0
  4  5  1  0  0  0  0
  5 22  1  0  0  0  0
  5  6  2  0  0  0  0
  6  1  1  0  0  0  0
  7  8  2  0  0  0  0
  8  9  1  0  0  0  0
  9 10  2  0  0  0  0
 10 11  1  0  0  0  0
 11  1  1  0  0  0  0
 11 12  2  0  0  0  0
 12  7  1  0  0  0  0
 13  7  1  0  0  0  0
 14 15  2  0  0  0  0
 15 16  1  0  0  0  0
 16 17  2  0  0  0  0
 17 13  1  0  0  0  0
 17 18  1  0  0  0  0
 18 19  2  0  0  0  0
 19 14  1  0  0  0  0
 20 21  1  0  0  0  0
 21 14  1  0  0  0  0
 22 23  1  0  0  0  0
 23 24  1  0  0  0  0
 24 25  2  0  0  0  0
 25 26  1  0  0  0  0
 26 27  2  0  0  0  0
 27 28  1  0  0  0  0
 27 29  1  0  0  0  0
 28 31  1  0  0  0  0
 29 32  1  0  0  0  0
 29 30  2  0  0  0  0
 30 24  1  0  0  0  0
 32 33  2  0  0  0  0
 32 34  1  0  0  0  0
 34 35  1  0  0  0  0
M  END
>  <Activity>
13.0

>  <minimizedAffinity>
-8.62988

>  <RFScoreVS_v2>
5.98164735268

$$$$
HIPS6990
 OpenBabel05252300073D

 35 38  0  0  0  0  0  0  0  0999 V2000
   67.3021   77.6710   88.1376 C   0  0  0  0  0  0  0  0  0  0  0  0
   67.4813   77.8217   86.7510 C   0  0  0  0  0  0  0  0  0  0  0  0
   67.3715   76.7193   85.8999 C   0  0  0  0  0  0  0  0  0  0  0  0
   67.0766   75.4573   86.4192 C   0  0  0  0  0  0  0  0  0  0  0  0
   66.8870   75.2876   87.7982 C   0  0  0  0  0  0  0  0  0  0  0  0
   67.0159   76.3938   88.6534 C   0  0  0  0  0  0  0  0  0  0  0  0
   68.7777   80.4886   90.2243 C   0  0  0  0  0  0  0  0  0  0  0  0
   67.6170   81.0683   90.7461 C   0  0  0  0  0  0  0  0  0  0  0  0
   66.3613   80.5542   90.4168 C   0  0  0  0  0  0  0  0  0  0  0  0
   66.2547   79.4504   89.5675 C   0  0  0  0  0  0  0  0  0  0  0  0
   67.4093   78.8398   89.0466 C   0  0  0  0  0  0  0  0  0  0  0  0
   68.6708   79.3573   89.3952 C   0  0  0  0  0  0  0  0  0  0  0  0
   70.0206   81.0309   90.5838 O   0  0  0  0  0  0  0  0  0  0  0  0
   72.1327   84.0709   88.5553 C   0  0  0  0  0  0  0  0  0  0  0  0
   70.8049   83.7963   88.2090 C   0  0  0  0  0  0  0  0  0  0  0  0
   70.0897   82.7960   88.8733 C   0  0  0  0  0  0  0  0  0  0  0  0
   70.7038   82.0402   89.8879 C   0  0  0  0  0  0  0  0  0  0  0  0
   72.0232   82.3301   90.2518 C   0  0  0  0  0  0  0  0  0  0  0  0
   72.7384   83.3332   89.5904 C   0  0  0  0  0  0  0  0  0  0  0  0
   72.4364   86.4527   87.8603 C   0  0  0  0  0  0  0  0  0  0  0  0
   72.8101   85.0788   87.8533 O   0  0  0  0  0  0  0  0  0  0  0  0
   66.5591   73.9260   88.3528 C   0  0  0  0  0  0  0  0  0  0  0  0
   67.6895   73.3645   89.0215 O   0  0  0  0  0  0  0  0  0  0  0  0
   67.9151   73.3987   90.4078 C   0  0  0  0  0  0  0  0  0  0  0  0
   67.1991   72.5105   91.2127 C   0  0  0  0  0  0  0  0  0  0  0  0
   67.3819   72.5021   92.5954 C   0  0  0  0  0  0  0  0  0  0  0  0
   68.2842   73.3820   93.2018 C   0  0  0  0  0  0  0  0  0  0  0  0
   68.4716   73.2700   94.5813 O   0  0  0  0  0  0  0  0  0  0  0  0
   68.9920   74.3176   92.4058 C   0  0  0  0  0  0  0  0  0  0  0  0
   68.8211   74.2917   91.0097 C   0  0  0  0  0  0  0  0  0  0  0  0
   67.9830   72.6377   95.0706 H   0  0  0  0  0  0  0  0  0  0  0  0
   69.8756   75.3548   92.9841 C   0  0  0  0  0  0  0  0  0  0  0  0
   69.6961   75.7733   94.1589 O   0  0  0  0  0  0  0  0  0  0  0  0
   70.8759   75.9274   92.2034 O   0  0  0  0  0  0  0  0  0  0  0  0
   71.0185   75.6242   91.3284 H   0  0  0  0  0  0  0  0  0  0  0  0
  1  2  2  0  0  0  0
  2  3  1  0  0  0  0
  3  4  2  0  0  0  0
  4  5  1  0  0  0  0
  5 22  1  0  0  0  0
  5  6  2  0  0  0  0
  6  1  1  0  0  0  0
  7  8  2  0  0  0  0
  8  9  1  0  0  0  0
  9 10  2  0  0  0  0
 10 11  1  0  0  0  0
 11  1  1  0  0  0  0
 11 12  2  0  0  0  0
 12  7  1  0  0  0  0
 13  7  1  0  0  0  0
 14 15  2  0  0  0  0
 15 16  1  0  0  0  0
 16 17  2  0  0  0  0
 17 13  1  0  0  0  0
 17 18  1  0  0  0  0
 18 19  2  0  0  0  0
 19 14  1  0  0  0  0
 20 21  1  0  0  0  0
 21 14  1  0  0  0  0
 22 23  1  0  0  0  0
 23 24  1  0  0  0  0
 24 25  2  0  0  0  0
 25 26  1  0  0  0  0
 26 27  2  0  0  0  0
 27 28  1  0  0  0  0
 27 29  1  0  0  0  0
 28 31  1  0  0  0  0
 29 32  1  0  0  0  0
 29 30  2  0  0  0  0
 30 24  1  0  0  0  0
 32 33  2  0  0  0  0
 32 34  1  0  0  0  0
 34 35  1  0  0  0  0
M  END
>  <Activity>
13.0

>  <minimizedAffinity>
-8.59579

>  <RFScoreVS_v2>
6.02012038681

$$$$
HIPS6990
 OpenBabel05252300073D

 35 38  0  0  0  0  0  0  0  0999 V2000
   68.3627   78.1051   89.0146 C   0  0  0  0  0  0  0  0  0  0  0  0
   67.6604   77.1591   88.2470 C   0  0  0  0  0  0  0  0  0  0  0  0
   66.7431   77.5747   87.2787 C   0  0  0  0  0  0  0  0  0  0  0  0
   66.5198   78.9355   87.0605 C   0  0  0  0  0  0  0  0  0  0  0  0
   67.2155   79.8946   87.8105 C   0  0  0  0  0  0  0  0  0  0  0  0
   68.1235   79.4741   88.7956 C   0  0  0  0  0  0  0  0  0  0  0  0
   69.9380   76.2424   91.9333 C   0  0  0  0  0  0  0  0  0  0  0  0
   71.2089   76.8248   91.9650 C   0  0  0  0  0  0  0  0  0  0  0  0
   71.5573   77.8107   91.0397 C   0  0  0  0  0  0  0  0  0  0  0  0
   70.6349   78.2286   90.0776 C   0  0  0  0  0  0  0  0  0  0  0  0
   69.3448   77.6703   90.0394 C   0  0  0  0  0  0  0  0  0  0  0  0
   68.9991   76.6869   90.9849 C   0  0  0  0  0  0  0  0  0  0  0  0
   69.6247   75.2592   92.8840 O   0  0  0  0  0  0  0  0  0  0  0  0
   69.6552   71.1003   92.1631 C   0  0  0  0  0  0  0  0  0  0  0  0
   70.0919   71.5958   93.3968 C   0  0  0  0  0  0  0  0  0  0  0  0
   70.0845   72.9696   93.6537 C   0  0  0  0  0  0  0  0  0  0  0  0
   69.6535   73.8732   92.6659 C   0  0  0  0  0  0  0  0  0  0  0  0
   69.1936   73.3776   91.4411 C   0  0  0  0  0  0  0  0  0  0  0  0
   69.1971   72.0031   91.1845 C   0  0  0  0  0  0  0  0  0  0  0  0
   70.7894   68.8766   92.2926 C   0  0  0  0  0  0  0  0  0  0  0  0
   69.6898   69.7141   91.9512 O   0  0  0  0  0  0  0  0  0  0  0  0
   66.9787   81.3618   87.5647 C   0  0  0  0  0  0  0  0  0  0  0  0
   68.1428   81.9783   87.0125 O   0  0  0  0  0  0  0  0  0  0  0  0
   68.6555   83.2317   87.3869 C   0  0  0  0  0  0  0  0  0  0  0  0
   67.7501   84.2648   87.6364 C   0  0  0  0  0  0  0  0  0  0  0  0
   68.2035   85.5298   88.0095 C   0  0  0  0  0  0  0  0  0  0  0  0
   69.5719   85.7882   88.1405 C   0  0  0  0  0  0  0  0  0  0  0  0
   69.9527   87.0552   88.5879 O   0  0  0  0  0  0  0  0  0  0  0  0
   70.5083   84.7631   87.8542 C   0  0  0  0  0  0  0  0  0  0  0  0
   70.0347   83.4837   87.5108 C   0  0  0  0  0  0  0  0  0  0  0  0
   69.3012   87.7046   88.7658 H   0  0  0  0  0  0  0  0  0  0  0  0
   71.9710   84.9904   87.8586 C   0  0  0  0  0  0  0  0  0  0  0  0
   72.4441   86.1488   87.7116 O   0  0  0  0  0  0  0  0  0  0  0  0
   72.8405   83.9079   87.9578 O   0  0  0  0  0  0  0  0  0  0  0  0
   72.5000   83.0419   88.0673 H   0  0  0  0  0  0  0  0  0  0  0  0
  1  2  2  0  0  0  0
  2  3  1  0  0  0  0
  3  4  2  0  0  0  0
  4  5  1  0  0  0  0
  5 22  1  0  0  0  0
  5  6  2  0  0  0  0
  6  1  1  0  0  0  0
  7  8  2  0  0  0  0
  8  9  1  0  0  0  0
  9 10  2  0  0  0  0
 10 11  1  0  0  0  0
 11  1  1  0  0  0  0
 11 12  2  0  0  0  0
 12  7  1  0  0  0  0
 13  7  1  0  0  0  0
 14 15  2  0  0  0  0
 15 16  1  0  0  0  0
 16 17  2  0  0  0  0
 17 13  1  0  0  0  0
 17 18  1  0  0  0  0
 18 19  2  0  0  0  0
 19 14  1  0  0  0  0
 20 21  1  0  0  0  0
 21 14  1  0  0  0  0
 22 23  1  0  0  0  0
 23 24  1  0  0  0  0
 24 25  2  0  0  0  0
 25 26  1  0  0  0  0
 26 27  2  0  0  0  0
 27 28  1  0  0  0  0
 27 29  1  0  0  0  0
 28 31  1  0  0  0  0
 29 32  1  0  0  0  0
 29 30  2  0  0  0  0
 30 24  1  0  0  0  0
 32 33  2  0  0  0  0
 32 34  1  0  0  0  0
 34 35  1  0  0  0  0
M  END
>  <Activity>
13.0

>  <minimizedAffinity>
-8.58694

>  <RFScoreVS_v2>
6.00138885319

$$$$
HIPS6990
 OpenBabel05252300073D

 35 38  0  0  0  0  0  0  0  0999 V2000
   68.6140   78.7342   89.1651 C   0  0  0  0  0  0  0  0  0  0  0  0
   67.8134   77.8297   88.4452 C   0  0  0  0  0  0  0  0  0  0  0  0
   66.7565   78.2927   87.6577 C   0  0  0  0  0  0  0  0  0  0  0  0
   66.4892   79.6606   87.5741 C   0  0  0  0  0  0  0  0  0  0  0  0
   67.2806   80.5792   88.2785 C   0  0  0  0  0  0  0  0  0  0  0  0
   68.3309   80.1099   89.0836 C   0  0  0  0  0  0  0  0  0  0  0  0
   70.7557   76.5141   91.3910 C   0  0  0  0  0  0  0  0  0  0  0  0
   71.8903   77.3155   91.5521 C   0  0  0  0  0  0  0  0  0  0  0  0
   71.9651   78.5660   90.9356 C   0  0  0  0  0  0  0  0  0  0  0  0
   70.9023   79.0302   90.1571 C   0  0  0  0  0  0  0  0  0  0  0  0
   69.7438   78.2494   89.9972 C   0  0  0  0  0  0  0  0  0  0  0  0
   69.6728   76.9962   90.6337 C   0  0  0  0  0  0  0  0  0  0  0  0
   70.7168   75.2666   92.0317 O   0  0  0  0  0  0  0  0  0  0  0  0
   67.6939   73.9823   94.6831 C   0  0  0  0  0  0  0  0  0  0  0  0
   68.0382   73.1883   93.5834 C   0  0  0  0  0  0  0  0  0  0  0  0
   69.0396   73.5964   92.6980 C   0  0  0  0  0  0  0  0  0  0  0  0
   69.7020   74.8216   92.8930 C   0  0  0  0  0  0  0  0  0  0  0  0
   69.3759   75.6047   94.0055 C   0  0  0  0  0  0  0  0  0  0  0  0
   68.3768   75.1954   94.8939 C   0  0  0  0  0  0  0  0  0  0  0  0
   65.5024   74.2753   95.8492 C   0  0  0  0  0  0  0  0  0  0  0  0
   66.6766   73.5327   95.5378 O   0  0  0  0  0  0  0  0  0  0  0  0
   66.9949   82.0548   88.1773 C   0  0  0  0  0  0  0  0  0  0  0  0
   67.7852   82.6556   87.1504 O   0  0  0  0  0  0  0  0  0  0  0  0
   68.9200   83.4569   87.3603 C   0  0  0  0  0  0  0  0  0  0  0  0
   69.0380   84.6363   86.6224 C   0  0  0  0  0  0  0  0  0  0  0  0
   70.1445   85.4688   86.7890 C   0  0  0  0  0  0  0  0  0  0  0  0
   71.1562   85.1390   87.6967 C   0  0  0  0  0  0  0  0  0  0  0  0
   72.1985   86.0530   87.8664 O   0  0  0  0  0  0  0  0  0  0  0  0
   71.0736   83.9267   88.4269 C   0  0  0  0  0  0  0  0  0  0  0  0
   69.9359   83.1139   88.2720 C   0  0  0  0  0  0  0  0  0  0  0  0
   72.2153   86.8432   87.3631 H   0  0  0  0  0  0  0  0  0  0  0  0
   72.1562   83.4534   89.3185 C   0  0  0  0  0  0  0  0  0  0  0  0
   71.9520   82.5233   90.1436 O   0  0  0  0  0  0  0  0  0  0  0  0
   73.3970   84.0841   89.2978 O   0  0  0  0  0  0  0  0  0  0  0  0
   73.5602   84.7769   88.6885 H   0  0  0  0  0  0  0  0  0  0  0  0
  1  2  2  0  0  0  0
  2  3  1  0  0  0  0
  3  4  2  0  0  0  0
  4  5  1  0  0  0  0
  5 22  1  0  0  0  0
  5  6  2  0  0  0  0
  6  1  1  0  0  0  0
  7  8  2  0  0  0  0
  8  9  1  0  0  0  0
  9 10  2  0  0  0  0
 10 11  1  0  0  0  0
 11  1  1  0  0  0  0
 11 12  2  0  0  0  0
 12  7  1  0  0  0  0
 13  7  1  0  0  0  0
 14 15  2  0  0  0  0
 15 16  1  0  0  0  0
 16 17  2  0  0  0  0
 17 13  1  0  0  0  0
 17 18  1  0  0  0  0
 18 19  2  0  0  0  0
 19 14  1  0  0  0  0
 20 21  1  0  0  0  0
 21 14  1  0  0  0  0
 22 23  1  0  0  0  0
 23 24  1  0  0  0  0
 24 25  2  0  0  0  0
 25 26  1  0  0  0  0
 26 27  2  0  0  0  0
 27 28  1  0  0  0  0
 27 29  1  0  0  0  0
 28 31  1  0  0  0  0
 29 32  1  0  0  0  0
 29 30  2  0  0  0  0
 30 24  1  0  0  0  0
 32 33  2  0  0  0  0
 32 34  1  0  0  0  0
 34 35  1  0  0  0  0
M  END
>  <Activity>
13.0

>  <minimizedAffinity>
-8.55427

>  <RFScoreVS_v2>
6.00271242052

$$$$
HIPS6990
 OpenBabel05252300073D

 35 38  0  0  0  0  0  0  0  0999 V2000
   67.0136   77.6307   87.8672 C   0  0  0  0  0  0  0  0  0  0  0  0
   67.0401   77.4042   86.4796 C   0  0  0  0  0  0  0  0  0  0  0  0
   67.0555   76.1012   85.9760 C   0  0  0  0  0  0  0  0  0  0  0  0
   67.0387   75.0107   86.8477 C   0  0  0  0  0  0  0  0  0  0  0  0
   67.0047   75.2155   88.2346 C   0  0  0  0  0  0  0  0  0  0  0  0
   67.0077   76.5261   88.7386 C   0  0  0  0  0  0  0  0  0  0  0  0
   67.1604   81.4268   88.0620 C   0  0  0  0  0  0  0  0  0  0  0  0
   66.9171   81.6323   89.4236 C   0  0  0  0  0  0  0  0  0  0  0  0
   66.6980   80.5466   90.2737 C   0  0  0  0  0  0  0  0  0  0  0  0
   66.7269   79.2437   89.7710 C   0  0  0  0  0  0  0  0  0  0  0  0
   66.9888   79.0127   88.4088 C   0  0  0  0  0  0  0  0  0  0  0  0
   67.2216   80.1131   87.5630 C   0  0  0  0  0  0  0  0  0  0  0  0
   67.3816   82.5437   87.2422 O   0  0  0  0  0  0  0  0  0  0  0  0
   70.2516   85.5770   87.8579 C   0  0  0  0  0  0  0  0  0  0  0  0
   70.6686   84.2620   87.6230 C   0  0  0  0  0  0  0  0  0  0  0  0
   69.7318   83.2463   87.4130 C   0  0  0  0  0  0  0  0  0  0  0  0
   68.3553   83.5321   87.4531 C   0  0  0  0  0  0  0  0  0  0  0  0
   67.9376   84.8505   87.6635 C   0  0  0  0  0  0  0  0  0  0  0  0
   68.8741   85.8681   87.8700 C   0  0  0  0  0  0  0  0  0  0  0  0
   72.6326   86.3273   87.9854 C   0  0  0  0  0  0  0  0  0  0  0  0
   71.2304   86.5589   88.0710 O   0  0  0  0  0  0  0  0  0  0  0  0
   66.9766   74.0359   89.1710 C   0  0  0  0  0  0  0  0  0  0  0  0
   68.2307   73.8874   89.8382 O   0  0  0  0  0  0  0  0  0  0  0  0
   68.5229   74.3459   91.1337 C   0  0  0  0  0  0  0  0  0  0  0  0
   69.5940   75.2271   91.2935 C   0  0  0  0  0  0  0  0  0  0  0  0
   69.9300   75.7125   92.5571 C   0  0  0  0  0  0  0  0  0  0  0  0
   69.2020   75.3264   93.6872 C   0  0  0  0  0  0  0  0  0  0  0  0
   69.5464   75.9068   94.9100 O   0  0  0  0  0  0  0  0  0  0  0  0
   68.1354   74.4025   93.5509 C   0  0  0  0  0  0  0  0  0  0  0  0
   67.7881   73.9473   92.2660 C   0  0  0  0  0  0  0  0  0  0  0  0
   70.2590   76.5134   94.9564 H   0  0  0  0  0  0  0  0  0  0  0  0
   67.3935   73.8589   94.7107 C   0  0  0  0  0  0  0  0  0  0  0  0
   68.0068   73.3850   95.7041 O   0  0  0  0  0  0  0  0  0  0  0  0
   66.0028   73.8054   94.6809 O   0  0  0  0  0  0  0  0  0  0  0  0
   65.5362   74.1546   93.9473 H   0  0  0  0  0  0  0  0  0  0  0  0
  1  2  2  0  0  0  0
  2  3  1  0  0  0  0
  3  4  2  0  0  0  0
  4  5  1  0  0  0  0
  5 22  1  0  0  0  0
  5  6  2  0  0  0  0
  6  1  1  0  0  0  0
  7  8  2  0  0  0  0
  8  9  1  0  0  0  0
  9 10  2  0  0  0  0
 10 11  1  0  0  0  0
 11  1  1  0  0  0  0
 11 12  2  0  0  0  0
 12  7  1  0  0  0  0
 13  7  1  0  0  0  0
 14 15  2  0  0  0  0
 15 16  1  0  0  0  0
 16 17  2  0  0  0  0
 17 13  1  0  0  0  0
 17 18  1  0  0  0  0
 18 19  2  0  0  0  0
 19 14  1  0  0  0  0
 20 21  1  0  0  0  0
 21 14  1  0  0  0  0
 22 23  1  0  0  0  0
 23 24  1  0  0  0  0
 24 25  2  0  0  0  0
 25 26  1  0  0  0  0
 26 27  2  0  0  0  0
 27 28  1  0  0  0  0
 27 29  1  0  0  0  0
 28 31  1  0  0  0  0
 29 32  1  0  0  0  0
 29 30  2  0  0  0  0
 30 24  1  0  0  0  0
 32 33  2  0  0  0  0
 32 34  1  0  0  0  0
 34 35  1  0  0  0  0
M  END
>  <Activity>
13.0

>  <minimizedAffinity>
-8.48779

>  <RFScoreVS_v2>
6.05147728912

$$$$
HIPS6985
 OpenBabel05252300073D

 32 35  0  0  0  0  0  0  0  0999 V2000
   69.9123   78.7510   90.2497 C   0  0  0  0  0  0  0  0  0  0  0  0
   71.2464   78.7201   90.6811 C   0  0  0  0  0  0  0  0  0  0  0  0
   71.7695   77.5726   91.2294 C   0  0  0  0  0  0  0  0  0  0  0  0
   71.0010   76.4345   91.3668 C   0  0  0  0  0  0  0  0  0  0  0  0
   69.6783   76.4317   90.9504 C   0  0  0  0  0  0  0  0  0  0  0  0
   69.1939   77.5959   90.4090 C   0  0  0  0  0  0  0  0  0  0  0  0
   68.8764   75.2227   91.1005 C   0  0  0  0  0  0  0  0  0  0  0  0
   68.3462   74.5525   90.0102 C   0  0  0  0  0  0  0  0  0  0  0  0
   67.5899   73.4083   90.1821 C   0  0  0  0  0  0  0  0  0  0  0  0
   67.3236   72.8752   91.4353 C   0  0  0  0  0  0  0  0  0  0  0  0
   67.8445   73.5316   92.5249 C   0  0  0  0  0  0  0  0  0  0  0  0
   68.6102   74.6911   92.3403 C   0  0  0  0  0  0  0  0  0  0  0  0
   67.6264   73.0694   93.7859 O   0  0  0  0  0  0  0  0  0  0  0  0
   66.7363   73.5699   94.7137 C   0  0  0  0  0  0  0  0  0  0  0  0
   67.4562   73.9628   95.9970 C   0  0  0  0  0  0  0  0  0  0  0  0
   66.4396   74.8300   96.6890 C   0  0  0  0  0  0  0  0  0  0  0  0
   65.5154   75.3593   95.6302 C   0  0  0  0  0  0  0  0  0  0  0  0
   66.1600   74.9247   94.3120 C   0  0  0  0  0  0  0  0  0  0  0  0
   69.3475   80.0145   89.6801 C   0  0  0  0  0  0  0  0  0  0  0  0
   69.9940   81.1364   90.0387 O   0  0  0  0  0  0  0  0  0  0  0  0
   70.4882   84.1625   88.0925 C   0  0  0  0  0  0  0  0  0  0  0  0
   69.9215   83.0588   88.6567 C   0  0  0  0  0  0  0  0  0  0  0  0
   70.6234   82.1949   89.5317 C   0  0  0  0  0  0  0  0  0  0  0  0
   71.9310   82.4900   89.8176 C   0  0  0  0  0  0  0  0  0  0  0  0
   72.5121   83.6011   89.2539 C   0  0  0  0  0  0  0  0  0  0  0  0
   71.8039   84.4364   88.3969 C   0  0  0  0  0  0  0  0  0  0  0  0
   72.4391   85.5444   87.8557 O   0  0  0  0  0  0  0  0  0  0  0  0
   73.3341   85.7219   88.0689 H   0  0  0  0  0  0  0  0  0  0  0  0
   68.7849   85.6999   87.5326 O   0  0  0  0  0  0  0  0  0  0  0  0
   69.7908   85.0634   87.1935 C   0  0  0  0  0  0  0  0  0  0  0  0
   70.2714   85.2154   85.9064 O   0  0  0  0  0  0  0  0  0  0  0  0
   71.0317   84.7419   85.6312 H   0  0  0  0  0  0  0  0  0  0  0  0
  1  2  2  0  0  0  0
  2  3  1  0  0  0  0
  3  4  2  0  0  0  0
  4  5  1  0  0  0  0
  5  7  1  0  0  0  0
  5  6  2  0  0  0  0
  6  1  1  0  0  0  0
  7  8  2  0  0  0  0
  8  9  1  0  0  0  0
  9 10  2  0  0  0  0
 10 11  1  0  0  0  0
 11 13  1  0  0  0  0
 11 12  2  0  0  0  0
 12  7  1  0  0  0  0
 13 14  1  0  0  0  0
 14 15  1  0  0  0  0
 15 16  1  0  0  0  0
 16 17  1  0  0  0  0
 17 18  1  0  0  0  0
 18 14  1  0  0  0  0
 19  1  1  0  0  0  0
 20 19  1  0  0  0  0
 21 22  2  0  0  0  0
 22 23  1  0  0  0  0
 23 20  1  0  0  0  0
 23 24  2  0  0  0  0
 24 25  1  0  0  0  0
 25 26  2  0  0  0  0
 26 27  1  0  0  0  0
 26 21  1  0  0  0  0
 27 28  1  0  0  0  0
 29 30  2  0  0  0  0
 30 31  1  0  0  0  0
 30 21  1  0  0  0  0
 31 32  1  0  0  0  0
M  END
>  <Activity>
13.3

>  <minimizedAffinity>
-9.30997

>  <RFScoreVS_v2>
5.99310030626

$$$$
HIPS6985
 OpenBabel05252300073D

 32 35  0  0  0  0  0  0  0  0999 V2000
   69.4591   79.1527   89.8403 C   0  0  0  0  0  0  0  0  0  0  0  0
   68.3820   79.8117   89.2299 C   0  0  0  0  0  0  0  0  0  0  0  0
   67.2338   79.1208   88.9211 C   0  0  0  0  0  0  0  0  0  0  0  0
   67.1153   77.7748   89.2020 C   0  0  0  0  0  0  0  0  0  0  0  0
   68.1618   77.0934   89.8049 C   0  0  0  0  0  0  0  0  0  0  0  0
   69.2899   77.8180   90.0969 C   0  0  0  0  0  0  0  0  0  0  0  0
   68.0245   75.6711   90.0970 C   0  0  0  0  0  0  0  0  0  0  0  0
   67.5291   74.7739   89.1650 C   0  0  0  0  0  0  0  0  0  0  0  0
   67.4101   73.4308   89.4692 C   0  0  0  0  0  0  0  0  0  0  0  0
   67.7740   72.9138   90.7045 C   0  0  0  0  0  0  0  0  0  0  0  0
   68.2670   73.7945   91.6377 C   0  0  0  0  0  0  0  0  0  0  0  0
   68.3838   75.1547   91.3197 C   0  0  0  0  0  0  0  0  0  0  0  0
   68.6448   73.3625   92.8713 O   0  0  0  0  0  0  0  0  0  0  0  0
   67.8924   73.3842   94.0276 C   0  0  0  0  0  0  0  0  0  0  0  0
   68.2899   74.5602   94.9098 C   0  0  0  0  0  0  0  0  0  0  0  0
   67.1346   74.6534   95.8695 C   0  0  0  0  0  0  0  0  0  0  0  0
   65.9533   74.0077   95.2039 C   0  0  0  0  0  0  0  0  0  0  0  0
   66.4275   73.7299   93.7756 C   0  0  0  0  0  0  0  0  0  0  0  0
   70.7132   79.9101   90.1461 C   0  0  0  0  0  0  0  0  0  0  0  0
   70.5864   81.2475   90.1269 O   0  0  0  0  0  0  0  0  0  0  0  0
   70.6753   84.2578   88.0973 C   0  0  0  0  0  0  0  0  0  0  0  0
   70.2481   83.1242   88.7217 C   0  0  0  0  0  0  0  0  0  0  0  0
   71.0841   82.3426   89.5554 C   0  0  0  0  0  0  0  0  0  0  0  0
   72.3795   82.7526   89.7359 C   0  0  0  0  0  0  0  0  0  0  0  0
   72.8204   83.8948   89.1107 C   0  0  0  0  0  0  0  0  0  0  0  0
   71.9819   84.6477   88.2960 C   0  0  0  0  0  0  0  0  0  0  0  0
   72.4786   85.7918   87.6891 O   0  0  0  0  0  0  0  0  0  0  0  0
   73.3686   86.0485   87.8306 H   0  0  0  0  0  0  0  0  0  0  0  0
   68.7709   85.5708   87.6209 O   0  0  0  0  0  0  0  0  0  0  0  0
   69.8389   85.0759   87.2386 C   0  0  0  0  0  0  0  0  0  0  0  0
   70.2540   85.3107   85.9412 O   0  0  0  0  0  0  0  0  0  0  0  0
   71.0597   84.9445   85.6336 H   0  0  0  0  0  0  0  0  0  0  0  0
  1  2  2  0  0  0  0
  2  3  1  0  0  0  0
  3  4  2  0  0  0  0
  4  5  1  0  0  0  0
  5  7  1  0  0  0  0
  5  6  2  0  0  0  0
  6  1  1  0  0  0  0
  7  8  2  0  0  0  0
  8  9  1  0  0  0  0
  9 10  2  0  0  0  0
 10 11  1  0  0  0  0
 11 13  1  0  0  0  0
 11 12  2  0  0  0  0
 12  7  1  0  0  0  0
 13 14  1  0  0  0  0
 14 15  1  0  0  0  0
 15 16  1  0  0  0  0
 16 17  1  0  0  0  0
 17 18  1  0  0  0  0
 18 14  1  0  0  0  0
 19  1  1  0  0  0  0
 20 19  1  0  0  0  0
 21 22  2  0  0  0  0
 22 23  1  0  0  0  0
 23 20  1  0  0  0  0
 23 24  2  0  0  0  0
 24 25  1  0  0  0  0
 25 26  2  0  0  0  0
 26 27  1  0  0  0  0
 26 21  1  0  0  0  0
 27 28  1  0  0  0  0
 29 30  2  0  0  0  0
 30 31  1  0  0  0  0
 30 21  1  0  0  0  0
 31 32  1  0  0  0  0
M  END
>  <Activity>
13.3

>  <minimizedAffinity>
-9.15399

>  <RFScoreVS_v2>
5.97129162279

$$$$
HIPS6985
 OpenBabel05252300073D

 32 35  0  0  0  0  0  0  0  0999 V2000
   69.9132   76.6530   91.9539 C   0  0  0  0  0  0  0  0  0  0  0  0
   71.2912   76.8317   91.7634 C   0  0  0  0  0  0  0  0  0  0  0  0
   71.7493   77.7187   90.8177 C   0  0  0  0  0  0  0  0  0  0  0  0
   70.8719   78.4475   90.0407 C   0  0  0  0  0  0  0  0  0  0  0  0
   69.5033   78.2943   90.2037 C   0  0  0  0  0  0  0  0  0  0  0  0
   69.0866   77.3997   91.1572 C   0  0  0  0  0  0  0  0  0  0  0  0
   68.5862   79.0704   89.3768 C   0  0  0  0  0  0  0  0  0  0  0  0
   67.5767   78.4731   88.6397 C   0  0  0  0  0  0  0  0  0  0  0  0
   66.7215   79.2336   87.8647 C   0  0  0  0  0  0  0  0  0  0  0  0
   66.8237   80.6151   87.7825 C   0  0  0  0  0  0  0  0  0  0  0  0
   67.8217   81.2192   88.5097 C   0  0  0  0  0  0  0  0  0  0  0  0
   68.6841   80.4393   89.2926 C   0  0  0  0  0  0  0  0  0  0  0  0
   67.9849   82.5696   88.4800 O   0  0  0  0  0  0  0  0  0  0  0  0
   68.6171   83.3105   87.5027 C   0  0  0  0  0  0  0  0  0  0  0  0
   68.2883   84.7904   87.6481 C   0  0  0  0  0  0  0  0  0  0  0  0
   69.3466   85.4445   86.8015 C   0  0  0  0  0  0  0  0  0  0  0  0
   70.4954   84.4818   86.7072 C   0  0  0  0  0  0  0  0  0  0  0  0
   70.1317   83.3603   87.6830 C   0  0  0  0  0  0  0  0  0  0  0  0
   69.4280   75.6643   92.9672 C   0  0  0  0  0  0  0  0  0  0  0  0
   70.1226   74.5153   93.0157 O   0  0  0  0  0  0  0  0  0  0  0  0
   70.4632   70.9344   93.5165 C   0  0  0  0  0  0  0  0  0  0  0  0
   70.5261   72.2835   93.6994 C   0  0  0  0  0  0  0  0  0  0  0  0
   70.0191   73.2126   92.7590 C   0  0  0  0  0  0  0  0  0  0  0  0
   69.4413   72.7233   91.6164 C   0  0  0  0  0  0  0  0  0  0  0  0
   69.3726   71.3641   91.4222 C   0  0  0  0  0  0  0  0  0  0  0  0
   69.8769   70.4693   92.3595 C   0  0  0  0  0  0  0  0  0  0  0  0
   69.7814   69.1075   92.1131 O   0  0  0  0  0  0  0  0  0  0  0  0
   69.3810   68.8013   91.3233 H   0  0  0  0  0  0  0  0  0  0  0  0
   70.5673   69.8870   95.6308 O   0  0  0  0  0  0  0  0  0  0  0  0
   70.9748   69.9619   94.4646 C   0  0  0  0  0  0  0  0  0  0  0  0
   71.9573   69.0845   94.0457 O   0  0  0  0  0  0  0  0  0  0  0  0
   72.2785   69.1258   93.1665 H   0  0  0  0  0  0  0  0  0  0  0  0
  1  2  2  0  0  0  0
  2  3  1  0  0  0  0
  3  4  2  0  0  0  0
  4  5  1  0  0  0  0
  5  7  1  0  0  0  0
  5  6  2  0  0  0  0
  6  1  1  0  0  0  0
  7  8  2  0  0  0  0
  8  9  1  0  0  0  0
  9 10  2  0  0  0  0
 10 11  1  0  0  0  0
 11 13  1  0  0  0  0
 11 12  2  0  0  0  0
 12  7  1  0  0  0  0
 13 14  1  0  0  0  0
 14 15  1  0  0  0  0
 15 16  1  0  0  0  0
 16 17  1  0  0  0  0
 17 18  1  0  0  0  0
 18 14  1  0  0  0  0
 19  1  1  0  0  0  0
 20 19  1  0  0  0  0
 21 22  2  0  0  0  0
 22 23  1  0  0  0  0
 23 20  1  0  0  0  0
 23 24  2  0  0  0  0
 24 25  1  0  0  0  0
 25 26  2  0  0  0  0
 26 27  1  0  0  0  0
 26 21  1  0  0  0  0
 27 28  1  0  0  0  0
 29 30  2  0  0  0  0
 30 31  1  0  0  0  0
 30 21  1  0  0  0  0
 31 32  1  0  0  0  0
M  END
>  <Activity>
13.3

>  <minimizedAffinity>
-9.09839

>  <RFScoreVS_v2>
6.01185700752

$$$$
HIPS6985
 OpenBabel05252300073D

 32 35  0  0  0  0  0  0  0  0999 V2000
   69.7053   78.8642   90.3627 C   0  0  0  0  0  0  0  0  0  0  0  0
   68.3886   79.1683   90.7383 C   0  0  0  0  0  0  0  0  0  0  0  0
   67.9494   80.4713   90.7260 C   0  0  0  0  0  0  0  0  0  0  0  0
   68.7862   81.5014   90.3473 C   0  0  0  0  0  0  0  0  0  0  0  0
   70.0938   81.2349   89.9704 C   0  0  0  0  0  0  0  0  0  0  0  0
   70.4936   79.9224   89.9962 C   0  0  0  0  0  0  0  0  0  0  0  0
   70.9684   82.3319   89.5718 C   0  0  0  0  0  0  0  0  0  0  0  0
   72.3026   82.3796   89.9415 C   0  0  0  0  0  0  0  0  0  0  0  0
   73.1086   83.4317   89.5490 C   0  0  0  0  0  0  0  0  0  0  0  0
   72.6350   84.4819   88.7754 C   0  0  0  0  0  0  0  0  0  0  0  0
   71.3125   84.4456   88.4023 C   0  0  0  0  0  0  0  0  0  0  0  0
   70.5032   83.3744   88.8054 C   0  0  0  0  0  0  0  0  0  0  0  0
   70.7755   85.4394   87.6438 O   0  0  0  0  0  0  0  0  0  0  0  0
   70.3642   86.6845   88.0729 C   0  0  0  0  0  0  0  0  0  0  0  0
   69.5323   86.5713   89.3436 C   0  0  0  0  0  0  0  0  0  0  0  0
   69.5333   87.9842   89.8613 C   0  0  0  0  0  0  0  0  0  0  0  0
   70.7393   88.6667   89.2823 C   0  0  0  0  0  0  0  0  0  0  0  0
   71.5147   87.5438   88.5894 C   0  0  0  0  0  0  0  0  0  0  0  0
   70.1787   77.4452   90.4069 C   0  0  0  0  0  0  0  0  0  0  0  0
   69.4070   76.6123   91.1252 O   0  0  0  0  0  0  0  0  0  0  0  0
   69.4578   73.4332   92.8801 C   0  0  0  0  0  0  0  0  0  0  0  0
   69.6411   74.7466   92.5658 C   0  0  0  0  0  0  0  0  0  0  0  0
   69.1850   75.3193   91.3539 C   0  0  0  0  0  0  0  0  0  0  0  0
   68.5313   74.5080   90.4633 C   0  0  0  0  0  0  0  0  0  0  0  0
   68.3410   73.1817   90.7707 C   0  0  0  0  0  0  0  0  0  0  0  0
   68.7973   72.6399   91.9673 C   0  0  0  0  0  0  0  0  0  0  0  0
   68.5785   71.2950   92.2269 O   0  0  0  0  0  0  0  0  0  0  0  0
   68.1283   70.7640   91.5997 H   0  0  0  0  0  0  0  0  0  0  0  0
   69.1938   72.7157   95.1148 O   0  0  0  0  0  0  0  0  0  0  0  0
   69.9151   72.8225   94.1147 C   0  0  0  0  0  0  0  0  0  0  0  0
   71.2094   72.3410   94.1738 O   0  0  0  0  0  0  0  0  0  0  0  0
   71.7706   72.4128   93.4268 H   0  0  0  0  0  0  0  0  0  0  0  0
  1  2  2  0  0  0  0
  2  3  1  0  0  0  0
  3  4  2  0  0  0  0
  4  5  1  0  0  0  0
  5  7  1  0  0  0  0
  5  6  2  0  0  0  0
  6  1  1  0  0  0  0
  7  8  2  0  0  0  0
  8  9  1  0  0  0  0
  9 10  2  0  0  0  0
 10 11  1  0  0  0  0
 11 13  1  0  0  0  0
 11 12  2  0  0  0  0
 12  7  1  0  0  0  0
 13 14  1  0  0  0  0
 14 15  1  0  0  0  0
 15 16  1  0  0  0  0
 16 17  1  0  0  0  0
 17 18  1  0  0  0  0
 18 14  1  0  0  0  0
 19  1  1  0  0  0  0
 20 19  1  0  0  0  0
 21 22  2  0  0  0  0
 22 23  1  0  0  0  0
 23 20  1  0  0  0  0
 23 24  2  0  0  0  0
 24 25  1  0  0  0  0
 25 26  2  0  0  0  0
 26 27  1  0  0  0  0
 26 21  1  0  0  0  0
 27 28  1  0  0  0  0
 29 30  2  0  0  0  0
 30 31  1  0  0  0  0
 30 21  1  0  0  0  0
 31 32  1  0  0  0  0
M  END
>  <Activity>
13.3

>  <minimizedAffinity>
-9.03032

>  <RFScoreVS_v2>
6.001096556

$$$$
HIPS6985
 OpenBabel05252300073D

 32 35  0  0  0  0  0  0  0  0999 V2000
   67.2619   79.0747   88.8932 C   0  0  0  0  0  0  0  0  0  0  0  0
   67.0840   79.0665   87.5021 C   0  0  0  0  0  0  0  0  0  0  0  0
   67.0641   77.8757   86.8144 C   0  0  0  0  0  0  0  0  0  0  0  0
   67.2172   76.6716   87.4711 C   0  0  0  0  0  0  0  0  0  0  0  0
   67.3951   76.6447   88.8461 C   0  0  0  0  0  0  0  0  0  0  0  0
   67.4093   77.8535   89.4954 C   0  0  0  0  0  0  0  0  0  0  0  0
   67.5555   75.3658   89.5288 C   0  0  0  0  0  0  0  0  0  0  0  0
   67.2398   74.1627   88.9190 C   0  0  0  0  0  0  0  0  0  0  0  0
   67.4021   72.9652   89.5900 C   0  0  0  0  0  0  0  0  0  0  0  0
   67.8824   72.9014   90.8904 C   0  0  0  0  0  0  0  0  0  0  0  0
   68.1991   74.0890   91.5059 C   0  0  0  0  0  0  0  0  0  0  0  0
   68.0310   75.2982   90.8171 C   0  0  0  0  0  0  0  0  0  0  0  0
   68.6757   74.1073   92.7802 O   0  0  0  0  0  0  0  0  0  0  0  0
   67.9795   73.8102   93.9337 C   0  0  0  0  0  0  0  0  0  0  0  0
   68.1987   74.8853   94.9899 C   0  0  0  0  0  0  0  0  0  0  0  0
   67.0855   74.6156   95.9659 C   0  0  0  0  0  0  0  0  0  0  0  0
   66.0108   73.8792   95.2190 C   0  0  0  0  0  0  0  0  0  0  0  0
   66.4675   73.9199   93.7588 C   0  0  0  0  0  0  0  0  0  0  0  0
   67.3092   80.3789   89.6258 C   0  0  0  0  0  0  0  0  0  0  0  0
   68.3176   81.1924   89.2702 O   0  0  0  0  0  0  0  0  0  0  0  0
   70.2364   83.9377   87.8662 C   0  0  0  0  0  0  0  0  0  0  0  0
   69.8618   82.8681   88.6234 C   0  0  0  0  0  0  0  0  0  0  0  0
   68.6041   82.2320   88.4887 C   0  0  0  0  0  0  0  0  0  0  0  0
   67.7309   82.7216   87.5524 C   0  0  0  0  0  0  0  0  0  0  0  0
   68.0990   83.7999   86.7833 C   0  0  0  0  0  0  0  0  0  0  0  0
   69.3399   84.4095   86.9322 C   0  0  0  0  0  0  0  0  0  0  0  0
   69.6600   85.4949   86.1300 O   0  0  0  0  0  0  0  0  0  0  0  0
   69.0434   85.8082   85.4978 H   0  0  0  0  0  0  0  0  0  0  0  0
   72.5932   84.0383   87.7519 O   0  0  0  0  0  0  0  0  0  0  0  0
   71.5188   84.6068   87.9847 C   0  0  0  0  0  0  0  0  0  0  0  0
   71.5386   85.9332   88.3732 O   0  0  0  0  0  0  0  0  0  0  0  0
   70.7353   86.3805   88.5538 H   0  0  0  0  0  0  0  0  0  0  0  0
  1  2  2  0  0  0  0
  2  3  1  0  0  0  0
  3  4  2  0  0  0  0
  4  5  1  0  0  0  0
  5  7  1  0  0  0  0
  5  6  2  0  0  0  0
  6  1  1  0  0  0  0
  7  8  2  0  0  0  0
  8  9  1  0  0  0  0
  9 10  2  0  0  0  0
 10 11  1  0  0  0  0
 11 13  1  0  0  0  0
 11 12  2  0  0  0  0
 12  7  1  0  0  0  0
 13 14  1  0  0  0  0
 14 15  1  0  0  0  0
 15 16  1  0  0  0  0
 16 17  1  0  0  0  0
 17 18  1  0  0  0  0
 18 14  1  0  0  0  0
 19  1  1  0  0  0  0
 20 19  1  0  0  0  0
 21 22  2  0  0  0  0
 22 23  1  0  0  0  0
 23 20  1  0  0  0  0
 23 24  2  0  0  0  0
 24 25  1  0  0  0  0
 25 26  2  0  0  0  0
 26 27  1  0  0  0  0
 26 21  1  0  0  0  0
 27 28  1  0  0  0  0
 29 30  2  0  0  0  0
 30 31  1  0  0  0  0
 30 21  1  0  0  0  0
 31 32  1  0  0  0  0
M  END
>  <Activity>
13.3

>  <minimizedAffinity>
-8.93405

>  <RFScoreVS_v2>
6.02613950654

$$$$
HIPS6985
 OpenBabel05252300073D

 32 35  0  0  0  0  0  0  0  0999 V2000
   66.9364   75.1645   88.6285 C   0  0  0  0  0  0  0  0  0  0  0  0
   66.4505   74.1733   87.7635 C   0  0  0  0  0  0  0  0  0  0  0  0
   66.7034   72.8463   88.0208 C   0  0  0  0  0  0  0  0  0  0  0  0
   67.4348   72.4621   89.1264 C   0  0  0  0  0  0  0  0  0  0  0  0
   67.9298   73.4172   90.0015 C   0  0  0  0  0  0  0  0  0  0  0  0
   67.6560   74.7298   89.7097 C   0  0  0  0  0  0  0  0  0  0  0  0
   68.7009   72.9987   91.1665 C   0  0  0  0  0  0  0  0  0  0  0  0
   69.3443   71.7730   91.2204 C   0  0  0  0  0  0  0  0  0  0  0  0
   70.0688   71.4025   92.3377 C   0  0  0  0  0  0  0  0  0  0  0  0
   70.1906   72.2234   93.4499 C   0  0  0  0  0  0  0  0  0  0  0  0
   69.5565   73.4422   93.4082 C   0  0  0  0  0  0  0  0  0  0  0  0
   68.8242   73.8089   92.2706 C   0  0  0  0  0  0  0  0  0  0  0  0
   69.6300   74.3017   94.4604 O   0  0  0  0  0  0  0  0  0  0  0  0
   68.5788   74.8079   95.1969 C   0  0  0  0  0  0  0  0  0  0  0  0
   67.6029   75.5592   94.3011 C   0  0  0  0  0  0  0  0  0  0  0  0
   66.3791   75.6670   95.1701 C   0  0  0  0  0  0  0  0  0  0  0  0
   66.4584   74.5630   96.1851 C   0  0  0  0  0  0  0  0  0  0  0  0
   67.6543   73.7201   95.7362 C   0  0  0  0  0  0  0  0  0  0  0  0
   66.6774   76.6064   88.3221 C   0  0  0  0  0  0  0  0  0  0  0  0
   67.1472   77.4730   89.2349 O   0  0  0  0  0  0  0  0  0  0  0  0
   70.5508   78.3353   90.1629 C   0  0  0  0  0  0  0  0  0  0  0  0
   69.4258   77.6265   89.8635 C   0  0  0  0  0  0  0  0  0  0  0  0
   68.1996   78.2407   89.5119 C   0  0  0  0  0  0  0  0  0  0  0  0
   68.1518   79.6100   89.4742 C   0  0  0  0  0  0  0  0  0  0  0  0
   69.2810   80.3344   89.7743 C   0  0  0  0  0  0  0  0  0  0  0  0
   70.4754   79.7103   90.1171 C   0  0  0  0  0  0  0  0  0  0  0  0
   71.5848   80.4896   90.4108 O   0  0  0  0  0  0  0  0  0  0  0  0
   71.5232   81.4240   90.3768 H   0  0  0  0  0  0  0  0  0  0  0  0
   72.0068   77.1740   91.6154 O   0  0  0  0  0  0  0  0  0  0  0  0
   71.8190   77.7300   90.5257 C   0  0  0  0  0  0  0  0  0  0  0  0
   72.8582   77.7773   89.6155 O   0  0  0  0  0  0  0  0  0  0  0  0
   72.7351   78.1939   88.7852 H   0  0  0  0  0  0  0  0  0  0  0  0
  1  2  2  0  0  0  0
  2  3  1  0  0  0  0
  3  4  2  0  0  0  0
  4  5  1  0  0  0  0
  5  7  1  0  0  0  0
  5  6  2  0  0  0  0
  6  1  1  0  0  0  0
  7  8  2  0  0  0  0
  8  9  1  0  0  0  0
  9 10  2  0  0  0  0
 10 11  1  0  0  0  0
 11 13  1  0  0  0  0
 11 12  2  0  0  0  0
 12  7  1  0  0  0  0
 13 14  1  0  0  0  0
 14 15  1  0  0  0  0
 15 16  1  0  0  0  0
 16 17  1  0  0  0  0
 17 18  1  0  0  0  0
 18 14  1  0  0  0  0
 19  1  1  0  0  0  0
 20 19  1  0  0  0  0
 21 22  2  0  0  0  0
 22 23  1  0  0  0  0
 23 20  1  0  0  0  0
 23 24  2  0  0  0  0
 24 25  1  0  0  0  0
 25 26  2  0  0  0  0
 26 27  1  0  0  0  0
 26 21  1  0  0  0  0
 27 28  1  0  0  0  0
 29 30  2  0  0  0  0
 30 31  1  0  0  0  0
 30 21  1  0  0  0  0
 31 32  1  0  0  0  0
M  END
>  <Activity>
13.3

>  <minimizedAffinity>
-8.89620

>  <RFScoreVS_v2>
6.00487295223

$$$$
HIPS6985
 OpenBabel05252300073D

 32 35  0  0  0  0  0  0  0  0999 V2000
   67.4107   79.4986   88.2190 C   0  0  0  0  0  0  0  0  0  0  0  0
   66.8202   78.7743   87.1733 C   0  0  0  0  0  0  0  0  0  0  0  0
   66.8175   77.3994   87.1995 C   0  0  0  0  0  0  0  0  0  0  0  0
   67.3907   76.7060   88.2461 C   0  0  0  0  0  0  0  0  0  0  0  0
   67.9831   77.3919   89.2957 C   0  0  0  0  0  0  0  0  0  0  0  0
   67.9652   78.7625   89.2322 C   0  0  0  0  0  0  0  0  0  0  0  0
   68.5852   76.6479   90.3962 C   0  0  0  0  0  0  0  0  0  0  0  0
   69.8503   76.9429   90.8774 C   0  0  0  0  0  0  0  0  0  0  0  0
   70.3962   76.2211   91.9222 C   0  0  0  0  0  0  0  0  0  0  0  0
   69.7193   75.1779   92.5380 C   0  0  0  0  0  0  0  0  0  0  0  0
   68.4629   74.8759   92.0692 C   0  0  0  0  0  0  0  0  0  0  0  0
   67.9180   75.6136   91.0091 C   0  0  0  0  0  0  0  0  0  0  0  0
   67.7375   73.8663   92.6221 O   0  0  0  0  0  0  0  0  0  0  0  0
   66.9125   73.9414   93.7255 C   0  0  0  0  0  0  0  0  0  0  0  0
   67.7146   73.7946   95.0118 C   0  0  0  0  0  0  0  0  0  0  0  0
   66.7541   74.2987   96.0546 C   0  0  0  0  0  0  0  0  0  0  0  0
   65.7742   75.1973   95.3563 C   0  0  0  0  0  0  0  0  0  0  0  0
   66.3313   75.3364   93.9376 C   0  0  0  0  0  0  0  0  0  0  0  0
   67.4311   80.9941   88.1647 C   0  0  0  0  0  0  0  0  0  0  0  0
   68.2997   81.5800   89.0057 O   0  0  0  0  0  0  0  0  0  0  0  0
   70.8150   84.0722   88.1985 C   0  0  0  0  0  0  0  0  0  0  0  0
   69.6504   83.3650   88.2309 C   0  0  0  0  0  0  0  0  0  0  0  0
   69.4709   82.2132   89.0344 C   0  0  0  0  0  0  0  0  0  0  0  0
   70.5217   81.7985   89.8107 C   0  0  0  0  0  0  0  0  0  0  0  0
   71.7008   82.5048   89.7856 C   0  0  0  0  0  0  0  0  0  0  0  0
   71.8553   83.6339   88.9888 C   0  0  0  0  0  0  0  0  0  0  0  0
   73.0669   84.3091   89.0014 O   0  0  0  0  0  0  0  0  0  0  0  0
   73.7682   84.0031   89.5423 H   0  0  0  0  0  0  0  0  0  0  0  0
   71.7361   86.1998   87.7482 O   0  0  0  0  0  0  0  0  0  0  0  0
   71.0240   85.2552   87.3843 C   0  0  0  0  0  0  0  0  0  0  0  0
   70.4014   85.3278   86.1523 O   0  0  0  0  0  0  0  0  0  0  0  0
   69.8585   84.6225   85.8595 H   0  0  0  0  0  0  0  0  0  0  0  0
  1  2  2  0  0  0  0
  2  3  1  0  0  0  0
  3  4  2  0  0  0  0
  4  5  1  0  0  0  0
  5  7  1  0  0  0  0
  5  6  2  0  0  0  0
  6  1  1  0  0  0  0
  7  8  2  0  0  0  0
  8  9  1  0  0  0  0
  9 10  2  0  0  0  0
 10 11  1  0  0  0  0
 11 13  1  0  0  0  0
 11 12  2  0  0  0  0
 12  7  1  0  0  0  0
 13 14  1  0  0  0  0
 14 15  1  0  0  0  0
 15 16  1  0  0  0  0
 16 17  1  0  0  0  0
 17 18  1  0  0  0  0
 18 14  1  0  0  0  0
 19  1  1  0  0  0  0
 20 19  1  0  0  0  0
 21 22  2  0  0  0  0
 22 23  1  0  0  0  0
 23 20  1  0  0  0  0
 23 24  2  0  0  0  0
 24 25  1  0  0  0  0
 25 26  2  0  0  0  0
 26 27  1  0  0  0  0
 26 21  1  0  0  0  0
 27 28  1  0  0  0  0
 29 30  2  0  0  0  0
 30 31  1  0  0  0  0
 30 21  1  0  0  0  0
 31 32  1  0  0  0  0
M  END
>  <Activity>
13.3

>  <minimizedAffinity>
-8.77695

>  <RFScoreVS_v2>
6.03225659943

$$$$
HIPS6985
 OpenBabel05252300073D

 32 35  0  0  0  0  0  0  0  0999 V2000
   66.9601   79.4991   87.9116 C   0  0  0  0  0  0  0  0  0  0  0  0
   66.3363   78.4054   87.2940 C   0  0  0  0  0  0  0  0  0  0  0  0
   66.7630   77.1253   87.5594 C   0  0  0  0  0  0  0  0  0  0  0  0
   67.8058   76.8889   88.4319 C   0  0  0  0  0  0  0  0  0  0  0  0
   68.4443   77.9482   89.0591 C   0  0  0  0  0  0  0  0  0  0  0  0
   67.9891   79.2095   88.7677 C   0  0  0  0  0  0  0  0  0  0  0  0
   69.5448   77.6855   89.9794 C   0  0  0  0  0  0  0  0  0  0  0  0
   70.6953   78.4571   89.9885 C   0  0  0  0  0  0  0  0  0  0  0  0
   71.7227   78.1854   90.8723 C   0  0  0  0  0  0  0  0  0  0  0  0
   71.6610   77.1420   91.7851 C   0  0  0  0  0  0  0  0  0  0  0  0
   70.5242   76.3692   91.7855 C   0  0  0  0  0  0  0  0  0  0  0  0
   69.4877   76.6527   90.8853 C   0  0  0  0  0  0  0  0  0  0  0  0
   70.3903   75.3282   92.6513 O   0  0  0  0  0  0  0  0  0  0  0  0
   69.2584   74.9706   93.3546 C   0  0  0  0  0  0  0  0  0  0  0  0
   69.5190   73.7362   94.2077 C   0  0  0  0  0  0  0  0  0  0  0  0
   68.3601   73.7522   95.1674 C   0  0  0  0  0  0  0  0  0  0  0  0
   67.8639   75.1679   95.2385 C   0  0  0  0  0  0  0  0  0  0  0  0
   68.8981   75.9726   94.4478 C   0  0  0  0  0  0  0  0  0  0  0  0
   66.5040   80.8885   87.5929 C   0  0  0  0  0  0  0  0  0  0  0  0
   67.2255   81.8670   88.1648 O   0  0  0  0  0  0  0  0  0  0  0  0
   70.2995   83.7996   88.0938 C   0  0  0  0  0  0  0  0  0  0  0  0
   69.3880   82.8174   88.3425 C   0  0  0  0  0  0  0  0  0  0  0  0
   68.0525   82.8700   87.8754 C   0  0  0  0  0  0  0  0  0  0  0  0
   67.6687   83.9620   87.1413 C   0  0  0  0  0  0  0  0  0  0  0  0
   68.5804   84.9583   86.8845 C   0  0  0  0  0  0  0  0  0  0  0  0
   69.8877   84.8861   87.3531 C   0  0  0  0  0  0  0  0  0  0  0  0
   70.7667   85.9198   87.0650 O   0  0  0  0  0  0  0  0  0  0  0  0
   70.4769   86.6543   86.5605 H   0  0  0  0  0  0  0  0  0  0  0  0
   71.9770   83.4824   89.7257 O   0  0  0  0  0  0  0  0  0  0  0  0
   71.6733   83.7693   88.5607 C   0  0  0  0  0  0  0  0  0  0  0  0
   72.6821   84.0735   87.6661 O   0  0  0  0  0  0  0  0  0  0  0  0
   72.4718   84.2931   86.7798 H   0  0  0  0  0  0  0  0  0  0  0  0
  1  2  2  0  0  0  0
  2  3  1  0  0  0  0
  3  4  2  0  0  0  0
  4  5  1  0  0  0  0
  5  7  1  0  0  0  0
  5  6  2  0  0  0  0
  6  1  1  0  0  0  0
  7  8  2  0  0  0  0
  8  9  1  0  0  0  0
  9 10  2  0  0  0  0
 10 11  1  0  0  0  0
 11 13  1  0  0  0  0
 11 12  2  0  0  0  0
 12  7  1  0  0  0  0
 13 14  1  0  0  0  0
 14 15  1  0  0  0  0
 15 16  1  0  0  0  0
 16 17  1  0  0  0  0
 17 18  1  0  0  0  0
 18 14  1  0  0  0  0
 19  1  1  0  0  0  0
 20 19  1  0  0  0  0
 21 22  2  0  0  0  0
 22 23  1  0  0  0  0
 23 20  1  0  0  0  0
 23 24  2  0  0  0  0
 24 25  1  0  0  0  0
 25 26  2  0  0  0  0
 26 27  1  0  0  0  0
 26 21  1  0  0  0  0
 27 28  1  0  0  0  0
 29 30  2  0  0  0  0
 30 31  1  0  0  0  0
 30 21  1  0  0  0  0
 31 32  1  0  0  0  0
M  END
>  <Activity>
13.3

>  <minimizedAffinity>
-8.75783

>  <RFScoreVS_v2>
5.98623631461

$$$$
HIPS6985
 OpenBabel05252300073D

 32 35  0  0  0  0  0  0  0  0999 V2000
   66.8941   75.6160   87.7302 C   0  0  0  0  0  0  0  0  0  0  0  0
   67.1889   75.6231   86.3591 C   0  0  0  0  0  0  0  0  0  0  0  0
   67.4846   76.8050   85.7213 C   0  0  0  0  0  0  0  0  0  0  0  0
   67.4980   78.0014   86.4093 C   0  0  0  0  0  0  0  0  0  0  0  0
   67.2107   78.0292   87.7656 C   0  0  0  0  0  0  0  0  0  0  0  0
   66.9208   76.8293   88.3650 C   0  0  0  0  0  0  0  0  0  0  0  0
   67.2285   79.2997   88.4817 C   0  0  0  0  0  0  0  0  0  0  0  0
   67.1528   79.3656   89.8634 C   0  0  0  0  0  0  0  0  0  0  0  0
   67.1721   80.5840   90.5159 C   0  0  0  0  0  0  0  0  0  0  0  0
   67.2668   81.7897   89.8354 C   0  0  0  0  0  0  0  0  0  0  0  0
   67.3425   81.7369   88.4639 C   0  0  0  0  0  0  0  0  0  0  0  0
   67.3222   80.4965   87.8114 C   0  0  0  0  0  0  0  0  0  0  0  0
   67.4374   82.8771   87.7276 O   0  0  0  0  0  0  0  0  0  0  0  0
   68.5358   83.3236   87.0220 C   0  0  0  0  0  0  0  0  0  0  0  0
   68.5427   84.8442   86.9370 C   0  0  0  0  0  0  0  0  0  0  0  0
   69.9578   85.1413   86.5204 C   0  0  0  0  0  0  0  0  0  0  0  0
   70.7967   83.9662   86.9337 C   0  0  0  0  0  0  0  0  0  0  0  0
   69.8497   83.0974   87.7646 C   0  0  0  0  0  0  0  0  0  0  0  0
   66.5471   74.3266   88.4062 C   0  0  0  0  0  0  0  0  0  0  0  0
   67.5797   73.6987   88.9932 O   0  0  0  0  0  0  0  0  0  0  0  0
   69.3822   74.8742   91.9187 C   0  0  0  0  0  0  0  0  0  0  0  0
   68.6797   74.8435   90.7512 C   0  0  0  0  0  0  0  0  0  0  0  0
   68.2620   73.6390   90.1354 C   0  0  0  0  0  0  0  0  0  0  0  0
   68.5837   72.4560   90.7485 C   0  0  0  0  0  0  0  0  0  0  0  0
   69.2918   72.4759   91.9266 C   0  0  0  0  0  0  0  0  0  0  0  0
   69.6921   73.6709   92.5142 C   0  0  0  0  0  0  0  0  0  0  0  0
   70.4050   73.6333   93.7036 O   0  0  0  0  0  0  0  0  0  0  0  0
   70.6108   72.8100   94.1007 H   0  0  0  0  0  0  0  0  0  0  0  0
   71.0128   76.4233   92.6397 O   0  0  0  0  0  0  0  0  0  0  0  0
   69.8216   76.0946   92.5698 C   0  0  0  0  0  0  0  0  0  0  0  0
   68.8691   76.9222   93.1340 O   0  0  0  0  0  0  0  0  0  0  0  0
   67.9623   76.6902   93.0912 H   0  0  0  0  0  0  0  0  0  0  0  0
  1  2  2  0  0  0  0
  2  3  1  0  0  0  0
  3  4  2  0  0  0  0
  4  5  1  0  0  0  0
  5  7  1  0  0  0  0
  5  6  2  0  0  0  0
  6  1  1  0  0  0  0
  7  8  2  0  0  0  0
  8  9  1  0  0  0  0
  9 10  2  0  0  0  0
 10 11  1  0  0  0  0
 11 13  1  0  0  0  0
 11 12  2  0  0  0  0
 12  7  1  0  0  0  0
 13 14  1  0  0  0  0
 14 15  1  0  0  0  0
 15 16  1  0  0  0  0
 16 17  1  0  0  0  0
 17 18  1  0  0  0  0
 18 14  1  0  0  0  0
 19  1  1  0  0  0  0
 20 19  1  0  0  0  0
 21 22  2  0  0  0  0
 22 23  1  0  0  0  0
 23 20  1  0  0  0  0
 23 24  2  0  0  0  0
 24 25  1  0  0  0  0
 25 26  2  0  0  0  0
 26 27  1  0  0  0  0
 26 21  1  0  0  0  0
 27 28  1  0  0  0  0
 29 30  2  0  0  0  0
 30 31  1  0  0  0  0
 30 21  1  0  0  0  0
 31 32  1  0  0  0  0
M  END
>  <Activity>
13.3

>  <minimizedAffinity>
-8.69099

>  <RFScoreVS_v2>
6.00634514643

$$$$
HIPS6985
 OpenBabel05252300073D

 32 35  0  0  0  0  0  0  0  0999 V2000
   69.1730   78.4073   90.3119 C   0  0  0  0  0  0  0  0  0  0  0  0
   70.5121   78.5775   89.9314 C   0  0  0  0  0  0  0  0  0  0  0  0
   71.5054   77.8615   90.5573 C   0  0  0  0  0  0  0  0  0  0  0  0
   71.2106   76.9665   91.5657 C   0  0  0  0  0  0  0  0  0  0  0  0
   69.8969   76.7747   91.9660 C   0  0  0  0  0  0  0  0  0  0  0  0
   68.9354   77.5079   91.3171 C   0  0  0  0  0  0  0  0  0  0  0  0
   69.5980   75.8258   93.0325 C   0  0  0  0  0  0  0  0  0  0  0  0
   69.3462   76.2357   94.3316 C   0  0  0  0  0  0  0  0  0  0  0  0
   69.0653   75.3140   95.3226 C   0  0  0  0  0  0  0  0  0  0  0  0
   69.0203   73.9490   95.0765 C   0  0  0  0  0  0  0  0  0  0  0  0
   69.2685   73.5302   93.7910 C   0  0  0  0  0  0  0  0  0  0  0  0
   69.5525   74.4726   92.7929 C   0  0  0  0  0  0  0  0  0  0  0  0
   69.2423   72.2077   93.4724 O   0  0  0  0  0  0  0  0  0  0  0  0
   70.1521   71.5203   92.6957 C   0  0  0  0  0  0  0  0  0  0  0  0
   71.4155   71.2113   93.4880 C   0  0  0  0  0  0  0  0  0  0  0  0
   72.0752   70.1502   92.6494 C   0  0  0  0  0  0  0  0  0  0  0  0
   70.9991   69.5072   91.8224 C   0  0  0  0  0  0  0  0  0  0  0  0
   69.6974   70.1016   92.3650 C   0  0  0  0  0  0  0  0  0  0  0  0
   68.1047   79.2129   89.6415 C   0  0  0  0  0  0  0  0  0  0  0  0
   67.2760   78.5095   88.8518 O   0  0  0  0  0  0  0  0  0  0  0  0
   66.9872   75.1289   87.5565 C   0  0  0  0  0  0  0  0  0  0  0  0
   67.0188   76.1984   88.4009 C   0  0  0  0  0  0  0  0  0  0  0  0
   67.2609   77.5215   87.9589 C   0  0  0  0  0  0  0  0  0  0  0  0
   67.4722   77.7256   86.6201 C   0  0  0  0  0  0  0  0  0  0  0  0
   67.4422   76.6538   85.7598 C   0  0  0  0  0  0  0  0  0  0  0  0
   67.2023   75.3621   86.2156 C   0  0  0  0  0  0  0  0  0  0  0  0
   67.1831   74.3167   85.3041 O   0  0  0  0  0  0  0  0  0  0  0  0
   67.3305   74.4857   84.3943 H   0  0  0  0  0  0  0  0  0  0  0  0
   66.0348   72.9787   87.3391 O   0  0  0  0  0  0  0  0  0  0  0  0
   66.7411   73.7641   87.9841 C   0  0  0  0  0  0  0  0  0  0  0  0
   67.3204   73.3255   89.1600 O   0  0  0  0  0  0  0  0  0  0  0  0
   67.8583   73.9056   89.6621 H   0  0  0  0  0  0  0  0  0  0  0  0
  1  2  2  0  0  0  0
  2  3  1  0  0  0  0
  3  4  2  0  0  0  0
  4  5  1  0  0  0  0
  5  7  1  0  0  0  0
  5  6  2  0  0  0  0
  6  1  1  0  0  0  0
  7  8  2  0  0  0  0
  8  9  1  0  0  0  0
  9 10  2  0  0  0  0
 10 11  1  0  0  0  0
 11 13  1  0  0  0  0
 11 12  2  0  0  0  0
 12  7  1  0  0  0  0
 13 14  1  0  0  0  0
 14 15  1  0  0  0  0
 15 16  1  0  0  0  0
 16 17  1  0  0  0  0
 17 18  1  0  0  0  0
 18 14  1  0  0  0  0
 19  1  1  0  0  0  0
 20 19  1  0  0  0  0
 21 22  2  0  0  0  0
 22 23  1  0  0  0  0
 23 20  1  0  0  0  0
 23 24  2  0  0  0  0
 24 25  1  0  0  0  0
 25 26  2  0  0  0  0
 26 27  1  0  0  0  0
 26 21  1  0  0  0  0
 27 28  1  0  0  0  0
 29 30  2  0  0  0  0
 30 31  1  0  0  0  0
 30 21  1  0  0  0  0
 31 32  1  0  0  0  0
M  END
>  <Activity>
13.3

>  <minimizedAffinity>
-8.61594

>  <RFScoreVS_v2>
5.97672092444

$$$$
HIPS7779
 OpenBabel05252300073D

 38 40  0  0  0  0  0  0  0  0999 V2000
   67.5416   77.3954   92.5998 C   0  0  0  0  0  0  0  0  0  0  0  0
   66.8164   78.5470   92.5469 N   0  0  0  0  0  0  0  0  0  0  0  0
   67.1461   79.5524   91.6956 C   0  0  0  0  0  0  0  0  0  0  0  0
   68.2490   79.4135   90.8448 C   0  0  0  0  0  0  0  0  0  0  0  0
   68.9898   78.2288   90.9176 C   0  0  0  0  0  0  0  0  0  0  0  0
   68.6238   77.2511   91.7856 N   0  0  0  0  0  0  0  0  0  0  0  0
   67.6965   74.2292   94.7080 C   0  0  0  0  0  0  0  0  0  0  0  0
   66.4407   74.2622   95.3276 C   0  0  0  0  0  0  0  0  0  0  0  0
   65.5612   75.3183   95.0830 C   0  0  0  0  0  0  0  0  0  0  0  0
   65.9201   76.3422   94.2026 C   0  0  0  0  0  0  0  0  0  0  0  0
   67.1634   76.3137   93.5429 C   0  0  0  0  0  0  0  0  0  0  0  0
   68.0431   75.2447   93.7991 C   0  0  0  0  0  0  0  0  0  0  0  0
   69.8665   72.9812   94.3421 C   0  0  0  0  0  0  0  0  0  0  0  0
   70.3542   73.9136   93.6461 O   0  0  0  0  0  0  0  0  0  0  0  0
   68.5889   73.1376   94.9806 N   0  0  0  0  0  0  0  0  0  0  0  0
   68.3108   72.4610   95.6395 H   0  0  0  0  0  0  0  0  0  0  0  0
   70.6307   71.7007   94.4901 C   0  0  0  0  0  0  0  0  0  0  0  0
   71.0330   71.1604   93.1148 C   0  0  0  0  0  0  0  0  0  0  0  0
   69.8232   70.5759   92.3755 C   0  0  0  0  0  0  0  0  0  0  0  0
   69.5206   71.3501   91.0717 C   0  0  0  0  0  0  0  0  0  0  0  0
   68.3156   72.2978   91.2143 C   0  0  0  0  0  0  0  0  0  0  0  0
   68.6081   73.7203   90.6843 C   0  0  0  0  0  0  0  0  0  0  0  0
   66.8491   72.9993   88.9771 C   0  0  0  0  0  0  0  0  0  0  0  0
   67.6857   74.1502   89.5311 C   0  0  0  0  0  0  0  0  0  0  0  0
   68.6477   80.5099   89.9012 C   0  0  0  0  0  0  0  0  0  0  0  0
   70.0094   80.8616   90.1307 O   0  0  0  0  0  0  0  0  0  0  0  0
   70.6434   81.9830   89.5719 C   0  0  0  0  0  0  0  0  0  0  0  0
   71.9343   82.3840   89.9547 C   0  0  0  0  0  0  0  0  0  0  0  0
   72.5172   83.5150   89.3847 C   0  0  0  0  0  0  0  0  0  0  0  0
   71.8275   84.2700   88.4303 C   0  0  0  0  0  0  0  0  0  0  0  0
   72.4357   85.4342   87.9577 O   0  0  0  0  0  0  0  0  0  0  0  0
   70.5411   83.8548   88.0069 C   0  0  0  0  0  0  0  0  0  0  0  0
   69.9601   82.7205   88.5993 C   0  0  0  0  0  0  0  0  0  0  0  0
   73.2885   85.6743   88.2628 H   0  0  0  0  0  0  0  0  0  0  0  0
   69.7899   84.5545   86.9432 C   0  0  0  0  0  0  0  0  0  0  0  0
   70.3632   85.3941   86.1984 O   0  0  0  0  0  0  0  0  0  0  0  0
   68.4482   84.2520   86.7292 O   0  0  0  0  0  0  0  0  0  0  0  0
   68.0151   83.6289   87.2788 H   0  0  0  0  0  0  0  0  0  0  0  0
  1  2  2  0  0  0  0
  2  3  2  0  0  0  0
  3  4  2  0  0  0  0
  4 25  1  0  0  0  0
  4  5  1  0  0  0  0
  5  6  2  0  0  0  0
  6  1  2  0  0  0  0
  7  8  2  0  0  0  0
  8  9  1  0  0  0  0
  9 10  2  0  0  0  0
 10 11  1  0  0  0  0
 11  1  1  0  0  0  0
 11 12  2  0  0  0  0
 12  7  1  0  0  0  0
 13 14  2  0  0  0  0
 13 15  1  0  0  0  0
 15  7  1  0  0  0  0
 15 16  1  0  0  0  0
 17 13  1  0  0  0  0
 18 17  1  0  0  0  0
 19 18  1  0  0  0  0
 20 19  1  0  0  0  0
 21 20  1  0  0  0  0
 22 21  1  0  0  0  0
 23 24  1  0  0  0  0
 24 22  1  0  0  0  0
 25 26  1  0  0  0  0
 26 27  1  0  0  0  0
 27 28  2  0  0  0  0
 28 29  1  0  0  0  0
 29 30  2  0  0  0  0
 30 31  1  0  0  0  0
 30 32  1  0  0  0  0
 31 34  1  0  0  0  0
 32 35  1  0  0  0  0
 32 33  2  0  0  0  0
 33 27  1  0  0  0  0
 35 36  2  0  0  0  0
 35 37  1  0  0  0  0
 37 38  1  0  0  0  0
M  END
>  <Activity>
14.3

>  <minimizedAffinity>
-8.17745

>  <RFScoreVS_v2>
5.95085350142

$$$$
HIPS7779
 OpenBabel05252300073D

 38 40  0  0  0  0  0  0  0  0999 V2000
   67.2658   77.0791   88.5897 C   0  0  0  0  0  0  0  0  0  0  0  0
   67.4896   77.4662   87.3032 N   0  0  0  0  0  0  0  0  0  0  0  0
   67.3620   78.7634   86.9222 C   0  0  0  0  0  0  0  0  0  0  0  0
   66.9987   79.7348   87.8624 C   0  0  0  0  0  0  0  0  0  0  0  0
   66.7628   79.3202   89.1777 C   0  0  0  0  0  0  0  0  0  0  0  0
   66.9008   78.0118   89.5126 N   0  0  0  0  0  0  0  0  0  0  0  0
   68.2584   73.9446   90.5089 C   0  0  0  0  0  0  0  0  0  0  0  0
   67.6765   72.9508   89.7117 C   0  0  0  0  0  0  0  0  0  0  0  0
   66.9450   73.2976   88.5744 C   0  0  0  0  0  0  0  0  0  0  0  0
   66.8035   74.6395   88.2120 C   0  0  0  0  0  0  0  0  0  0  0  0
   67.4069   75.6540   88.9792 C   0  0  0  0  0  0  0  0  0  0  0  0
   68.1404   75.2924   90.1253 C   0  0  0  0  0  0  0  0  0  0  0  0
   68.3933   72.9931   92.8492 C   0  0  0  0  0  0  0  0  0  0  0  0
   67.1910   72.6113   92.8271 O   0  0  0  0  0  0  0  0  0  0  0  0
   68.9995   73.5659   91.6792 N   0  0  0  0  0  0  0  0  0  0  0  0
   69.9740   73.7060   91.6799 H   0  0  0  0  0  0  0  0  0  0  0  0
   69.1838   72.8515   94.1144 C   0  0  0  0  0  0  0  0  0  0  0  0
   68.8489   73.9918   95.0802 C   0  0  0  0  0  0  0  0  0  0  0  0
   67.7392   73.5814   96.0558 C   0  0  0  0  0  0  0  0  0  0  0  0
   66.6510   74.6732   96.1766 C   0  0  0  0  0  0  0  0  0  0  0  0
   65.8095   74.8121   94.8948 C   0  0  0  0  0  0  0  0  0  0  0  0
   65.7483   76.2666   94.3747 C   0  0  0  0  0  0  0  0  0  0  0  0
   67.9493   77.0589   93.3470 C   0  0  0  0  0  0  0  0  0  0  0  0
   66.5549   76.4946   93.0852 C   0  0  0  0  0  0  0  0  0  0  0  0
   66.8372   81.1746   87.4720 C   0  0  0  0  0  0  0  0  0  0  0  0
   67.4903   82.0022   88.4308 O   0  0  0  0  0  0  0  0  0  0  0  0
   68.7452   82.6017   88.2365 C   0  0  0  0  0  0  0  0  0  0  0  0
   69.0120   83.4492   87.1483 C   0  0  0  0  0  0  0  0  0  0  0  0
   70.2788   84.0083   86.9867 C   0  0  0  0  0  0  0  0  0  0  0  0
   71.3033   83.7317   87.8980 C   0  0  0  0  0  0  0  0  0  0  0  0
   72.5686   84.2597   87.6351 O   0  0  0  0  0  0  0  0  0  0  0  0
   71.0372   82.9101   89.0208 C   0  0  0  0  0  0  0  0  0  0  0  0
   69.7596   82.3425   89.1642 C   0  0  0  0  0  0  0  0  0  0  0  0
   72.7036   84.7992   86.8810 H   0  0  0  0  0  0  0  0  0  0  0  0
   72.0461   82.6436   90.0679 C   0  0  0  0  0  0  0  0  0  0  0  0
   71.7052   82.1544   91.1781 O   0  0  0  0  0  0  0  0  0  0  0  0
   73.3917   82.8909   89.8120 O   0  0  0  0  0  0  0  0  0  0  0  0
   73.6530   83.2545   88.9890 H   0  0  0  0  0  0  0  0  0  0  0  0
  1  2  2  0  0  0  0
  2  3  2  0  0  0  0
  3  4  2  0  0  0  0
  4 25  1  0  0  0  0
  4  5  1  0  0  0  0
  5  6  2  0  0  0  0
  6  1  2  0  0  0  0
  7  8  2  0  0  0  0
  8  9  1  0  0  0  0
  9 10  2  0  0  0  0
 10 11  1  0  0  0  0
 11  1  1  0  0  0  0
 11 12  2  0  0  0  0
 12  7  1  0  0  0  0
 13 14  2  0  0  0  0
 13 15  1  0  0  0  0
 15  7  1  0  0  0  0
 15 16  1  0  0  0  0
 17 13  1  0  0  0  0
 18 17  1  0  0  0  0
 19 18  1  0  0  0  0
 20 19  1  0  0  0  0
 21 20  1  0  0  0  0
 22 21  1  0  0  0  0
 23 24  1  0  0  0  0
 24 22  1  0  0  0  0
 25 26  1  0  0  0  0
 26 27  1  0  0  0  0
 27 28  2  0  0  0  0
 28 29  1  0  0  0  0
 29 30  2  0  0  0  0
 30 31  1  0  0  0  0
 30 32  1  0  0  0  0
 31 34  1  0  0  0  0
 32 35  1  0  0  0  0
 32 33  2  0  0  0  0
 33 27  1  0  0  0  0
 35 36  2  0  0  0  0
 35 37  1  0  0  0  0
 37 38  1  0  0  0  0
M  END
>  <Activity>
14.3

>  <minimizedAffinity>
-8.11115

>  <RFScoreVS_v2>
5.96517453901

$$$$
HIPS7779
 OpenBabel05252300073D

 38 40  0  0  0  0  0  0  0  0999 V2000
   67.2150   76.9559   88.6088 C   0  0  0  0  0  0  0  0  0  0  0  0
   67.6022   77.3864   87.3760 N   0  0  0  0  0  0  0  0  0  0  0  0
   67.4685   78.6862   87.0061 C   0  0  0  0  0  0  0  0  0  0  0  0
   66.9280   79.6153   87.9029 C   0  0  0  0  0  0  0  0  0  0  0  0
   66.5260   79.1562   89.1619 C   0  0  0  0  0  0  0  0  0  0  0  0
   66.6772   77.8468   89.4874 N   0  0  0  0  0  0  0  0  0  0  0  0
   68.2559   73.8117   90.4861 C   0  0  0  0  0  0  0  0  0  0  0  0
   67.6569   72.8218   89.6967 C   0  0  0  0  0  0  0  0  0  0  0  0
   66.8988   73.1741   88.5787 C   0  0  0  0  0  0  0  0  0  0  0  0
   66.7471   74.5180   88.2276 C   0  0  0  0  0  0  0  0  0  0  0  0
   67.3669   75.5287   88.9866 C   0  0  0  0  0  0  0  0  0  0  0  0
   68.1272   75.1615   90.1132 C   0  0  0  0  0  0  0  0  0  0  0  0
   68.4366   72.9506   92.8580 C   0  0  0  0  0  0  0  0  0  0  0  0
   67.2100   72.6596   92.9089 O   0  0  0  0  0  0  0  0  0  0  0  0
   69.0243   73.4271   91.6366 N   0  0  0  0  0  0  0  0  0  0  0  0
   70.0053   73.4936   91.5858 H   0  0  0  0  0  0  0  0  0  0  0  0
   69.2763   72.8025   94.0903 C   0  0  0  0  0  0  0  0  0  0  0  0
   68.9349   73.9014   95.1008 C   0  0  0  0  0  0  0  0  0  0  0  0
   67.6894   73.5339   95.9165 C   0  0  0  0  0  0  0  0  0  0  0  0
   66.7635   74.7541   96.1282 C   0  0  0  0  0  0  0  0  0  0  0  0
   65.6769   74.8656   95.0431 C   0  0  0  0  0  0  0  0  0  0  0  0
   65.7259   76.2117   94.2844 C   0  0  0  0  0  0  0  0  0  0  0  0
   67.4163   77.7008   93.0787 C   0  0  0  0  0  0  0  0  0  0  0  0
   66.8534   76.2908   93.2415 C   0  0  0  0  0  0  0  0  0  0  0  0
   66.7554   81.0563   87.5216 C   0  0  0  0  0  0  0  0  0  0  0  0
   67.2499   81.8866   88.5688 O   0  0  0  0  0  0  0  0  0  0  0  0
   68.5879   82.2945   88.6921 C   0  0  0  0  0  0  0  0  0  0  0  0
   69.4966   81.6414   89.5415 C   0  0  0  0  0  0  0  0  0  0  0  0
   70.8116   82.0928   89.6446 C   0  0  0  0  0  0  0  0  0  0  0  0
   71.2454   83.2026   88.9118 C   0  0  0  0  0  0  0  0  0  0  0  0
   72.5510   83.6504   89.1204 O   0  0  0  0  0  0  0  0  0  0  0  0
   70.3504   83.8465   88.0226 C   0  0  0  0  0  0  0  0  0  0  0  0
   69.0242   83.3891   87.9384 C   0  0  0  0  0  0  0  0  0  0  0  0
   73.1123   83.1963   89.7177 H   0  0  0  0  0  0  0  0  0  0  0  0
   70.7625   84.9704   87.1552 C   0  0  0  0  0  0  0  0  0  0  0  0
   71.7627   85.6772   87.4521 O   0  0  0  0  0  0  0  0  0  0  0  0
   70.0695   85.2245   85.9751 O   0  0  0  0  0  0  0  0  0  0  0  0
   69.3249   84.7034   85.7475 H   0  0  0  0  0  0  0  0  0  0  0  0
  1  2  2  0  0  0  0
  2  3  2  0  0  0  0
  3  4  2  0  0  0  0
  4 25  1  0  0  0  0
  4  5  1  0  0  0  0
  5  6  2  0  0  0  0
  6  1  2  0  0  0  0
  7  8  2  0  0  0  0
  8  9  1  0  0  0  0
  9 10  2  0  0  0  0
 10 11  1  0  0  0  0
 11  1  1  0  0  0  0
 11 12  2  0  0  0  0
 12  7  1  0  0  0  0
 13 14  2  0  0  0  0
 13 15  1  0  0  0  0
 15  7  1  0  0  0  0
 15 16  1  0  0  0  0
 17 13  1  0  0  0  0
 18 17  1  0  0  0  0
 19 18  1  0  0  0  0
 20 19  1  0  0  0  0
 21 20  1  0  0  0  0
 22 21  1  0  0  0  0
 23 24  1  0  0  0  0
 24 22  1  0  0  0  0
 25 26  1  0  0  0  0
 26 27  1  0  0  0  0
 27 28  2  0  0  0  0
 28 29  1  0  0  0  0
 29 30  2  0  0  0  0
 30 31  1  0  0  0  0
 30 32  1  0  0  0  0
 31 34  1  0  0  0  0
 32 35  1  0  0  0  0
 32 33  2  0  0  0  0
 33 27  1  0  0  0  0
 35 36  2  0  0  0  0
 35 37  1  0  0  0  0
 37 38  1  0  0  0  0
M  END
>  <Activity>
14.3

>  <minimizedAffinity>
-8.09094

>  <RFScoreVS_v2>
5.95431554696

$$$$
HIPS7779
 OpenBabel05252300073D

 38 40  0  0  0  0  0  0  0  0999 V2000
   67.1414   76.8092   88.5469 C   0  0  0  0  0  0  0  0  0  0  0  0
   66.5885   77.6951   89.4212 N   0  0  0  0  0  0  0  0  0  0  0  0
   66.4474   79.0080   89.1040 C   0  0  0  0  0  0  0  0  0  0  0  0
   66.8696   79.4734   87.8531 C   0  0  0  0  0  0  0  0  0  0  0  0
   67.4443   78.5533   86.9696 C   0  0  0  0  0  0  0  0  0  0  0  0
   67.5669   77.2503   87.3307 N   0  0  0  0  0  0  0  0  0  0  0  0
   68.1547   73.6574   90.4265 C   0  0  0  0  0  0  0  0  0  0  0  0
   67.5717   72.6704   89.6216 C   0  0  0  0  0  0  0  0  0  0  0  0
   66.8330   73.0271   88.4921 C   0  0  0  0  0  0  0  0  0  0  0  0
   66.6851   74.3724   88.1451 C   0  0  0  0  0  0  0  0  0  0  0  0
   67.2893   75.3804   88.9201 C   0  0  0  0  0  0  0  0  0  0  0  0
   68.0302   75.0089   90.0582 C   0  0  0  0  0  0  0  0  0  0  0  0
   68.3149   73.0942   92.8877 C   0  0  0  0  0  0  0  0  0  0  0  0
   67.0611   73.0857   93.0281 O   0  0  0  0  0  0  0  0  0  0  0  0
   68.9033   73.2684   91.5886 N   0  0  0  0  0  0  0  0  0  0  0  0
   69.8705   73.1129   91.4900 H   0  0  0  0  0  0  0  0  0  0  0  0
   69.1882   72.9291   94.0942 C   0  0  0  0  0  0  0  0  0  0  0  0
   68.7903   73.9338   95.1793 C   0  0  0  0  0  0  0  0  0  0  0  0
   69.3722   75.3221   94.8867 C   0  0  0  0  0  0  0  0  0  0  0  0
   68.3422   76.2383   94.1862 C   0  0  0  0  0  0  0  0  0  0  0  0
   68.8929   76.8633   92.8913 C   0  0  0  0  0  0  0  0  0  0  0  0
   70.3872   76.5413   92.6608 C   0  0  0  0  0  0  0  0  0  0  0  0
   70.0446   78.0321   90.6143 C   0  0  0  0  0  0  0  0  0  0  0  0
   70.8976   76.9476   91.2680 C   0  0  0  0  0  0  0  0  0  0  0  0
   66.7392   80.9198   87.4756 C   0  0  0  0  0  0  0  0  0  0  0  0
   67.2090   81.7338   88.5468 O   0  0  0  0  0  0  0  0  0  0  0  0
   68.5327   82.1833   88.6791 C   0  0  0  0  0  0  0  0  0  0  0  0
   69.4541   81.5625   89.5390 C   0  0  0  0  0  0  0  0  0  0  0  0
   70.7536   82.0547   89.6507 C   0  0  0  0  0  0  0  0  0  0  0  0
   71.1591   83.1739   88.9161 C   0  0  0  0  0  0  0  0  0  0  0  0
   72.4485   83.6628   89.1332 O   0  0  0  0  0  0  0  0  0  0  0  0
   70.2522   83.7858   88.0164 C   0  0  0  0  0  0  0  0  0  0  0  0
   68.9414   83.2874   87.9236 C   0  0  0  0  0  0  0  0  0  0  0  0
   73.0186   83.2289   89.7372 H   0  0  0  0  0  0  0  0  0  0  0  0
   70.6366   84.9179   87.1470 C   0  0  0  0  0  0  0  0  0  0  0  0
   71.6792   85.5847   87.3847 O   0  0  0  0  0  0  0  0  0  0  0  0
   69.8674   85.2240   86.0281 O   0  0  0  0  0  0  0  0  0  0  0  0
   69.0909   84.7327   85.8446 H   0  0  0  0  0  0  0  0  0  0  0  0
  1  2  2  0  0  0  0
  2  3  2  0  0  0  0
  3  4  2  0  0  0  0
  4 25  1  0  0  0  0
  4  5  1  0  0  0  0
  5  6  2  0  0  0  0
  6  1  2  0  0  0  0
  7  8  2  0  0  0  0
  8  9  1  0  0  0  0
  9 10  2  0  0  0  0
 10 11  1  0  0  0  0
 11  1  1  0  0  0  0
 11 12  2  0  0  0  0
 12  7  1  0  0  0  0
 13 14  2  0  0  0  0
 13 15  1  0  0  0  0
 15  7  1  0  0  0  0
 15 16  1  0  0  0  0
 17 13  1  0  0  0  0
 18 17  1  0  0  0  0
 19 18  1  0  0  0  0
 20 19  1  0  0  0  0
 21 20  1  0  0  0  0
 22 21  1  0  0  0  0
 23 24  1  0  0  0  0
 24 22  1  0  0  0  0
 25 26  1  0  0  0  0
 26 27  1  0  0  0  0
 27 28  2  0  0  0  0
 28 29  1  0  0  0  0
 29 30  2  0  0  0  0
 30 31  1  0  0  0  0
 30 32  1  0  0  0  0
 31 34  1  0  0  0  0
 32 35  1  0  0  0  0
 32 33  2  0  0  0  0
 33 27  1  0  0  0  0
 35 36  2  0  0  0  0
 35 37  1  0  0  0  0
 37 38  1  0  0  0  0
M  END
>  <Activity>
14.3

>  <minimizedAffinity>
-7.96629

>  <RFScoreVS_v2>
5.95161988552

$$$$
HIPS7779
 OpenBabel05252300073D

 38 40  0  0  0  0  0  0  0  0999 V2000
   67.3832   77.2374   88.7448 C   0  0  0  0  0  0  0  0  0  0  0  0
   66.7248   76.4402   87.8583 N   0  0  0  0  0  0  0  0  0  0  0  0
   66.7056   75.0897   87.9997 C   0  0  0  0  0  0  0  0  0  0  0  0
   67.3676   74.4911   89.0782 C   0  0  0  0  0  0  0  0  0  0  0  0
   68.0475   75.3224   89.9749 C   0  0  0  0  0  0  0  0  0  0  0  0
   68.0410   76.6677   89.7925 N   0  0  0  0  0  0  0  0  0  0  0  0
   68.4638   80.8843   88.9047 C   0  0  0  0  0  0  0  0  0  0  0  0
   67.4068   81.5035   88.2255 C   0  0  0  0  0  0  0  0  0  0  0  0
   66.3648   80.7397   87.6967 C   0  0  0  0  0  0  0  0  0  0  0  0
   66.3590   79.3518   87.8574 C   0  0  0  0  0  0  0  0  0  0  0  0
   67.3935   78.7105   88.5647 C   0  0  0  0  0  0  0  0  0  0  0  0
   68.4402   79.4907   89.0917 C   0  0  0  0  0  0  0  0  0  0  0  0
   70.6798   81.1408   90.0979 C   0  0  0  0  0  0  0  0  0  0  0  0
   70.9033   79.8993   90.0751 O   0  0  0  0  0  0  0  0  0  0  0  0
   69.5298   81.6884   89.4333 N   0  0  0  0  0  0  0  0  0  0  0  0
   69.4693   82.6662   89.3351 H   0  0  0  0  0  0  0  0  0  0  0  0
   71.6238   82.0416   90.8349 C   0  0  0  0  0  0  0  0  0  0  0  0
   71.6333   83.4349   90.1996 C   0  0  0  0  0  0  0  0  0  0  0  0
   72.7809   83.5746   89.1920 C   0  0  0  0  0  0  0  0  0  0  0  0
   72.5806   84.7938   88.2621 C   0  0  0  0  0  0  0  0  0  0  0  0
   71.0942   85.1224   88.0319 C   0  0  0  0  0  0  0  0  0  0  0  0
   70.4872   84.3437   86.8423 C   0  0  0  0  0  0  0  0  0  0  0  0
   68.3057   85.1449   87.9041 C   0  0  0  0  0  0  0  0  0  0  0  0
   68.9793   84.5812   86.6551 C   0  0  0  0  0  0  0  0  0  0  0  0
   67.3761   73.0013   89.2569 C   0  0  0  0  0  0  0  0  0  0  0  0
   67.0013   72.6818   90.5941 O   0  0  0  0  0  0  0  0  0  0  0  0
   67.8520   72.7989   91.7052 C   0  0  0  0  0  0  0  0  0  0  0  0
   69.2135   72.4575   91.6475 C   0  0  0  0  0  0  0  0  0  0  0  0
   70.0162   72.5739   92.7815 C   0  0  0  0  0  0  0  0  0  0  0  0
   69.4807   73.0251   93.9924 C   0  0  0  0  0  0  0  0  0  0  0  0
   70.3192   73.0434   95.1084 O   0  0  0  0  0  0  0  0  0  0  0  0
   68.1188   73.4095   94.0545 C   0  0  0  0  0  0  0  0  0  0  0  0
   67.3180   73.2746   92.9074 C   0  0  0  0  0  0  0  0  0  0  0  0
   71.2150   72.7814   95.0256 H   0  0  0  0  0  0  0  0  0  0  0  0
   67.5068   73.9740   95.2761 C   0  0  0  0  0  0  0  0  0  0  0  0
   67.7672   75.1525   95.6388 O   0  0  0  0  0  0  0  0  0  0  0  0
   66.5986   73.2159   96.0095 O   0  0  0  0  0  0  0  0  0  0  0  0
   66.3999   72.3389   95.7461 H   0  0  0  0  0  0  0  0  0  0  0  0
  1  2  2  0  0  0  0
  2  3  2  0  0  0  0
  3  4  2  0  0  0  0
  4 25  1  0  0  0  0
  4  5  1  0  0  0  0
  5  6  2  0  0  0  0
  6  1  2  0  0  0  0
  7  8  2  0  0  0  0
  8  9  1  0  0  0  0
  9 10  2  0  0  0  0
 10 11  1  0  0  0  0
 11  1  1  0  0  0  0
 11 12  2  0  0  0  0
 12  7  1  0  0  0  0
 13 14  2  0  0  0  0
 13 15  1  0  0  0  0
 15  7  1  0  0  0  0
 15 16  1  0  0  0  0
 17 13  1  0  0  0  0
 18 17  1  0  0  0  0
 19 18  1  0  0  0  0
 20 19  1  0  0  0  0
 21 20  1  0  0  0  0
 22 21  1  0  0  0  0
 23 24  1  0  0  0  0
 24 22  1  0  0  0  0
 25 26  1  0  0  0  0
 26 27  1  0  0  0  0
 27 28  2  0  0  0  0
 28 29  1  0  0  0  0
 29 30  2  0  0  0  0
 30 31  1  0  0  0  0
 30 32  1  0  0  0  0
 31 34  1  0  0  0  0
 32 35  1  0  0  0  0
 32 33  2  0  0  0  0
 33 27  1  0  0  0  0
 35 36  2  0  0  0  0
 35 37  1  0  0  0  0
 37 38  1  0  0  0  0
M  END
>  <Activity>
14.3

>  <minimizedAffinity>
-7.95535

>  <RFScoreVS_v2>
5.96260782983

$$$$
HIPS7779
 OpenBabel05252300073D

 38 40  0  0  0  0  0  0  0  0999 V2000
   68.5202   75.3922   90.5262 C   0  0  0  0  0  0  0  0  0  0  0  0
   69.1043   75.8510   91.6678 N   0  0  0  0  0  0  0  0  0  0  0  0
   69.6137   74.9986   92.5941 C   0  0  0  0  0  0  0  0  0  0  0  0
   69.5488   73.6165   92.3815 C   0  0  0  0  0  0  0  0  0  0  0  0
   68.9373   73.1602   91.2088 C   0  0  0  0  0  0  0  0  0  0  0  0
   68.4402   74.0496   90.3116 N   0  0  0  0  0  0  0  0  0  0  0  0
   67.8197   78.6068   88.6108 C   0  0  0  0  0  0  0  0  0  0  0  0
   66.9104   78.1488   87.6489 C   0  0  0  0  0  0  0  0  0  0  0  0
   66.5481   76.8013   87.6060 C   0  0  0  0  0  0  0  0  0  0  0  0
   67.0763   75.9017   88.5355 C   0  0  0  0  0  0  0  0  0  0  0  0
   67.9664   76.3448   89.5321 C   0  0  0  0  0  0  0  0  0  0  0  0
   68.3262   77.7056   89.5641 C   0  0  0  0  0  0  0  0  0  0  0  0
   67.3028   81.0396   89.0742 C   0  0  0  0  0  0  0  0  0  0  0  0
   66.2193   80.7598   89.6569 O   0  0  0  0  0  0  0  0  0  0  0  0
   68.1849   79.9955   88.6314 N   0  0  0  0  0  0  0  0  0  0  0  0
   69.0869   80.2452   88.3260 H   0  0  0  0  0  0  0  0  0  0  0  0
   67.6585   82.4762   88.8392 C   0  0  0  0  0  0  0  0  0  0  0  0
   68.4313   82.6239   87.5254 C   0  0  0  0  0  0  0  0  0  0  0  0
   68.1469   83.9793   86.8668 C   0  0  0  0  0  0  0  0  0  0  0  0
   69.3441   84.9475   87.0101 C   0  0  0  0  0  0  0  0  0  0  0  0
   70.6881   84.2787   86.6683 C   0  0  0  0  0  0  0  0  0  0  0  0
   71.8244   84.6948   87.6302 C   0  0  0  0  0  0  0  0  0  0  0  0
   72.8818   83.2732   89.4713 C   0  0  0  0  0  0  0  0  0  0  0  0
   71.6785   84.1111   89.0456 C   0  0  0  0  0  0  0  0  0  0  0  0
   70.0910   72.6470   93.3903 C   0  0  0  0  0  0  0  0  0  0  0  0
   71.0532   71.8013   92.7661 O   0  0  0  0  0  0  0  0  0  0  0  0
   71.9798   71.0071   93.4608 C   0  0  0  0  0  0  0  0  0  0  0  0
   71.6006   70.1596   94.5152 C   0  0  0  0  0  0  0  0  0  0  0  0
   72.5586   69.4022   95.1877 C   0  0  0  0  0  0  0  0  0  0  0  0
   73.9087   69.4772   94.8296 C   0  0  0  0  0  0  0  0  0  0  0  0
   74.8259   68.7538   95.5939 O   0  0  0  0  0  0  0  0  0  0  0  0
   74.2994   70.2979   93.7433 C   0  0  0  0  0  0  0  0  0  0  0  0
   73.3253   71.0660   93.0828 C   0  0  0  0  0  0  0  0  0  0  0  0
   74.5269   68.2218   96.3050 H   0  0  0  0  0  0  0  0  0  0  0  0
   75.6936   70.3614   93.2560 C   0  0  0  0  0  0  0  0  0  0  0  0
   76.3051   69.3116   92.9214 O   0  0  0  0  0  0  0  0  0  0  0  0
   76.3243   71.5948   93.1204 O   0  0  0  0  0  0  0  0  0  0  0  0
   75.8761   72.3798   93.3670 H   0  0  0  0  0  0  0  0  0  0  0  0
  1  2  2  0  0  0  0
  2  3  2  0  0  0  0
  3  4  2  0  0  0  0
  4 25  1  0  0  0  0
  4  5  1  0  0  0  0
  5  6  2  0  0  0  0
  6  1  2  0  0  0  0
  7  8  2  0  0  0  0
  8  9  1  0  0  0  0
  9 10  2  0  0  0  0
 10 11  1  0  0  0  0
 11  1  1  0  0  0  0
 11 12  2  0  0  0  0
 12  7  1  0  0  0  0
 13 14  2  0  0  0  0
 13 15  1  0  0  0  0
 15  7  1  0  0  0  0
 15 16  1  0  0  0  0
 17 13  1  0  0  0  0
 18 17  1  0  0  0  0
 19 18  1  0  0  0  0
 20 19  1  0  0  0  0
 21 20  1  0  0  0  0
 22 21  1  0  0  0  0
 23 24  1  0  0  0  0
 24 22  1  0  0  0  0
 25 26  1  0  0  0  0
 26 27  1  0  0  0  0
 27 28  2  0  0  0  0
 28 29  1  0  0  0  0
 29 30  2  0  0  0  0
 30 31  1  0  0  0  0
 30 32  1  0  0  0  0
 31 34  1  0  0  0  0
 32 35  1  0  0  0  0
 32 33  2  0  0  0  0
 33 27  1  0  0  0  0
 35 36  2  0  0  0  0
 35 37  1  0  0  0  0
 37 38  1  0  0  0  0
M  END
>  <Activity>
14.3

>  <minimizedAffinity>
-7.83546

>  <RFScoreVS_v2>
5.95759754642

$$$$
HIPS7779
 OpenBabel05252300073D

 38 40  0  0  0  0  0  0  0  0999 V2000
   68.6553   76.9041   90.6955 C   0  0  0  0  0  0  0  0  0  0  0  0
   69.6901   77.6296   90.1876 N   0  0  0  0  0  0  0  0  0  0  0  0
   69.6224   78.9819   90.0837 C   0  0  0  0  0  0  0  0  0  0  0  0
   68.4729   79.6582   90.5089 C   0  0  0  0  0  0  0  0  0  0  0  0
   67.4147   78.8985   91.0194 C   0  0  0  0  0  0  0  0  0  0  0  0
   67.5264   77.5480   91.1027 N   0  0  0  0  0  0  0  0  0  0  0  0
   69.7150   73.4246   91.8197 C   0  0  0  0  0  0  0  0  0  0  0  0
   68.9375   72.6247   90.9726 C   0  0  0  0  0  0  0  0  0  0  0  0
   68.0564   73.2105   90.0620 C   0  0  0  0  0  0  0  0  0  0  0  0
   67.9572   74.6015   89.9756 C   0  0  0  0  0  0  0  0  0  0  0  0
   68.7524   75.4264   90.7935 C   0  0  0  0  0  0  0  0  0  0  0  0
   69.6357   74.8244   91.7096 C   0  0  0  0  0  0  0  0  0  0  0  0
   70.2770   71.6159   93.4969 C   0  0  0  0  0  0  0  0  0  0  0  0
   69.2448   70.9486   93.2123 O   0  0  0  0  0  0  0  0  0  0  0  0
   70.6085   72.8008   92.7550 N   0  0  0  0  0  0  0  0  0  0  0  0
   71.4946   73.2062   92.8951 H   0  0  0  0  0  0  0  0  0  0  0  0
   71.1528   71.1646   94.6260 C   0  0  0  0  0  0  0  0  0  0  0  0
   71.1267   69.6378   94.7408 C   0  0  0  0  0  0  0  0  0  0  0  0
   72.3878   69.0162   94.1284 C   0  0  0  0  0  0  0  0  0  0  0  0
   73.6381   69.2848   94.9976 C   0  0  0  0  0  0  0  0  0  0  0  0
   74.6476   70.2194   94.3065 C   0  0  0  0  0  0  0  0  0  0  0  0
   74.3072   70.4722   92.8198 C   0  0  0  0  0  0  0  0  0  0  0  0
   74.5574   68.6566   91.0396 C   0  0  0  0  0  0  0  0  0  0  0  0
   75.2520   69.7553   91.8406 C   0  0  0  0  0  0  0  0  0  0  0  0
   68.3609   81.1503   90.3968 C   0  0  0  0  0  0  0  0  0  0  0  0
   67.9236   81.4960   89.0853 O   0  0  0  0  0  0  0  0  0  0  0  0
   68.4696   82.5362   88.3162 C   0  0  0  0  0  0  0  0  0  0  0  0
   67.7448   83.1767   87.2972 C   0  0  0  0  0  0  0  0  0  0  0  0
   68.3345   84.1936   86.5476 C   0  0  0  0  0  0  0  0  0  0  0  0
   69.6541   84.5879   86.7921 C   0  0  0  0  0  0  0  0  0  0  0  0
   70.2099   85.5565   85.9544 O   0  0  0  0  0  0  0  0  0  0  0  0
   70.3831   83.9774   87.8419 C   0  0  0  0  0  0  0  0  0  0  0  0
   69.7810   82.9446   88.5809 C   0  0  0  0  0  0  0  0  0  0  0  0
   69.6939   85.9366   85.2708 H   0  0  0  0  0  0  0  0  0  0  0  0
   71.7504   84.4009   88.2115 C   0  0  0  0  0  0  0  0  0  0  0  0
   72.5433   83.5954   88.7689 O   0  0  0  0  0  0  0  0  0  0  0  0
   72.1849   85.6862   87.9010 O   0  0  0  0  0  0  0  0  0  0  0  0
   71.6012   86.2908   87.4866 H   0  0  0  0  0  0  0  0  0  0  0  0
  1  2  2  0  0  0  0
  2  3  2  0  0  0  0
  3  4  2  0  0  0  0
  4 25  1  0  0  0  0
  4  5  1  0  0  0  0
  5  6  2  0  0  0  0
  6  1  2  0  0  0  0
  7  8  2  0  0  0  0
  8  9  1  0  0  0  0
  9 10  2  0  0  0  0
 10 11  1  0  0  0  0
 11  1  1  0  0  0  0
 11 12  2  0  0  0  0
 12  7  1  0  0  0  0
 13 14  2  0  0  0  0
 13 15  1  0  0  0  0
 15  7  1  0  0  0  0
 15 16  1  0  0  0  0
 17 13  1  0  0  0  0
 18 17  1  0  0  0  0
 19 18  1  0  0  0  0
 20 19  1  0  0  0  0
 21 20  1  0  0  0  0
 22 21  1  0  0  0  0
 23 24  1  0  0  0  0
 24 22  1  0  0  0  0
 25 26  1  0  0  0  0
 26 27  1  0  0  0  0
 27 28  2  0  0  0  0
 28 29  1  0  0  0  0
 29 30  2  0  0  0  0
 30 31  1  0  0  0  0
 30 32  1  0  0  0  0
 31 34  1  0  0  0  0
 32 35  1  0  0  0  0
 32 33  2  0  0  0  0
 33 27  1  0  0  0  0
 35 36  2  0  0  0  0
 35 37  1  0  0  0  0
 37 38  1  0  0  0  0
M  END
>  <Activity>
14.3

>  <minimizedAffinity>
-7.81550

>  <RFScoreVS_v2>
5.98480753467

$$$$
HIPS7779
 OpenBabel05252300073D

 38 40  0  0  0  0  0  0  0  0999 V2000
   68.2419   77.5252   91.2037 C   0  0  0  0  0  0  0  0  0  0  0  0
   67.2714   77.3162   92.1360 N   0  0  0  0  0  0  0  0  0  0  0  0
   67.5529   76.7422   93.3341 C   0  0  0  0  0  0  0  0  0  0  0  0
   68.8652   76.3574   93.6328 C   0  0  0  0  0  0  0  0  0  0  0  0
   69.8494   76.5698   92.6613 C   0  0  0  0  0  0  0  0  0  0  0  0
   69.5211   77.1456   91.4764 N   0  0  0  0  0  0  0  0  0  0  0  0
   67.3479   80.1287   88.5737 C   0  0  0  0  0  0  0  0  0  0  0  0
   67.2674   79.3291   87.4266 C   0  0  0  0  0  0  0  0  0  0  0  0
   67.5275   77.9596   87.5018 C   0  0  0  0  0  0  0  0  0  0  0  0
   67.8522   77.3722   88.7273 C   0  0  0  0  0  0  0  0  0  0  0  0
   67.9070   78.1497   89.8996 C   0  0  0  0  0  0  0  0  0  0  0  0
   67.6449   79.5302   89.8111 C   0  0  0  0  0  0  0  0  0  0  0  0
   68.0944   82.5450   88.6398 C   0  0  0  0  0  0  0  0  0  0  0  0
   69.3145   82.2285   88.6927 O   0  0  0  0  0  0  0  0  0  0  0  0
   67.0847   81.5367   88.4719 N   0  0  0  0  0  0  0  0  0  0  0  0
   66.1642   81.8263   88.2768 H   0  0  0  0  0  0  0  0  0  0  0  0
   67.7056   83.9870   88.7633 C   0  0  0  0  0  0  0  0  0  0  0  0
   67.9371   84.7150   87.4361 C   0  0  0  0  0  0  0  0  0  0  0  0
   69.0203   85.7912   87.5782 C   0  0  0  0  0  0  0  0  0  0  0  0
   70.2814   85.4462   86.7526 C   0  0  0  0  0  0  0  0  0  0  0  0
   71.5695   85.4956   87.5945 C   0  0  0  0  0  0  0  0  0  0  0  0
   72.2107   84.1023   87.7882 C   0  0  0  0  0  0  0  0  0  0  0  0
   72.6100   82.7733   89.9336 C   0  0  0  0  0  0  0  0  0  0  0  0
   73.0253   83.9737   89.0864 C   0  0  0  0  0  0  0  0  0  0  0  0
   69.2080   75.7096   94.9422 C   0  0  0  0  0  0  0  0  0  0  0  0
   68.6076   74.4187   95.0043 O   0  0  0  0  0  0  0  0  0  0  0  0
   68.9195   73.3571   94.1398 C   0  0  0  0  0  0  0  0  0  0  0  0
   68.0447   72.9332   93.1255 C   0  0  0  0  0  0  0  0  0  0  0  0
   68.3896   71.8626   92.3016 C   0  0  0  0  0  0  0  0  0  0  0  0
   69.6047   71.1914   92.4738 C   0  0  0  0  0  0  0  0  0  0  0  0
   69.8538   70.0792   91.6677 O   0  0  0  0  0  0  0  0  0  0  0  0
   70.5128   71.6331   93.4670 C   0  0  0  0  0  0  0  0  0  0  0  0
   70.1467   72.7050   94.2991 C   0  0  0  0  0  0  0  0  0  0  0  0
   69.2272   69.8192   91.0215 H   0  0  0  0  0  0  0  0  0  0  0  0
   71.8484   71.0264   93.6496 C   0  0  0  0  0  0  0  0  0  0  0  0
   72.8083   71.7097   94.0968 O   0  0  0  0  0  0  0  0  0  0  0  0
   72.0399   69.6764   93.3698 O   0  0  0  0  0  0  0  0  0  0  0  0
   71.3311   69.1618   93.0371 H   0  0  0  0  0  0  0  0  0  0  0  0
  1  2  2  0  0  0  0
  2  3  2  0  0  0  0
  3  4  2  0  0  0  0
  4 25  1  0  0  0  0
  4  5  1  0  0  0  0
  5  6  2  0  0  0  0
  6  1  2  0  0  0  0
  7  8  2  0  0  0  0
  8  9  1  0  0  0  0
  9 10  2  0  0  0  0
 10 11  1  0  0  0  0
 11  1  1  0  0  0  0
 11 12  2  0  0  0  0
 12  7  1  0  0  0  0
 13 14  2  0  0  0  0
 13 15  1  0  0  0  0
 15  7  1  0  0  0  0
 15 16  1  0  0  0  0
 17 13  1  0  0  0  0
 18 17  1  0  0  0  0
 19 18  1  0  0  0  0
 20 19  1  0  0  0  0
 21 20  1  0  0  0  0
 22 21  1  0  0  0  0
 23 24  1  0  0  0  0
 24 22  1  0  0  0  0
 25 26  1  0  0  0  0
 26 27  1  0  0  0  0
 27 28  2  0  0  0  0
 28 29  1  0  0  0  0
 29 30  2  0  0  0  0
 30 31  1  0  0  0  0
 30 32  1  0  0  0  0
 31 34  1  0  0  0  0
 32 35  1  0  0  0  0
 32 33  2  0  0  0  0
 33 27  1  0  0  0  0
 35 36  2  0  0  0  0
 35 37  1  0  0  0  0
 37 38  1  0  0  0  0
M  END
>  <Activity>
14.3

>  <minimizedAffinity>
-7.79741

>  <RFScoreVS_v2>
5.9776875943

$$$$
HIPS7779
 OpenBabel05252300073D

 38 40  0  0  0  0  0  0  0  0999 V2000
   68.0471   77.2098   89.5242 C   0  0  0  0  0  0  0  0  0  0  0  0
   67.0930   78.1198   89.1824 N   0  0  0  0  0  0  0  0  0  0  0  0
   67.3176   79.4548   89.2900 C   0  0  0  0  0  0  0  0  0  0  0  0
   68.5533   79.9197   89.7552 C   0  0  0  0  0  0  0  0  0  0  0  0
   69.5197   78.9728   90.1114 C   0  0  0  0  0  0  0  0  0  0  0  0
   69.2500   77.6478   89.9889 N   0  0  0  0  0  0  0  0  0  0  0  0
   68.1924   73.4505   90.1072 C   0  0  0  0  0  0  0  0  0  0  0  0
   67.2590   73.0003   89.1649 C   0  0  0  0  0  0  0  0  0  0  0  0
   66.5684   73.9125   88.3650 C   0  0  0  0  0  0  0  0  0  0  0  0
   66.8172   75.2821   88.4855 C   0  0  0  0  0  0  0  0  0  0  0  0
   67.7746   75.7560   89.4023 C   0  0  0  0  0  0  0  0  0  0  0  0
   68.4633   74.8270   90.2052 C   0  0  0  0  0  0  0  0  0  0  0  0
   68.4114   72.0628   92.2112 C   0  0  0  0  0  0  0  0  0  0  0  0
   67.2486   72.3608   92.5997 O   0  0  0  0  0  0  0  0  0  0  0  0
   68.8852   72.4953   90.9256 N   0  0  0  0  0  0  0  0  0  0  0  0
   69.7291   72.1169   90.5881 H   0  0  0  0  0  0  0  0  0  0  0  0
   69.3004   71.2583   93.1100 C   0  0  0  0  0  0  0  0  0  0  0  0
   70.3571   72.1588   93.7563 C   0  0  0  0  0  0  0  0  0  0  0  0
   69.7064   73.2126   94.6606 C   0  0  0  0  0  0  0  0  0  0  0  0
   69.6581   74.6000   93.9796 C   0  0  0  0  0  0  0  0  0  0  0  0
   68.3862   75.3897   94.3387 C   0  0  0  0  0  0  0  0  0  0  0  0
   68.3621   76.8019   93.7101 C   0  0  0  0  0  0  0  0  0  0  0  0
   65.8125   76.7973   93.8780 C   0  0  0  0  0  0  0  0  0  0  0  0
   67.0294   77.1492   93.0255 C   0  0  0  0  0  0  0  0  0  0  0  0
   68.8296   81.3877   89.8975 C   0  0  0  0  0  0  0  0  0  0  0  0
   70.2378   81.6055   89.9175 O   0  0  0  0  0  0  0  0  0  0  0  0
   70.8740   82.7285   89.3644 C   0  0  0  0  0  0  0  0  0  0  0  0
   72.2425   82.9846   89.5526 C   0  0  0  0  0  0  0  0  0  0  0  0
   72.8276   84.1222   88.9983 C   0  0  0  0  0  0  0  0  0  0  0  0
   72.0643   85.0273   88.2535 C   0  0  0  0  0  0  0  0  0  0  0  0
   72.6935   86.1854   87.7934 O   0  0  0  0  0  0  0  0  0  0  0  0
   70.6921   84.7613   88.0235 C   0  0  0  0  0  0  0  0  0  0  0  0
   70.1123   83.6178   88.5991 C   0  0  0  0  0  0  0  0  0  0  0  0
   73.6038   86.3243   87.9666 H   0  0  0  0  0  0  0  0  0  0  0  0
   69.8452   85.6282   87.1770 C   0  0  0  0  0  0  0  0  0  0  0  0
   69.5870   86.8113   87.5258 O   0  0  0  0  0  0  0  0  0  0  0  0
   69.3647   85.1519   85.9606 O   0  0  0  0  0  0  0  0  0  0  0  0
   69.5524   84.2733   85.6943 H   0  0  0  0  0  0  0  0  0  0  0  0
  1  2  2  0  0  0  0
  2  3  2  0  0  0  0
  3  4  2  0  0  0  0
  4 25  1  0  0  0  0
  4  5  1  0  0  0  0
  5  6  2  0  0  0  0
  6  1  2  0  0  0  0
  7  8  2  0  0  0  0
  8  9  1  0  0  0  0
  9 10  2  0  0  0  0
 10 11  1  0  0  0  0
 11  1  1  0  0  0  0
 11 12  2  0  0  0  0
 12  7  1  0  0  0  0
 13 14  2  0  0  0  0
 13 15  1  0  0  0  0
 15  7  1  0  0  0  0
 15 16  1  0  0  0  0
 17 13  1  0  0  0  0
 18 17  1  0  0  0  0
 19 18  1  0  0  0  0
 20 19  1  0  0  0  0
 21 20  1  0  0  0  0
 22 21  1  0  0  0  0
 23 24  1  0  0  0  0
 24 22  1  0  0  0  0
 25 26  1  0  0  0  0
 26 27  1  0  0  0  0
 27 28  2  0  0  0  0
 28 29  1  0  0  0  0
 29 30  2  0  0  0  0
 30 31  1  0  0  0  0
 30 32  1  0  0  0  0
 31 34  1  0  0  0  0
 32 35  1  0  0  0  0
 32 33  2  0  0  0  0
 33 27  1  0  0  0  0
 35 36  2  0  0  0  0
 35 37  1  0  0  0  0
 37 38  1  0  0  0  0
M  END
>  <Activity>
14.3

>  <minimizedAffinity>
-7.77976

>  <RFScoreVS_v2>
5.95419151498

$$$$
HIPS7779
 OpenBabel05252300073D

 38 40  0  0  0  0  0  0  0  0999 V2000
   67.7018   75.6684   92.9129 C   0  0  0  0  0  0  0  0  0  0  0  0
   67.4979   74.8010   93.9430 N   0  0  0  0  0  0  0  0  0  0  0  0
   68.0585   73.5641   93.9479 C   0  0  0  0  0  0  0  0  0  0  0  0
   68.8698   73.1609   92.8808 C   0  0  0  0  0  0  0  0  0  0  0  0
   69.0619   74.0592   91.8256 C   0  0  0  0  0  0  0  0  0  0  0  0
   68.4797   75.2852   91.8628 N   0  0  0  0  0  0  0  0  0  0  0  0
   66.9786   79.3228   92.1281 C   0  0  0  0  0  0  0  0  0  0  0  0
   65.8822   79.5615   92.9665 C   0  0  0  0  0  0  0  0  0  0  0  0
   65.3653   78.5364   93.7606 C   0  0  0  0  0  0  0  0  0  0  0  0
   65.9503   77.2677   93.7389 C   0  0  0  0  0  0  0  0  0  0  0  0
   67.0732   77.0128   92.9291 C   0  0  0  0  0  0  0  0  0  0  0  0
   67.5845   78.0538   92.1309 C   0  0  0  0  0  0  0  0  0  0  0  0
   67.4257   80.3892   89.8779 C   0  0  0  0  0  0  0  0  0  0  0  0
   66.7345   79.5289   89.2665 O   0  0  0  0  0  0  0  0  0  0  0  0
   67.4888   80.3896   91.3133 N   0  0  0  0  0  0  0  0  0  0  0  0
   67.9036   81.1617   91.7617 H   0  0  0  0  0  0  0  0  0  0  0  0
   68.1904   81.4090   89.0901 C   0  0  0  0  0  0  0  0  0  0  0  0
   67.3269   81.9559   87.9497 C   0  0  0  0  0  0  0  0  0  0  0  0
   68.1836   82.6914   86.9120 C   0  0  0  0  0  0  0  0  0  0  0  0
   67.7195   84.1539   86.7199 C   0  0  0  0  0  0  0  0  0  0  0  0
   68.7845   85.1739   87.1623 C   0  0  0  0  0  0  0  0  0  0  0  0
   70.1806   84.8757   86.5690 C   0  0  0  0  0  0  0  0  0  0  0  0
   72.0891   84.1718   88.1152 C   0  0  0  0  0  0  0  0  0  0  0  0
   71.3425   85.3347   87.4661 C   0  0  0  0  0  0  0  0  0  0  0  0
   69.4943   71.7968   92.8493 C   0  0  0  0  0  0  0  0  0  0  0  0
   69.9110   71.4355   94.1633 O   0  0  0  0  0  0  0  0  0  0  0  0
   71.1013   70.7511   94.4572 C   0  0  0  0  0  0  0  0  0  0  0  0
   71.2100   69.8657   95.5426 C   0  0  0  0  0  0  0  0  0  0  0  0
   72.4179   69.2214   95.8061 C   0  0  0  0  0  0  0  0  0  0  0  0
   73.5392   69.4488   95.0015 C   0  0  0  0  0  0  0  0  0  0  0  0
   74.7380   68.8336   95.3666 O   0  0  0  0  0  0  0  0  0  0  0  0
   73.4329   70.3090   93.8811 C   0  0  0  0  0  0  0  0  0  0  0  0
   72.2131   70.9621   93.6349 C   0  0  0  0  0  0  0  0  0  0  0  0
   74.7668   68.2710   96.1153 H   0  0  0  0  0  0  0  0  0  0  0  0
   74.5509   70.5302   92.9396 C   0  0  0  0  0  0  0  0  0  0  0  0
   74.6337   69.8636   91.8733 O   0  0  0  0  0  0  0  0  0  0  0  0
   75.4974   71.5150   93.2075 O   0  0  0  0  0  0  0  0  0  0  0  0
   75.4425   72.0148   93.9982 H   0  0  0  0  0  0  0  0  0  0  0  0
  1  2  2  0  0  0  0
  2  3  2  0  0  0  0
  3  4  2  0  0  0  0
  4 25  1  0  0  0  0
  4  5  1  0  0  0  0
  5  6  2  0  0  0  0
  6  1  2  0  0  0  0
  7  8  2  0  0  0  0
  8  9  1  0  0  0  0
  9 10  2  0  0  0  0
 10 11  1  0  0  0  0
 11  1  1  0  0  0  0
 11 12  2  0  0  0  0
 12  7  1  0  0  0  0
 13 14  2  0  0  0  0
 13 15  1  0  0  0  0
 15  7  1  0  0  0  0
 15 16  1  0  0  0  0
 17 13  1  0  0  0  0
 18 17  1  0  0  0  0
 19 18  1  0  0  0  0
 20 19  1  0  0  0  0
 21 20  1  0  0  0  0
 22 21  1  0  0  0  0
 23 24  1  0  0  0  0
 24 22  1  0  0  0  0
 25 26  1  0  0  0  0
 26 27  1  0  0  0  0
 27 28  2  0  0  0  0
 28 29  1  0  0  0  0
 29 30  2  0  0  0  0
 30 31  1  0  0  0  0
 30 32  1  0  0  0  0
 31 34  1  0  0  0  0
 32 35  1  0  0  0  0
 32 33  2  0  0  0  0
 33 27  1  0  0  0  0
 35 36  2  0  0  0  0
 35 37  1  0  0  0  0
 37 38  1  0  0  0  0
M  END
>  <Activity>
14.3

>  <minimizedAffinity>
-7.74856

>  <RFScoreVS_v2>
5.95705507966

$$$$
HIPS7004
 OpenBabel05252300073D

 34 37  0  0  0  0  0  0  0  0999 V2000
   67.6386   79.2913   88.9536 C   0  0  0  0  0  0  0  0  0  0  0  0
   67.0636   79.1446   87.6829 C   0  0  0  0  0  0  0  0  0  0  0  0
   66.8683   77.8726   87.1418 C   0  0  0  0  0  0  0  0  0  0  0  0
   67.2319   76.7376   87.8671 C   0  0  0  0  0  0  0  0  0  0  0  0
   67.7830   76.8614   89.1544 C   0  0  0  0  0  0  0  0  0  0  0  0
   67.9930   78.1475   89.6870 C   0  0  0  0  0  0  0  0  0  0  0  0
   68.1473   75.6458   89.9209 C   0  0  0  0  0  0  0  0  0  0  0  0
   67.7290   74.3682   89.5120 C   0  0  0  0  0  0  0  0  0  0  0  0
   68.1174   73.2509   90.2496 C   0  0  0  0  0  0  0  0  0  0  0  0
   68.9120   73.4049   91.3858 C   0  0  0  0  0  0  0  0  0  0  0  0
   69.3039   74.6942   91.7842 C   0  0  0  0  0  0  0  0  0  0  0  0
   68.9200   75.7648   91.0373 N   0  0  0  0  0  0  0  0  0  0  0  0
   70.0789   74.9260   92.9314 O   0  0  0  0  0  0  0  0  0  0  0  0
   69.6643   75.6834   94.0689 C   0  0  0  0  0  0  0  0  0  0  0  0
   68.2721   75.2979   94.4983 C   0  0  0  0  0  0  0  0  0  0  0  0
   67.1716   76.0866   94.1211 C   0  0  0  0  0  0  0  0  0  0  0  0
   65.8804   75.7346   94.5273 C   0  0  0  0  0  0  0  0  0  0  0  0
   65.6810   74.6012   95.3199 C   0  0  0  0  0  0  0  0  0  0  0  0
   66.7707   73.8180   95.7098 C   0  0  0  0  0  0  0  0  0  0  0  0
   68.0633   74.1659   95.3054 C   0  0  0  0  0  0  0  0  0  0  0  0
   67.8953   80.6571   89.5320 C   0  0  0  0  0  0  0  0  0  0  0  0
   69.2863   80.8267   89.8109 O   0  0  0  0  0  0  0  0  0  0  0  0
   70.2441   83.9660   88.0736 C   0  0  0  0  0  0  0  0  0  0  0  0
   69.5142   82.8443   88.5185 C   0  0  0  0  0  0  0  0  0  0  0  0
   70.0713   81.9228   89.4129 C   0  0  0  0  0  0  0  0  0  0  0  0
   71.3861   82.1196   89.8669 C   0  0  0  0  0  0  0  0  0  0  0  0
   72.1229   83.2221   89.4342 C   0  0  0  0  0  0  0  0  0  0  0  0
   71.5655   84.1473   88.5428 C   0  0  0  0  0  0  0  0  0  0  0  0
   72.3286   85.2394   88.1267 O   0  0  0  0  0  0  0  0  0  0  0  0
   73.2031   85.3483   88.4450 H   0  0  0  0  0  0  0  0  0  0  0  0
   68.4554   85.3682   87.3489 O   0  0  0  0  0  0  0  0  0  0  0  0
   69.6139   84.9227   87.1254 C   0  0  0  0  0  0  0  0  0  0  0  0
   70.2869   85.3438   85.9814 O   0  0  0  0  0  0  0  0  0  0  0  0
   71.1483   85.0229   85.7998 H   0  0  0  0  0  0  0  0  0  0  0  0
  1  2  2  0  0  0  0
  2  3  1  0  0  0  0
  3  4  2  0  0  0  0
  4  5  1  0  0  0  0
  5  7  1  0  0  0  0
  5  6  2  0  0  0  0
  6  1  1  0  0  0  0
  7  8  2  0  0  0  0
  8  9  1  0  0  0  0
  9 10  2  0  0  0  0
 10 11  1  0  0  0  0
 11 13  1  0  0  0  0
 11 12  2  0  0  0  0
 12  7  2  0  0  0  0
 13 14  1  0  0  0  0
 14 15  1  0  0  0  0
 15 16  2  0  0  0  0
 16 17  1  0  0  0  0
 17 18  2  0  0  0  0
 18 19  1  0  0  0  0
 19 20  2  0  0  0  0
 20 15  1  0  0  0  0
 21  1  1  0  0  0  0
 22 21  1  0  0  0  0
 23 24  2  0  0  0  0
 24 25  1  0  0  0  0
 25 22  1  0  0  0  0
 25 26  2  0  0  0  0
 26 27  1  0  0  0  0
 27 28  2  0  0  0  0
 28 29  1  0  0  0  0
 28 23  1  0  0  0  0
 29 30  1  0  0  0  0
 31 32  2  0  0  0  0
 32 33  1  0  0  0  0
 32 23  1  0  0  0  0
 33 34  1  0  0  0  0
M  END
>  <Activity>
16.3

>  <minimizedAffinity>
-9.33158

>  <RFScoreVS_v2>
5.96592577728

$$$$
HIPS7004
 OpenBabel05252300073D

 34 37  0  0  0  0  0  0  0  0999 V2000
   67.2226   79.2669   88.9390 C   0  0  0  0  0  0  0  0  0  0  0  0
   66.7987   79.0726   87.6163 C   0  0  0  0  0  0  0  0  0  0  0  0
   66.8270   77.7975   87.0487 C   0  0  0  0  0  0  0  0  0  0  0  0
   67.2652   76.7050   87.7977 C   0  0  0  0  0  0  0  0  0  0  0  0
   67.6668   76.8731   89.1344 C   0  0  0  0  0  0  0  0  0  0  0  0
   67.6519   78.1643   89.6951 C   0  0  0  0  0  0  0  0  0  0  0  0
   68.1122   75.7000   89.9240 C   0  0  0  0  0  0  0  0  0  0  0  0
   67.7702   74.3901   89.5476 C   0  0  0  0  0  0  0  0  0  0  0  0
   68.2334   73.3160   90.3058 C   0  0  0  0  0  0  0  0  0  0  0  0
   69.0267   73.5444   91.4304 C   0  0  0  0  0  0  0  0  0  0  0  0
   69.3416   74.8642   91.7961 C   0  0  0  0  0  0  0  0  0  0  0  0
   68.8857   75.8918   91.0296 N   0  0  0  0  0  0  0  0  0  0  0  0
   70.1106   75.1693   92.9301 O   0  0  0  0  0  0  0  0  0  0  0  0
   69.6516   75.9023   94.0665 C   0  0  0  0  0  0  0  0  0  0  0  0
   68.2824   75.4389   94.4930 C   0  0  0  0  0  0  0  0  0  0  0  0
   67.1402   76.1659   94.1160 C   0  0  0  0  0  0  0  0  0  0  0  0
   65.8701   75.7416   94.5196 C   0  0  0  0  0  0  0  0  0  0  0  0
   65.7331   74.5972   95.3096 C   0  0  0  0  0  0  0  0  0  0  0  0
   66.8642   73.8751   95.6994 C   0  0  0  0  0  0  0  0  0  0  0  0
   68.1360   74.2953   95.2974 C   0  0  0  0  0  0  0  0  0  0  0  0
   67.2387   80.6422   89.5505 C   0  0  0  0  0  0  0  0  0  0  0  0
   68.5351   81.2290   89.4230 O   0  0  0  0  0  0  0  0  0  0  0  0
   70.5165   83.9870   87.9203 C   0  0  0  0  0  0  0  0  0  0  0  0
   70.1161   82.9088   88.7364 C   0  0  0  0  0  0  0  0  0  0  0  0
   68.8682   82.2965   88.5713 C   0  0  0  0  0  0  0  0  0  0  0  0
   67.9984   82.7744   87.5770 C   0  0  0  0  0  0  0  0  0  0  0  0
   68.3776   83.8420   86.7633 C   0  0  0  0  0  0  0  0  0  0  0  0
   69.6276   84.4528   86.9244 C   0  0  0  0  0  0  0  0  0  0  0  0
   69.9775   85.5202   86.0960 O   0  0  0  0  0  0  0  0  0  0  0  0
   69.3795   85.8195   85.4397 H   0  0  0  0  0  0  0  0  0  0  0  0
   72.0009   85.8530   87.9969 O   0  0  0  0  0  0  0  0  0  0  0  0
   71.8522   84.6073   88.1268 C   0  0  0  0  0  0  0  0  0  0  0  0
   72.9565   83.8305   88.4673 O   0  0  0  0  0  0  0  0  0  0  0  0
   72.8641   82.9035   88.5679 H   0  0  0  0  0  0  0  0  0  0  0  0
  1  2  2  0  0  0  0
  2  3  1  0  0  0  0
  3  4  2  0  0  0  0
  4  5  1  0  0  0  0
  5  7  1  0  0  0  0
  5  6  2  0  0  0  0
  6  1  1  0  0  0  0
  7  8  2  0  0  0  0
  8  9  1  0  0  0  0
  9 10  2  0  0  0  0
 10 11  1  0  0  0  0
 11 13  1  0  0  0  0
 11 12  2  0  0  0  0
 12  7  2  0  0  0  0
 13 14  1  0  0  0  0
 14 15  1  0  0  0  0
 15 16  2  0  0  0  0
 16 17  1  0  0  0  0
 17 18  2  0  0  0  0
 18 19  1  0  0  0  0
 19 20  2  0  0  0  0
 20 15  1  0  0  0  0
 21  1  1  0  0  0  0
 22 21  1  0  0  0  0
 23 24  2  0  0  0  0
 24 25  1  0  0  0  0
 25 22  1  0  0  0  0
 25 26  2  0  0  0  0
 26 27  1  0  0  0  0
 27 28  2  0  0  0  0
 28 29  1  0  0  0  0
 28 23  1  0  0  0  0
 29 30  1  0  0  0  0
 31 32  2  0  0  0  0
 32 33  1  0  0  0  0
 32 23  1  0  0  0  0
 33 34  1  0  0  0  0
M  END
>  <Activity>
16.3

>  <minimizedAffinity>
-9.26984

>  <RFScoreVS_v2>
5.98179165664

$$$$
HIPS7004
 OpenBabel05252300073D

 34 37  0  0  0  0  0  0  0  0999 V2000
   69.7260   76.4672   92.0111 C   0  0  0  0  0  0  0  0  0  0  0  0
   71.1139   76.6587   91.9474 C   0  0  0  0  0  0  0  0  0  0  0  0
   71.6592   77.5505   91.0221 C   0  0  0  0  0  0  0  0  0  0  0  0
   70.8262   78.2675   90.1628 C   0  0  0  0  0  0  0  0  0  0  0  0
   69.4306   78.1123   90.2299 C   0  0  0  0  0  0  0  0  0  0  0  0
   68.8884   77.1986   91.1535 C   0  0  0  0  0  0  0  0  0  0  0  0
   68.5568   78.8948   89.3233 C   0  0  0  0  0  0  0  0  0  0  0  0
   67.7304   78.2651   88.3773 C   0  0  0  0  0  0  0  0  0  0  0  0
   66.9058   79.0403   87.5634 C   0  0  0  0  0  0  0  0  0  0  0  0
   66.9070   80.4297   87.6880 C   0  0  0  0  0  0  0  0  0  0  0  0
   67.7544   81.0374   88.6300 C   0  0  0  0  0  0  0  0  0  0  0  0
   68.5388   80.2542   89.4192 N   0  0  0  0  0  0  0  0  0  0  0  0
   67.8282   82.4299   88.7902 O   0  0  0  0  0  0  0  0  0  0  0  0
   68.7089   83.1130   89.6831 C   0  0  0  0  0  0  0  0  0  0  0  0
   70.0076   83.4611   89.0023 C   0  0  0  0  0  0  0  0  0  0  0  0
   71.2218   83.3660   89.7039 C   0  0  0  0  0  0  0  0  0  0  0  0
   72.4263   83.6981   89.0755 C   0  0  0  0  0  0  0  0  0  0  0  0
   72.4256   84.1366   87.7488 C   0  0  0  0  0  0  0  0  0  0  0  0
   71.2218   84.2459   87.0474 C   0  0  0  0  0  0  0  0  0  0  0  0
   70.0152   83.9142   87.6716 C   0  0  0  0  0  0  0  0  0  0  0  0
   69.1265   75.4773   92.9734 C   0  0  0  0  0  0  0  0  0  0  0  0
   70.0901   74.4857   93.3331 O   0  0  0  0  0  0  0  0  0  0  0  0
   70.4910   70.8057   93.6293 C   0  0  0  0  0  0  0  0  0  0  0  0
   70.5181   72.1880   93.9077 C   0  0  0  0  0  0  0  0  0  0  0  0
   70.0282   73.1241   92.9894 C   0  0  0  0  0  0  0  0  0  0  0  0
   69.5077   72.6730   91.7650 C   0  0  0  0  0  0  0  0  0  0  0  0
   69.4764   71.3094   91.4726 C   0  0  0  0  0  0  0  0  0  0  0  0
   69.9621   70.3714   92.3921 C   0  0  0  0  0  0  0  0  0  0  0  0
   69.9189   69.0141   92.0698 O   0  0  0  0  0  0  0  0  0  0  0  0
   69.5659   68.7390   91.2466 H   0  0  0  0  0  0  0  0  0  0  0  0
   70.2726   68.9421   95.1026 O   0  0  0  0  0  0  0  0  0  0  0  0
   71.0188   69.8443   94.6336 C   0  0  0  0  0  0  0  0  0  0  0  0
   72.3386   69.9197   95.0711 O   0  0  0  0  0  0  0  0  0  0  0  0
   72.9069   70.5836   94.7333 H   0  0  0  0  0  0  0  0  0  0  0  0
  1  2  2  0  0  0  0
  2  3  1  0  0  0  0
  3  4  2  0  0  0  0
  4  5  1  0  0  0  0
  5  7  1  0  0  0  0
  5  6  2  0  0  0  0
  6  1  1  0  0  0  0
  7  8  2  0  0  0  0
  8  9  1  0  0  0  0
  9 10  2  0  0  0  0
 10 11  1  0  0  0  0
 11 13  1  0  0  0  0
 11 12  2  0  0  0  0
 12  7  2  0  0  0  0
 13 14  1  0  0  0  0
 14 15  1  0  0  0  0
 15 16  2  0  0  0  0
 16 17  1  0  0  0  0
 17 18  2  0  0  0  0
 18 19  1  0  0  0  0
 19 20  2  0  0  0  0
 20 15  1  0  0  0  0
 21  1  1  0  0  0  0
 22 21  1  0  0  0  0
 23 24  2  0  0  0  0
 24 25  1  0  0  0  0
 25 22  1  0  0  0  0
 25 26  2  0  0  0  0
 26 27  1  0  0  0  0
 27 28  2  0  0  0  0
 28 29  1  0  0  0  0
 28 23  1  0  0  0  0
 29 30  1  0  0  0  0
 31 32  2  0  0  0  0
 32 33  1  0  0  0  0
 32 23  1  0  0  0  0
 33 34  1  0  0  0  0
M  END
>  <Activity>
16.3

>  <minimizedAffinity>
-9.16520

>  <RFScoreVS_v2>
5.96971154542

$$$$
HIPS7004
 OpenBabel05252300073D

 34 37  0  0  0  0  0  0  0  0999 V2000
   67.3659   80.3310   88.3326 C   0  0  0  0  0  0  0  0  0  0  0  0
   66.5944   79.3959   87.6275 C   0  0  0  0  0  0  0  0  0  0  0  0
   66.8708   78.0318   87.7352 C   0  0  0  0  0  0  0  0  0  0  0  0
   67.9086   77.5882   88.5553 C   0  0  0  0  0  0  0  0  0  0  0  0
   68.6754   78.5067   89.2933 C   0  0  0  0  0  0  0  0  0  0  0  0
   68.4023   79.8819   89.1668 C   0  0  0  0  0  0  0  0  0  0  0  0
   69.7629   78.0194   90.1752 C   0  0  0  0  0  0  0  0  0  0  0  0
   71.0982   78.4089   89.9765 C   0  0  0  0  0  0  0  0  0  0  0  0
   72.0840   77.9464   90.8468 C   0  0  0  0  0  0  0  0  0  0  0  0
   71.7436   77.1010   91.9030 C   0  0  0  0  0  0  0  0  0  0  0  0
   70.4038   76.7122   92.0714 C   0  0  0  0  0  0  0  0  0  0  0  0
   69.4616   77.1897   91.2137 N   0  0  0  0  0  0  0  0  0  0  0  0
   69.9939   75.8424   93.0940 O   0  0  0  0  0  0  0  0  0  0  0  0
   69.3896   76.2414   94.3249 C   0  0  0  0  0  0  0  0  0  0  0  0
   68.0776   75.5314   94.5395 C   0  0  0  0  0  0  0  0  0  0  0  0
   66.9400   75.9102   93.8062 C   0  0  0  0  0  0  0  0  0  0  0  0
   65.7200   75.2580   94.0118 C   0  0  0  0  0  0  0  0  0  0  0  0
   65.6253   74.2327   94.9565 C   0  0  0  0  0  0  0  0  0  0  0  0
   66.7484   73.8577   95.6988 C   0  0  0  0  0  0  0  0  0  0  0  0
   67.9703   74.5067   95.4959 C   0  0  0  0  0  0  0  0  0  0  0  0
   67.1077   81.8073   88.1929 C   0  0  0  0  0  0  0  0  0  0  0  0
   67.9051   82.3553   87.1416 O   0  0  0  0  0  0  0  0  0  0  0  0
   71.0291   83.9560   88.3535 C   0  0  0  0  0  0  0  0  0  0  0  0
   69.9862   83.0299   88.1450 C   0  0  0  0  0  0  0  0  0  0  0  0
   68.9102   83.3252   87.2996 C   0  0  0  0  0  0  0  0  0  0  0  0
   68.8695   84.5728   86.6551 C   0  0  0  0  0  0  0  0  0  0  0  0
   69.8914   85.5014   86.8530 C   0  0  0  0  0  0  0  0  0  0  0  0
   70.9707   85.2058   87.6950 C   0  0  0  0  0  0  0  0  0  0  0  0
   71.9768   86.1564   87.8743 O   0  0  0  0  0  0  0  0  0  0  0  0
   71.9265   86.9809   87.4321 H   0  0  0  0  0  0  0  0  0  0  0  0
   73.2960   84.1105   89.0807 O   0  0  0  0  0  0  0  0  0  0  0  0
   72.1556   83.6015   89.2574 C   0  0  0  0  0  0  0  0  0  0  0  0
   71.9739   82.7086   90.3102 O   0  0  0  0  0  0  0  0  0  0  0  0
   71.1334   82.3210   90.4561 H   0  0  0  0  0  0  0  0  0  0  0  0
  1  2  2  0  0  0  0
  2  3  1  0  0  0  0
  3  4  2  0  0  0  0
  4  5  1  0  0  0  0
  5  7  1  0  0  0  0
  5  6  2  0  0  0  0
  6  1  1  0  0  0  0
  7  8  2  0  0  0  0
  8  9  1  0  0  0  0
  9 10  2  0  0  0  0
 10 11  1  0  0  0  0
 11 13  1  0  0  0  0
 11 12  2  0  0  0  0
 12  7  2  0  0  0  0
 13 14  1  0  0  0  0
 14 15  1  0  0  0  0
 15 16  2  0  0  0  0
 16 17  1  0  0  0  0
 17 18  2  0  0  0  0
 18 19  1  0  0  0  0
 19 20  2  0  0  0  0
 20 15  1  0  0  0  0
 21  1  1  0  0  0  0
 22 21  1  0  0  0  0
 23 24  2  0  0  0  0
 24 25  1  0  0  0  0
 25 22  1  0  0  0  0
 25 26  2  0  0  0  0
 26 27  1  0  0  0  0
 27 28  2  0  0  0  0
 28 29  1  0  0  0  0
 28 23  1  0  0  0  0
 29 30  1  0  0  0  0
 31 32  2  0  0  0  0
 32 33  1  0  0  0  0
 32 23  1  0  0  0  0
 33 34  1  0  0  0  0
M  END
>  <Activity>
16.3

>  <minimizedAffinity>
-9.14932

>  <RFScoreVS_v2>
5.96784084606

$$$$
HIPS7004
 OpenBabel05252300073D

 34 37  0  0  0  0  0  0  0  0999 V2000
   69.5585   78.8447   90.0728 C   0  0  0  0  0  0  0  0  0  0  0  0
   70.9004   79.2076   90.2587 C   0  0  0  0  0  0  0  0  0  0  0  0
   71.8039   78.3000   90.8142 C   0  0  0  0  0  0  0  0  0  0  0  0
   71.3812   77.0207   91.1764 C   0  0  0  0  0  0  0  0  0  0  0  0
   70.0474   76.6268   90.9717 C   0  0  0  0  0  0  0  0  0  0  0  0
   69.1375   77.5527   90.4269 C   0  0  0  0  0  0  0  0  0  0  0  0
   69.6169   75.2579   91.3441 C   0  0  0  0  0  0  0  0  0  0  0  0
   68.5372   74.6286   90.7018 C   0  0  0  0  0  0  0  0  0  0  0  0
   68.1843   73.3304   91.0672 C   0  0  0  0  0  0  0  0  0  0  0  0
   68.8978   72.6667   92.0654 C   0  0  0  0  0  0  0  0  0  0  0  0
   69.9632   73.3230   92.7047 C   0  0  0  0  0  0  0  0  0  0  0  0
   70.2925   74.5854   92.3181 N   0  0  0  0  0  0  0  0  0  0  0  0
   70.7062   72.7271   93.7358 O   0  0  0  0  0  0  0  0  0  0  0  0
   70.7443   71.3290   94.0247 C   0  0  0  0  0  0  0  0  0  0  0  0
   71.8731   70.6543   93.2885 C   0  0  0  0  0  0  0  0  0  0  0  0
   71.6003   69.7887   92.2154 C   0  0  0  0  0  0  0  0  0  0  0  0
   72.6470   69.1548   91.5380 C   0  0  0  0  0  0  0  0  0  0  0  0
   73.9694   69.3723   91.9336 C   0  0  0  0  0  0  0  0  0  0  0  0
   74.2492   70.2218   93.0073 C   0  0  0  0  0  0  0  0  0  0  0  0
   73.2058   70.8582   93.6869 C   0  0  0  0  0  0  0  0  0  0  0  0
   68.5631   79.8266   89.5154 C   0  0  0  0  0  0  0  0  0  0  0  0
   68.9577   81.1649   89.8230 O   0  0  0  0  0  0  0  0  0  0  0  0
   70.7536   83.8792   88.0347 C   0  0  0  0  0  0  0  0  0  0  0  0
   70.4354   82.8490   88.9438 C   0  0  0  0  0  0  0  0  0  0  0  0
   69.2077   82.1793   88.8825 C   0  0  0  0  0  0  0  0  0  0  0  0
   68.2750   82.5498   87.8994 C   0  0  0  0  0  0  0  0  0  0  0  0
   68.5728   83.5688   86.9946 C   0  0  0  0  0  0  0  0  0  0  0  0
   69.8023   84.2369   87.0519 C   0  0  0  0  0  0  0  0  0  0  0  0
   70.0701   85.2535   86.1338 O   0  0  0  0  0  0  0  0  0  0  0  0
   69.4313   85.4811   85.4872 H   0  0  0  0  0  0  0  0  0  0  0  0
   73.0471   83.9855   88.6829 O   0  0  0  0  0  0  0  0  0  0  0  0
   72.0704   84.5633   88.1325 C   0  0  0  0  0  0  0  0  0  0  0  0
   72.2500   85.8455   87.6199 O   0  0  0  0  0  0  0  0  0  0  0  0
   71.5353   86.2896   87.2077 H   0  0  0  0  0  0  0  0  0  0  0  0
  1  2  2  0  0  0  0
  2  3  1  0  0  0  0
  3  4  2  0  0  0  0
  4  5  1  0  0  0  0
  5  7  1  0  0  0  0
  5  6  2  0  0  0  0
  6  1  1  0  0  0  0
  7  8  2  0  0  0  0
  8  9  1  0  0  0  0
  9 10  2  0  0  0  0
 10 11  1  0  0  0  0
 11 13  1  0  0  0  0
 11 12  2  0  0  0  0
 12  7  2  0  0  0  0
 13 14  1  0  0  0  0
 14 15  1  0  0  0  0
 15 16  2  0  0  0  0
 16 17  1  0  0  0  0
 17 18  2  0  0  0  0
 18 19  1  0  0  0  0
 19 20  2  0  0  0  0
 20 15  1  0  0  0  0
 21  1  1  0  0  0  0
 22 21  1  0  0  0  0
 23 24  2  0  0  0  0
 24 25  1  0  0  0  0
 25 22  1  0  0  0  0
 25 26  2  0  0  0  0
 26 27  1  0  0  0  0
 27 28  2  0  0  0  0
 28 29  1  0  0  0  0
 28 23  1  0  0  0  0
 29 30  1  0  0  0  0
 31 32  2  0  0  0  0
 32 33  1  0  0  0  0
 32 23  1  0  0  0  0
 33 34  1  0  0  0  0
M  END
>  <Activity>
16.3

>  <minimizedAffinity>
-9.08658

>  <RFScoreVS_v2>
5.9662522049

$$$$
HIPS7004
 OpenBabel05252300073D

 34 37  0  0  0  0  0  0  0  0999 V2000
   68.7727   74.8880   90.7551 C   0  0  0  0  0  0  0  0  0  0  0  0
   68.0606   73.9087   90.0474 C   0  0  0  0  0  0  0  0  0  0  0  0
   67.2025   74.2757   89.0093 C   0  0  0  0  0  0  0  0  0  0  0  0
   67.0569   75.6185   88.6599 C   0  0  0  0  0  0  0  0  0  0  0  0
   67.7835   76.6133   89.3372 C   0  0  0  0  0  0  0  0  0  0  0  0
   68.6341   76.2379   90.3943 C   0  0  0  0  0  0  0  0  0  0  0  0
   67.6330   78.0344   88.9426 C   0  0  0  0  0  0  0  0  0  0  0  0
   66.7485   78.4223   87.9220 C   0  0  0  0  0  0  0  0  0  0  0  0
   66.6206   79.7732   87.6025 C   0  0  0  0  0  0  0  0  0  0  0  0
   67.3692   80.7283   88.2905 C   0  0  0  0  0  0  0  0  0  0  0  0
   68.2593   80.3143   89.2959 C   0  0  0  0  0  0  0  0  0  0  0  0
   68.3536   78.9901   89.5944 N   0  0  0  0  0  0  0  0  0  0  0  0
   69.0640   81.2167   90.0090 O   0  0  0  0  0  0  0  0  0  0  0  0
   70.4774   81.1058   90.1802 C   0  0  0  0  0  0  0  0  0  0  0  0
   71.1930   82.2703   89.5452 C   0  0  0  0  0  0  0  0  0  0  0  0
   70.5814   82.9968   88.5091 C   0  0  0  0  0  0  0  0  0  0  0  0
   71.2489   84.0715   87.9130 C   0  0  0  0  0  0  0  0  0  0  0  0
   72.5331   84.4206   88.3392 C   0  0  0  0  0  0  0  0  0  0  0  0
   73.1538   83.6962   89.3604 C   0  0  0  0  0  0  0  0  0  0  0  0
   72.4897   82.6213   89.9596 C   0  0  0  0  0  0  0  0  0  0  0  0
   69.6684   74.5116   91.9049 C   0  0  0  0  0  0  0  0  0  0  0  0
   69.1654   73.3510   92.5691 O   0  0  0  0  0  0  0  0  0  0  0  0
   70.8860   70.0778   92.2288 C   0  0  0  0  0  0  0  0  0  0  0  0
   70.1395   71.2403   91.9457 C   0  0  0  0  0  0  0  0  0  0  0  0
   69.9215   72.2197   92.9217 C   0  0  0  0  0  0  0  0  0  0  0  0
   70.4522   72.0323   94.2089 C   0  0  0  0  0  0  0  0  0  0  0  0
   71.1902   70.8866   94.5064 C   0  0  0  0  0  0  0  0  0  0  0  0
   71.4129   69.9079   93.5298 C   0  0  0  0  0  0  0  0  0  0  0  0
   72.1538   68.7717   93.8586 O   0  0  0  0  0  0  0  0  0  0  0  0
   72.4976   68.6709   94.7244 H   0  0  0  0  0  0  0  0  0  0  0  0
   70.1093   68.4884   90.6282 O   0  0  0  0  0  0  0  0  0  0  0  0
   71.0969   69.0630   91.1623 C   0  0  0  0  0  0  0  0  0  0  0  0
   72.3797   68.7316   90.7341 O   0  0  0  0  0  0  0  0  0  0  0  0
   73.1248   69.1487   91.1199 H   0  0  0  0  0  0  0  0  0  0  0  0
  1  2  2  0  0  0  0
  2  3  1  0  0  0  0
  3  4  2  0  0  0  0
  4  5  1  0  0  0  0
  5  7  1  0  0  0  0
  5  6  2  0  0  0  0
  6  1  1  0  0  0  0
  7  8  2  0  0  0  0
  8  9  1  0  0  0  0
  9 10  2  0  0  0  0
 10 11  1  0  0  0  0
 11 13  1  0  0  0  0
 11 12  2  0  0  0  0
 12  7  2  0  0  0  0
 13 14  1  0  0  0  0
 14 15  1  0  0  0  0
 15 16  2  0  0  0  0
 16 17  1  0  0  0  0
 17 18  2  0  0  0  0
 18 19  1  0  0  0  0
 19 20  2  0  0  0  0
 20 15  1  0  0  0  0
 21  1  1  0  0  0  0
 22 21  1  0  0  0  0
 23 24  2  0  0  0  0
 24 25  1  0  0  0  0
 25 22  1  0  0  0  0
 25 26  2  0  0  0  0
 26 27  1  0  0  0  0
 27 28  2  0  0  0  0
 28 29  1  0  0  0  0
 28 23  1  0  0  0  0
 29 30  1  0  0  0  0
 31 32  2  0  0  0  0
 32 33  1  0  0  0  0
 32 23  1  0  0  0  0
 33 34  1  0  0  0  0
M  END
>  <Activity>
16.3

>  <minimizedAffinity>
-9.07428

>  <RFScoreVS_v2>
5.95750169173

$$$$
HIPS7004
 OpenBabel05252300073D

 34 37  0  0  0  0  0  0  0  0999 V2000
   69.8688   78.9730   90.1355 C   0  0  0  0  0  0  0  0  0  0  0  0
   71.2567   79.1735   90.1113 C   0  0  0  0  0  0  0  0  0  0  0  0
   72.1215   78.1560   90.5184 C   0  0  0  0  0  0  0  0  0  0  0  0
   71.6115   76.9278   90.9401 C   0  0  0  0  0  0  0  0  0  0  0  0
   70.2250   76.6960   90.9443 C   0  0  0  0  0  0  0  0  0  0  0  0
   69.3579   77.7321   90.5488 C   0  0  0  0  0  0  0  0  0  0  0  0
   69.6984   75.3794   91.3771 C   0  0  0  0  0  0  0  0  0  0  0  0
   68.8067   74.6469   90.5755 C   0  0  0  0  0  0  0  0  0  0  0  0
   68.3579   73.4012   91.0114 C   0  0  0  0  0  0  0  0  0  0  0  0
   68.7902   72.8915   92.2359 C   0  0  0  0  0  0  0  0  0  0  0  0
   69.6692   73.6501   93.0275 C   0  0  0  0  0  0  0  0  0  0  0  0
   70.1001   74.8570   92.5701 N   0  0  0  0  0  0  0  0  0  0  0  0
   70.1227   73.2127   94.2818 O   0  0  0  0  0  0  0  0  0  0  0  0
   69.5028   73.5096   95.5336 C   0  0  0  0  0  0  0  0  0  0  0  0
   68.1850   74.2125   95.3323 C   0  0  0  0  0  0  0  0  0  0  0  0
   68.1538   75.5342   94.8554 C   0  0  0  0  0  0  0  0  0  0  0  0
   66.9314   76.1903   94.6776 C   0  0  0  0  0  0  0  0  0  0  0  0
   65.7353   75.5362   94.9841 C   0  0  0  0  0  0  0  0  0  0  0  0
   65.7574   74.2262   95.4703 C   0  0  0  0  0  0  0  0  0  0  0  0
   66.9773   73.5663   95.6490 C   0  0  0  0  0  0  0  0  0  0  0  0
   68.9225   80.0750   89.7408 C   0  0  0  0  0  0  0  0  0  0  0  0
   69.3162   81.3093   90.3430 O   0  0  0  0  0  0  0  0  0  0  0  0
   70.1591   84.1420   88.0944 C   0  0  0  0  0  0  0  0  0  0  0  0
   69.4555   83.1167   88.7598 C   0  0  0  0  0  0  0  0  0  0  0  0
   70.0786   82.3142   89.7226 C   0  0  0  0  0  0  0  0  0  0  0  0
   71.4335   82.5333   90.0224 C   0  0  0  0  0  0  0  0  0  0  0  0
   72.1448   83.5411   89.3712 C   0  0  0  0  0  0  0  0  0  0  0  0
   71.5216   84.3478   88.4108 C   0  0  0  0  0  0  0  0  0  0  0  0
   72.2605   85.3467   87.7751 O   0  0  0  0  0  0  0  0  0  0  0  0
   73.1628   85.4730   87.9937 H   0  0  0  0  0  0  0  0  0  0  0  0
   68.2782   85.3672   87.2868 O   0  0  0  0  0  0  0  0  0  0  0  0
   69.4586   84.9740   87.0802 C   0  0  0  0  0  0  0  0  0  0  0  0
   70.0888   85.3343   85.8919 O   0  0  0  0  0  0  0  0  0  0  0  0
   70.9656   85.0509   85.7220 H   0  0  0  0  0  0  0  0  0  0  0  0
  1  2  2  0  0  0  0
  2  3  1  0  0  0  0
  3  4  2  0  0  0  0
  4  5  1  0  0  0  0
  5  7  1  0  0  0  0
  5  6  2  0  0  0  0
  6  1  1  0  0  0  0
  7  8  2  0  0  0  0
  8  9  1  0  0  0  0
  9 10  2  0  0  0  0
 10 11  1  0  0  0  0
 11 13  1  0  0  0  0
 11 12  2  0  0  0  0
 12  7  2  0  0  0  0
 13 14  1  0  0  0  0
 14 15  1  0  0  0  0
 15 16  2  0  0  0  0
 16 17  1  0  0  0  0
 17 18  2  0  0  0  0
 18 19  1  0  0  0  0
 19 20  2  0  0  0  0
 20 15  1  0  0  0  0
 21  1  1  0  0  0  0
 22 21  1  0  0  0  0
 23 24  2  0  0  0  0
 24 25  1  0  0  0  0
 25 22  1  0  0  0  0
 25 26  2  0  0  0  0
 26 27  1  0  0  0  0
 27 28  2  0  0  0  0
 28 29  1  0  0  0  0
 28 23  1  0  0  0  0
 29 30  1  0  0  0  0
 31 32  2  0  0  0  0
 32 33  1  0  0  0  0
 32 23  1  0  0  0  0
 33 34  1  0  0  0  0
M  END
>  <Activity>
16.3

>  <minimizedAffinity>
-8.99507

>  <RFScoreVS_v2>
5.9921713881

$$$$
HIPS7004
 OpenBabel05252300073D

 34 37  0  0  0  0  0  0  0  0999 V2000
   67.1056   76.0096   88.7133 C   0  0  0  0  0  0  0  0  0  0  0  0
   67.0929   76.0162   87.3109 C   0  0  0  0  0  0  0  0  0  0  0  0
   66.9376   77.2161   86.6146 C   0  0  0  0  0  0  0  0  0  0  0  0
   66.8068   78.4192   87.3090 C   0  0  0  0  0  0  0  0  0  0  0  0
   66.8460   78.4383   88.7140 C   0  0  0  0  0  0  0  0  0  0  0  0
   66.9858   77.2227   89.4103 C   0  0  0  0  0  0  0  0  0  0  0  0
   66.7246   79.7263   89.4380 C   0  0  0  0  0  0  0  0  0  0  0  0
   65.8994   79.8576   90.5677 C   0  0  0  0  0  0  0  0  0  0  0  0
   65.8365   81.0813   91.2323 C   0  0  0  0  0  0  0  0  0  0  0  0
   66.5857   82.1652   90.7740 C   0  0  0  0  0  0  0  0  0  0  0  0
   67.3909   82.0140   89.6323 C   0  0  0  0  0  0  0  0  0  0  0  0
   67.4419   80.8040   89.0119 N   0  0  0  0  0  0  0  0  0  0  0  0
   68.1488   83.0683   89.0991 O   0  0  0  0  0  0  0  0  0  0  0  0
   69.0921   82.9508   88.0333 C   0  0  0  0  0  0  0  0  0  0  0  0
   70.5034   83.1032   88.5397 C   0  0  0  0  0  0  0  0  0  0  0  0
   70.9614   82.3117   89.6070 C   0  0  0  0  0  0  0  0  0  0  0  0
   72.2679   82.4595   90.0836 C   0  0  0  0  0  0  0  0  0  0  0  0
   73.1206   83.4039   89.5061 C   0  0  0  0  0  0  0  0  0  0  0  0
   72.6698   84.2037   88.4526 C   0  0  0  0  0  0  0  0  0  0  0  0
   71.3644   84.0588   87.9724 C   0  0  0  0  0  0  0  0  0  0  0  0
   67.2287   74.7191   89.4783 C   0  0  0  0  0  0  0  0  0  0  0  0
   68.5354   74.5973   90.0430 O   0  0  0  0  0  0  0  0  0  0  0  0
   68.8389   74.5618   93.7439 C   0  0  0  0  0  0  0  0  0  0  0  0
   68.5045   74.2138   92.4188 C   0  0  0  0  0  0  0  0  0  0  0  0
   68.9075   75.0041   91.3360 C   0  0  0  0  0  0  0  0  0  0  0  0
   69.6526   76.1698   91.5803 C   0  0  0  0  0  0  0  0  0  0  0  0
   69.9890   76.5301   92.8852 C   0  0  0  0  0  0  0  0  0  0  0  0
   69.5903   75.7381   93.9692 C   0  0  0  0  0  0  0  0  0  0  0  0
   69.9407   76.1260   95.2633 O   0  0  0  0  0  0  0  0  0  0  0  0
   70.4390   76.9078   95.3993 H   0  0  0  0  0  0  0  0  0  0  0  0
   69.2392   73.1960   95.6584 O   0  0  0  0  0  0  0  0  0  0  0  0
   68.3935   73.6929   94.8656 C   0  0  0  0  0  0  0  0  0  0  0  0
   67.0434   73.4148   95.0622 O   0  0  0  0  0  0  0  0  0  0  0  0
   66.4015   73.7756   94.4828 H   0  0  0  0  0  0  0  0  0  0  0  0
  1  2  2  0  0  0  0
  2  3  1  0  0  0  0
  3  4  2  0  0  0  0
  4  5  1  0  0  0  0
  5  7  1  0  0  0  0
  5  6  2  0  0  0  0
  6  1  1  0  0  0  0
  7  8  2  0  0  0  0
  8  9  1  0  0  0  0
  9 10  2  0  0  0  0
 10 11  1  0  0  0  0
 11 13  1  0  0  0  0
 11 12  2  0  0  0  0
 12  7  2  0  0  0  0
 13 14  1  0  0  0  0
 14 15  1  0  0  0  0
 15 16  2  0  0  0  0
 16 17  1  0  0  0  0
 17 18  2  0  0  0  0
 18 19  1  0  0  0  0
 19 20  2  0  0  0  0
 20 15  1  0  0  0  0
 21  1  1  0  0  0  0
 22 21  1  0  0  0  0
 23 24  2  0  0  0  0
 24 25  1  0  0  0  0
 25 22  1  0  0  0  0
 25 26  2  0  0  0  0
 26 27  1  0  0  0  0
 27 28  2  0  0  0  0
 28 29  1  0  0  0  0
 28 23  1  0  0  0  0
 29 30  1  0  0  0  0
 31 32  2  0  0  0  0
 32 33  1  0  0  0  0
 32 23  1  0  0  0  0
 33 34  1  0  0  0  0
M  END
>  <Activity>
16.3

>  <minimizedAffinity>
-8.97929

>  <RFScoreVS_v2>
5.972461973

$$$$
HIPS7004
 OpenBabel05252300073D

 34 37  0  0  0  0  0  0  0  0999 V2000
   67.7783   79.9282   91.0670 C   0  0  0  0  0  0  0  0  0  0  0  0
   67.2155   80.9477   91.8486 C   0  0  0  0  0  0  0  0  0  0  0  0
   66.5770   80.6406   93.0515 C   0  0  0  0  0  0  0  0  0  0  0  0
   66.5056   79.3184   93.4910 C   0  0  0  0  0  0  0  0  0  0  0  0
   67.0885   78.2849   92.7372 C   0  0  0  0  0  0  0  0  0  0  0  0
   67.7159   78.5995   91.5168 C   0  0  0  0  0  0  0  0  0  0  0  0
   67.0212   76.8869   93.2260 C   0  0  0  0  0  0  0  0  0  0  0  0
   65.8386   76.3558   93.7683 C   0  0  0  0  0  0  0  0  0  0  0  0
   65.8144   75.0278   94.1913 C   0  0  0  0  0  0  0  0  0  0  0  0
   66.9582   74.2371   94.0787 C   0  0  0  0  0  0  0  0  0  0  0  0
   68.1336   74.7956   93.5483 C   0  0  0  0  0  0  0  0  0  0  0  0
   68.1235   76.0910   93.1322 N   0  0  0  0  0  0  0  0  0  0  0  0
   69.3283   74.0678   93.4318 O   0  0  0  0  0  0  0  0  0  0  0  0
   69.8012   73.4424   92.2382 C   0  0  0  0  0  0  0  0  0  0  0  0
   68.8712   73.7081   91.0824 C   0  0  0  0  0  0  0  0  0  0  0  0
   68.6655   75.0219   90.6274 C   0  0  0  0  0  0  0  0  0  0  0  0
   67.7952   75.2700   89.5611 C   0  0  0  0  0  0  0  0  0  0  0  0
   67.1178   74.2115   88.9501 C   0  0  0  0  0  0  0  0  0  0  0  0
   67.3069   72.9033   89.4039 C   0  0  0  0  0  0  0  0  0  0  0  0
   68.1767   72.6507   90.4693 C   0  0  0  0  0  0  0  0  0  0  0  0
   68.4318   80.2387   89.7471 C   0  0  0  0  0  0  0  0  0  0  0  0
   69.7862   80.6479   89.9456 O   0  0  0  0  0  0  0  0  0  0  0  0
   70.1035   83.8731   88.1325 C   0  0  0  0  0  0  0  0  0  0  0  0
   69.6041   82.6465   88.6170 C   0  0  0  0  0  0  0  0  0  0  0  0
   70.3458   81.8603   89.5066 C   0  0  0  0  0  0  0  0  0  0  0  0
   71.6149   82.3028   89.9153 C   0  0  0  0  0  0  0  0  0  0  0  0
   72.1250   83.5121   89.4430 C   0  0  0  0  0  0  0  0  0  0  0  0
   71.3824   84.3018   88.5564 C   0  0  0  0  0  0  0  0  0  0  0  0
   71.9206   85.5060   88.1000 O   0  0  0  0  0  0  0  0  0  0  0  0
   72.7693   85.7790   88.3885 H   0  0  0  0  0  0  0  0  0  0  0  0
   68.0288   84.7292   87.3239 O   0  0  0  0  0  0  0  0  0  0  0  0
   69.2820   84.6795   87.1909 C   0  0  0  0  0  0  0  0  0  0  0  0
   69.8765   85.3919   86.1527 O   0  0  0  0  0  0  0  0  0  0  0  0
   70.8063   85.3662   86.0392 H   0  0  0  0  0  0  0  0  0  0  0  0
  1  2  2  0  0  0  0
  2  3  1  0  0  0  0
  3  4  2  0  0  0  0
  4  5  1  0  0  0  0
  5  7  1  0  0  0  0
  5  6  2  0  0  0  0
  6  1  1  0  0  0  0
  7  8  2  0  0  0  0
  8  9  1  0  0  0  0
  9 10  2  0  0  0  0
 10 11  1  0  0  0  0
 11 13  1  0  0  0  0
 11 12  2  0  0  0  0
 12  7  2  0  0  0  0
 13 14  1  0  0  0  0
 14 15  1  0  0  0  0
 15 16  2  0  0  0  0
 16 17  1  0  0  0  0
 17 18  2  0  0  0  0
 18 19  1  0  0  0  0
 19 20  2  0  0  0  0
 20 15  1  0  0  0  0
 21  1  1  0  0  0  0
 22 21  1  0  0  0  0
 23 24  2  0  0  0  0
 24 25  1  0  0  0  0
 25 22  1  0  0  0  0
 25 26  2  0  0  0  0
 26 27  1  0  0  0  0
 27 28  2  0  0  0  0
 28 29  1  0  0  0  0
 28 23  1  0  0  0  0
 29 30  1  0  0  0  0
 31 32  2  0  0  0  0
 32 33  1  0  0  0  0
 32 23  1  0  0  0  0
 33 34  1  0  0  0  0
M  END
>  <Activity>
16.3

>  <minimizedAffinity>
-8.94104

>  <RFScoreVS_v2>
5.97386747104

$$$$
HIPS7004
 OpenBabel05252300073D

 34 37  0  0  0  0  0  0  0  0999 V2000
   67.5137   78.5713   88.1737 C   0  0  0  0  0  0  0  0  0  0  0  0
   66.4102   79.1570   87.5364 C   0  0  0  0  0  0  0  0  0  0  0  0
   66.1413   80.5166   87.7039 C   0  0  0  0  0  0  0  0  0  0  0  0
   66.9761   81.3052   88.4963 C   0  0  0  0  0  0  0  0  0  0  0  0
   68.1039   80.7441   89.1204 C   0  0  0  0  0  0  0  0  0  0  0  0
   68.3595   79.3689   88.9611 C   0  0  0  0  0  0  0  0  0  0  0  0
   68.9925   81.5983   89.9442 C   0  0  0  0  0  0  0  0  0  0  0  0
   68.5408   82.1932   91.1343 C   0  0  0  0  0  0  0  0  0  0  0  0
   69.4196   82.9675   91.8902 C   0  0  0  0  0  0  0  0  0  0  0  0
   70.7349   83.1504   91.4630 C   0  0  0  0  0  0  0  0  0  0  0  0
   71.1586   82.5589   90.2609 C   0  0  0  0  0  0  0  0  0  0  0  0
   70.2820   81.7982   89.5507 N   0  0  0  0  0  0  0  0  0  0  0  0
   72.4582   82.7236   89.7564 O   0  0  0  0  0  0  0  0  0  0  0  0
   72.9452   83.8916   89.0945 C   0  0  0  0  0  0  0  0  0  0  0  0
   71.8517   84.5612   88.3026 C   0  0  0  0  0  0  0  0  0  0  0  0
   71.2724   85.7551   88.7657 C   0  0  0  0  0  0  0  0  0  0  0  0
   70.2509   86.3718   88.0361 C   0  0  0  0  0  0  0  0  0  0  0  0
   69.7947   85.7962   86.8474 C   0  0  0  0  0  0  0  0  0  0  0  0
   70.3565   84.6029   86.3857 C   0  0  0  0  0  0  0  0  0  0  0  0
   71.3785   83.9833   87.1116 C   0  0  0  0  0  0  0  0  0  0  0  0
   67.7916   77.0982   88.0377 C   0  0  0  0  0  0  0  0  0  0  0  0
   67.2862   76.3891   89.1704 O   0  0  0  0  0  0  0  0  0  0  0  0
   69.6366   75.6155   91.9394 C   0  0  0  0  0  0  0  0  0  0  0  0
   68.8371   76.3115   91.0092 C   0  0  0  0  0  0  0  0  0  0  0  0
   68.0559   75.6299   90.0687 C   0  0  0  0  0  0  0  0  0  0  0  0
   68.0785   74.2253   90.0503 C   0  0  0  0  0  0  0  0  0  0  0  0
   68.8663   73.5216   90.9614 C   0  0  0  0  0  0  0  0  0  0  0  0
   69.6450   74.2021   91.9058 C   0  0  0  0  0  0  0  0  0  0  0  0
   70.4242   73.4700   92.8029 O   0  0  0  0  0  0  0  0  0  0  0  0
   70.4210   72.5336   92.7704 H   0  0  0  0  0  0  0  0  0  0  0  0
   71.4953   76.9785   92.5549 O   0  0  0  0  0  0  0  0  0  0  0  0
   70.4494   76.3780   92.9240 C   0  0  0  0  0  0  0  0  0  0  0  0
   70.0729   76.4451   94.2630 O   0  0  0  0  0  0  0  0  0  0  0  0
   69.2989   76.0050   94.5546 H   0  0  0  0  0  0  0  0  0  0  0  0
  1  2  2  0  0  0  0
  2  3  1  0  0  0  0
  3  4  2  0  0  0  0
  4  5  1  0  0  0  0
  5  7  1  0  0  0  0
  5  6  2  0  0  0  0
  6  1  1  0  0  0  0
  7  8  2  0  0  0  0
  8  9  1  0  0  0  0
  9 10  2  0  0  0  0
 10 11  1  0  0  0  0
 11 13  1  0  0  0  0
 11 12  2  0  0  0  0
 12  7  2  0  0  0  0
 13 14  1  0  0  0  0
 14 15  1  0  0  0  0
 15 16  2  0  0  0  0
 16 17  1  0  0  0  0
 17 18  2  0  0  0  0
 18 19  1  0  0  0  0
 19 20  2  0  0  0  0
 20 15  1  0  0  0  0
 21  1  1  0  0  0  0
 22 21  1  0  0  0  0
 23 24  2  0  0  0  0
 24 25  1  0  0  0  0
 25 22  1  0  0  0  0
 25 26  2  0  0  0  0
 26 27  1  0  0  0  0
 27 28  2  0  0  0  0
 28 29  1  0  0  0  0
 28 23  1  0  0  0  0
 29 30  1  0  0  0  0
 31 32  2  0  0  0  0
 32 33  1  0  0  0  0
 32 23  1  0  0  0  0
 33 34  1  0  0  0  0
M  END
>  <Activity>
16.3

>  <minimizedAffinity>
-8.86010

>  <RFScoreVS_v2>
5.99685614783

$$$$
HIPS7790
 OpenBabel05252300073D

 38 41  0  0  0  0  0  0  0  0999 V2000
   67.2663   76.8943   88.6677 C   0  0  0  0  0  0  0  0  0  0  0  0
   66.8364   77.8492   89.5375 N   0  0  0  0  0  0  0  0  0  0  0  0
   66.6828   79.1412   89.1495 C   0  0  0  0  0  0  0  0  0  0  0  0
   66.9614   79.5137   87.8301 C   0  0  0  0  0  0  0  0  0  0  0  0
   67.4172   78.5243   86.9528 C   0  0  0  0  0  0  0  0  0  0  0  0
   67.5554   77.2447   87.3843 N   0  0  0  0  0  0  0  0  0  0  0  0
   68.2899   73.8633   90.7265 C   0  0  0  0  0  0  0  0  0  0  0  0
   67.7235   72.8275   89.9727 C   0  0  0  0  0  0  0  0  0  0  0  0
   67.0031   73.1126   88.8123 C   0  0  0  0  0  0  0  0  0  0  0  0
   66.8494   74.4339   88.3874 C   0  0  0  0  0  0  0  0  0  0  0  0
   67.4286   75.4890   89.1160 C   0  0  0  0  0  0  0  0  0  0  0  0
   68.1624   75.1889   90.2797 C   0  0  0  0  0  0  0  0  0  0  0  0
   69.0258   73.5462   91.9158 N   0  0  0  0  0  0  0  0  0  0  0  0
   69.3955   72.6390   92.0125 H   0  0  0  0  0  0  0  0  0  0  0  0
   69.2935   74.6917   93.1927 S   0  0  0  0  0  0  0  0  0  0  0  0
   69.6244   73.9325   94.4468 O   0  0  0  0  0  0  0  0  0  0  0  0
   70.4550   75.5921   92.8832 O   0  0  0  0  0  0  0  0  0  0  0  0
   65.3626   78.6410   93.9360 C   0  0  0  0  0  0  0  0  0  0  0  0
   66.1402   77.3804   93.7706 C   0  0  0  0  0  0  0  0  0  0  0  0
   65.6518   76.1587   94.0757 N   0  0  0  0  0  0  0  0  0  0  0  0
   66.5773   75.1761   93.9003 C   0  0  0  0  0  0  0  0  0  0  0  0
   66.2501   73.7550   94.2320 C   0  0  0  0  0  0  0  0  0  0  0  0
   67.8327   75.6328   93.4814 C   0  0  0  0  0  0  0  0  0  0  0  0
   67.7566   77.3053   93.3192 S   0  0  0  0  0  0  0  0  0  0  0  0
   66.8109   80.9401   87.3735 C   0  0  0  0  0  0  0  0  0  0  0  0
   67.2446   81.8477   88.3873 O   0  0  0  0  0  0  0  0  0  0  0  0
   68.5487   82.3519   88.5241 C   0  0  0  0  0  0  0  0  0  0  0  0
   69.3942   81.7435   89.4540 C   0  0  0  0  0  0  0  0  0  0  0  0
   70.7013   82.1972   89.6268 C   0  0  0  0  0  0  0  0  0  0  0  0
   71.1875   83.2715   88.8699 C   0  0  0  0  0  0  0  0  0  0  0  0
   72.5012   83.7005   89.0586 O   0  0  0  0  0  0  0  0  0  0  0  0
   70.3467   83.9058   87.9265 C   0  0  0  0  0  0  0  0  0  0  0  0
   69.0282   83.4373   87.7664 C   0  0  0  0  0  0  0  0  0  0  0  0
   73.0484   83.2717   89.6869 H   0  0  0  0  0  0  0  0  0  0  0  0
   70.8154   85.0496   87.1016 C   0  0  0  0  0  0  0  0  0  0  0  0
   71.7538   85.7923   87.4972 O   0  0  0  0  0  0  0  0  0  0  0  0
   70.2182   85.3151   85.8716 O   0  0  0  0  0  0  0  0  0  0  0  0
   69.5194   84.7724   85.5632 H   0  0  0  0  0  0  0  0  0  0  0  0
  1  2  2  0  0  0  0
  2  3  2  0  0  0  0
  3  4  2  0  0  0  0
  4 25  1  0  0  0  0
  4  5  1  0  0  0  0
  5  6  2  0  0  0  0
  6  1  2  0  0  0  0
  7  8  2  0  0  0  0
  8  9  1  0  0  0  0
  9 10  2  0  0  0  0
 10 11  1  0  0  0  0
 11  1  1  0  0  0  0
 11 12  2  0  0  0  0
 12  7  1  0  0  0  0
 13  7  1  0  0  0  0
 13 14  1  0  0  0  0
 15 16  2  0  0  0  0
 15 17  2  0  0  0  0
 15 13  1  0  0  0  0
 18 19  1  0  0  0  0
 19 20  2  0  0  0  0
 20 21  2  0  0  0  0
 21 22  1  0  0  0  0
 21 23  2  0  0  0  0
 23 15  1  0  0  0  0
 23 24  1  0  0  0  0
 24 19  1  0  0  0  0
 25 26  1  0  0  0  0
 26 27  1  0  0  0  0
 27 28  2  0  0  0  0
 28 29  1  0  0  0  0
 29 30  2  0  0  0  0
 30 31  1  0  0  0  0
 30 32  1  0  0  0  0
 31 34  1  0  0  0  0
 32 35  1  0  0  0  0
 32 33  2  0  0  0  0
 33 27  1  0  0  0  0
 35 36  2  0  0  0  0
 35 37  1  0  0  0  0
 37 38  1  0  0  0  0
M  END
>  <Activity>
16.6

>  <minimizedAffinity>
-9.60787

>  <RFScoreVS_v2>
5.9505436975

$$$$
HIPS7790
 OpenBabel05252300073D

 38 41  0  0  0  0  0  0  0  0999 V2000
   67.3025   76.9404   88.6936 C   0  0  0  0  0  0  0  0  0  0  0  0
   67.5140   77.2837   87.3933 N   0  0  0  0  0  0  0  0  0  0  0  0
   67.3689   78.5648   86.9679 C   0  0  0  0  0  0  0  0  0  0  0  0
   67.0016   79.5659   87.8736 C   0  0  0  0  0  0  0  0  0  0  0  0
   66.7726   79.1945   89.2025 C   0  0  0  0  0  0  0  0  0  0  0  0
   66.9303   77.9012   89.5835 N   0  0  0  0  0  0  0  0  0  0  0  0
   68.3330   73.8982   90.7323 C   0  0  0  0  0  0  0  0  0  0  0  0
   67.7610   72.8669   89.9767 C   0  0  0  0  0  0  0  0  0  0  0  0
   67.0346   73.1584   88.8217 C   0  0  0  0  0  0  0  0  0  0  0  0
   66.8805   74.4819   88.4039 C   0  0  0  0  0  0  0  0  0  0  0  0
   67.4652   75.5328   89.1342 C   0  0  0  0  0  0  0  0  0  0  0  0
   68.2050   75.2261   90.2925 C   0  0  0  0  0  0  0  0  0  0  0  0
   69.0750   73.5745   91.9160 N   0  0  0  0  0  0  0  0  0  0  0  0
   69.4667   72.6747   91.9944 H   0  0  0  0  0  0  0  0  0  0  0  0
   69.3132   74.6993   93.2169 S   0  0  0  0  0  0  0  0  0  0  0  0
   69.6258   73.9205   94.4636 O   0  0  0  0  0  0  0  0  0  0  0  0
   70.4750   75.6112   92.9439 O   0  0  0  0  0  0  0  0  0  0  0  0
   65.3479   78.6140   93.9607 C   0  0  0  0  0  0  0  0  0  0  0  0
   66.1351   77.3607   93.7855 C   0  0  0  0  0  0  0  0  0  0  0  0
   65.6471   76.1308   94.0561 N   0  0  0  0  0  0  0  0  0  0  0  0
   66.5809   75.1563   93.8796 C   0  0  0  0  0  0  0  0  0  0  0  0
   66.2545   73.7273   94.1760 C   0  0  0  0  0  0  0  0  0  0  0  0
   67.8420   75.6274   93.4952 C   0  0  0  0  0  0  0  0  0  0  0  0
   67.7606   77.3025   93.3651 S   0  0  0  0  0  0  0  0  0  0  0  0
   66.8226   80.9928   87.4293 C   0  0  0  0  0  0  0  0  0  0  0  0
   67.4071   81.8958   88.3689 O   0  0  0  0  0  0  0  0  0  0  0  0
   68.6797   82.4794   88.2532 C   0  0  0  0  0  0  0  0  0  0  0  0
   68.9233   83.3131   87.1598 C   0  0  0  0  0  0  0  0  0  0  0  0
   70.1656   83.9253   86.9982 C   0  0  0  0  0  0  0  0  0  0  0  0
   71.1899   83.7135   87.9306 C   0  0  0  0  0  0  0  0  0  0  0  0
   72.4207   84.3438   87.7477 O   0  0  0  0  0  0  0  0  0  0  0  0
   70.9667   82.8687   89.0422 C   0  0  0  0  0  0  0  0  0  0  0  0
   69.7073   82.2556   89.1892 C   0  0  0  0  0  0  0  0  0  0  0  0
   72.5561   84.9013   87.0069 H   0  0  0  0  0  0  0  0  0  0  0  0
   72.0216   82.6115   90.0568 C   0  0  0  0  0  0  0  0  0  0  0  0
   71.7232   82.2174   91.2163 O   0  0  0  0  0  0  0  0  0  0  0  0
   73.3628   82.8042   89.7346 O   0  0  0  0  0  0  0  0  0  0  0  0
   73.6012   83.0969   88.8770 H   0  0  0  0  0  0  0  0  0  0  0  0
  1  2  2  0  0  0  0
  2  3  2  0  0  0  0
  3  4  2  0  0  0  0
  4 25  1  0  0  0  0
  4  5  1  0  0  0  0
  5  6  2  0  0  0  0
  6  1  2  0  0  0  0
  7  8  2  0  0  0  0
  8  9  1  0  0  0  0
  9 10  2  0  0  0  0
 10 11  1  0  0  0  0
 11  1  1  0  0  0  0
 11 12  2  0  0  0  0
 12  7  1  0  0  0  0
 13  7  1  0  0  0  0
 13 14  1  0  0  0  0
 15 16  2  0  0  0  0
 15 17  2  0  0  0  0
 15 13  1  0  0  0  0
 18 19  1  0  0  0  0
 19 20  2  0  0  0  0
 20 21  2  0  0  0  0
 21 22  1  0  0  0  0
 21 23  2  0  0  0  0
 23 15  1  0  0  0  0
 23 24  1  0  0  0  0
 24 19  1  0  0  0  0
 25 26  1  0  0  0  0
 26 27  1  0  0  0  0
 27 28  2  0  0  0  0
 28 29  1  0  0  0  0
 29 30  2  0  0  0  0
 30 31  1  0  0  0  0
 30 32  1  0  0  0  0
 31 34  1  0  0  0  0
 32 35  1  0  0  0  0
 32 33  2  0  0  0  0
 33 27  1  0  0  0  0
 35 36  2  0  0  0  0
 35 37  1  0  0  0  0
 37 38  1  0  0  0  0
M  END
>  <Activity>
16.6

>  <minimizedAffinity>
-9.58424

>  <RFScoreVS_v2>
5.95228727889

$$$$
HIPS7790
 OpenBabel05252300073D

 38 41  0  0  0  0  0  0  0  0999 V2000
   67.2237   76.7663   88.7020 C   0  0  0  0  0  0  0  0  0  0  0  0
   66.7339   77.6638   89.6007 N   0  0  0  0  0  0  0  0  0  0  0  0
   66.5536   78.9683   89.2703 C   0  0  0  0  0  0  0  0  0  0  0  0
   66.8662   79.4137   87.9814 C   0  0  0  0  0  0  0  0  0  0  0  0
   67.3832   78.4828   87.0745 C   0  0  0  0  0  0  0  0  0  0  0  0
   67.5463   77.1881   87.4484 N   0  0  0  0  0  0  0  0  0  0  0  0
   68.4341   73.6605   90.5358 C   0  0  0  0  0  0  0  0  0  0  0  0
   67.7636   72.6559   89.8264 C   0  0  0  0  0  0  0  0  0  0  0  0
   66.9143   72.9859   88.7697 C   0  0  0  0  0  0  0  0  0  0  0  0
   66.7337   74.3214   88.4041 C   0  0  0  0  0  0  0  0  0  0  0  0
   67.4142   75.3459   89.0874 C   0  0  0  0  0  0  0  0  0  0  0  0
   68.2769   75.0007   90.1454 C   0  0  0  0  0  0  0  0  0  0  0  0
   69.3017   73.2975   91.6184 N   0  0  0  0  0  0  0  0  0  0  0  0
   70.1428   72.8300   91.4108 H   0  0  0  0  0  0  0  0  0  0  0  0
   68.9342   73.6462   93.2790 S   0  0  0  0  0  0  0  0  0  0  0  0
   67.9571   72.6166   93.7729 O   0  0  0  0  0  0  0  0  0  0  0  0
   70.1624   73.5609   94.1391 O   0  0  0  0  0  0  0  0  0  0  0  0
   65.5222   78.0786   93.8390 C   0  0  0  0  0  0  0  0  0  0  0  0
   66.6717   77.1415   93.6917 C   0  0  0  0  0  0  0  0  0  0  0  0
   67.9192   77.5393   93.3608 N   0  0  0  0  0  0  0  0  0  0  0  0
   68.7747   76.4895   93.2233 C   0  0  0  0  0  0  0  0  0  0  0  0
   70.1942   76.7141   92.8098 C   0  0  0  0  0  0  0  0  0  0  0  0
   68.1847   75.2345   93.4153 C   0  0  0  0  0  0  0  0  0  0  0  0
   66.5589   75.4676   93.7784 S   0  0  0  0  0  0  0  0  0  0  0  0
   66.6871   80.8558   87.5892 C   0  0  0  0  0  0  0  0  0  0  0  0
   67.1769   81.7259   88.6104 O   0  0  0  0  0  0  0  0  0  0  0  0
   68.5060   82.1624   88.7388 C   0  0  0  0  0  0  0  0  0  0  0  0
   69.3152   81.5343   89.6877 C   0  0  0  0  0  0  0  0  0  0  0  0
   70.6445   81.9212   89.8533 C   0  0  0  0  0  0  0  0  0  0  0  0
   71.1898   82.9472   89.0702 C   0  0  0  0  0  0  0  0  0  0  0  0
   72.5243   83.3096   89.2524 O   0  0  0  0  0  0  0  0  0  0  0  0
   70.3867   83.6006   88.1071 C   0  0  0  0  0  0  0  0  0  0  0  0
   69.0452   83.1999   87.9544 C   0  0  0  0  0  0  0  0  0  0  0  0
   73.0460   82.8688   89.8940 H   0  0  0  0  0  0  0  0  0  0  0  0
   70.9185   84.6951   87.2540 C   0  0  0  0  0  0  0  0  0  0  0  0
   70.3985   84.9560   86.1358 O   0  0  0  0  0  0  0  0  0  0  0  0
   72.0060   85.4512   87.6847 O   0  0  0  0  0  0  0  0  0  0  0  0
   72.4039   85.2699   88.5134 H   0  0  0  0  0  0  0  0  0  0  0  0
  1  2  2  0  0  0  0
  2  3  2  0  0  0  0
  3  4  2  0  0  0  0
  4 25  1  0  0  0  0
  4  5  1  0  0  0  0
  5  6  2  0  0  0  0
  6  1  2  0  0  0  0
  7  8  2  0  0  0  0
  8  9  1  0  0  0  0
  9 10  2  0  0  0  0
 10 11  1  0  0  0  0
 11  1  1  0  0  0  0
 11 12  2  0  0  0  0
 12  7  1  0  0  0  0
 13  7  1  0  0  0  0
 13 14  1  0  0  0  0
 15 16  2  0  0  0  0
 15 17  2  0  0  0  0
 15 13  1  0  0  0  0
 18 19  1  0  0  0  0
 19 20  2  0  0  0  0
 20 21  2  0  0  0  0
 21 22  1  0  0  0  0
 21 23  2  0  0  0  0
 23 15  1  0  0  0  0
 23 24  1  0  0  0  0
 24 19  1  0  0  0  0
 25 26  1  0  0  0  0
 26 27  1  0  0  0  0
 27 28  2  0  0  0  0
 28 29  1  0  0  0  0
 29 30  2  0  0  0  0
 30 31  1  0  0  0  0
 30 32  1  0  0  0  0
 31 34  1  0  0  0  0
 32 35  1  0  0  0  0
 32 33  2  0  0  0  0
 33 27  1  0  0  0  0
 35 36  2  0  0  0  0
 35 37  1  0  0  0  0
 37 38  1  0  0  0  0
M  END
>  <Activity>
16.6

>  <minimizedAffinity>
-9.07003

>  <RFScoreVS_v2>
5.96859548093

$$$$
HIPS7790
 OpenBabel05252300073D

 38 41  0  0  0  0  0  0  0  0999 V2000
   69.6434   78.4049   90.0323 C   0  0  0  0  0  0  0  0  0  0  0  0
   69.0003   79.5984   90.1551 N   0  0  0  0  0  0  0  0  0  0  0  0
   69.6843   80.7507   90.3738 C   0  0  0  0  0  0  0  0  0  0  0  0
   71.0798   80.7288   90.4707 C   0  0  0  0  0  0  0  0  0  0  0  0
   71.7246   79.4927   90.3581 C   0  0  0  0  0  0  0  0  0  0  0  0
   71.0002   78.3659   90.1390 N   0  0  0  0  0  0  0  0  0  0  0  0
   68.2861   74.8745   90.4417 C   0  0  0  0  0  0  0  0  0  0  0  0
   67.4046   74.8021   89.3556 C   0  0  0  0  0  0  0  0  0  0  0  0
   67.2422   75.8963   88.5051 C   0  0  0  0  0  0  0  0  0  0  0  0
   67.9658   77.0702   88.7246 C   0  0  0  0  0  0  0  0  0  0  0  0
   68.8738   77.1584   89.7957 C   0  0  0  0  0  0  0  0  0  0  0  0
   69.0375   76.0445   90.6414 C   0  0  0  0  0  0  0  0  0  0  0  0
   68.4363   73.7375   91.3024 N   0  0  0  0  0  0  0  0  0  0  0  0
   68.4601   72.8405   90.8973 H   0  0  0  0  0  0  0  0  0  0  0  0
   68.5782   73.8727   93.0275 S   0  0  0  0  0  0  0  0  0  0  0  0
   68.3286   72.5186   93.6297 O   0  0  0  0  0  0  0  0  0  0  0  0
   69.9595   74.3044   93.4292 O   0  0  0  0  0  0  0  0  0  0  0  0
   65.0887   78.1450   94.1106 C   0  0  0  0  0  0  0  0  0  0  0  0
   65.8420   76.8594   94.0758 C   0  0  0  0  0  0  0  0  0  0  0  0
   65.7806   75.9336   95.0572 N   0  0  0  0  0  0  0  0  0  0  0  0
   66.6099   74.8800   94.8233 C   0  0  0  0  0  0  0  0  0  0  0  0
   66.7274   73.7690   95.8175 C   0  0  0  0  0  0  0  0  0  0  0  0
   67.3678   74.9903   93.6513 C   0  0  0  0  0  0  0  0  0  0  0  0
   66.9649   76.4398   92.8990 S   0  0  0  0  0  0  0  0  0  0  0  0
   71.8644   81.9883   90.7234 C   0  0  0  0  0  0  0  0  0  0  0  0
   72.2811   82.5840   89.4941 O   0  0  0  0  0  0  0  0  0  0  0  0
   71.5076   83.4549   88.7088 C   0  0  0  0  0  0  0  0  0  0  0  0
   72.0208   84.7245   88.4358 C   0  0  0  0  0  0  0  0  0  0  0  0
   71.3001   85.6276   87.6554 C   0  0  0  0  0  0  0  0  0  0  0  0
   70.0487   85.2757   87.1325 C   0  0  0  0  0  0  0  0  0  0  0  0
   69.3524   86.1964   86.3495 O   0  0  0  0  0  0  0  0  0  0  0  0
   69.5076   83.9972   87.4010 C   0  0  0  0  0  0  0  0  0  0  0  0
   70.2470   83.0979   88.1936 C   0  0  0  0  0  0  0  0  0  0  0  0
   69.7218   87.0404   86.1788 H   0  0  0  0  0  0  0  0  0  0  0  0
   68.1841   83.5780   86.8707 C   0  0  0  0  0  0  0  0  0  0  0  0
   67.9620   82.3773   86.5582 O   0  0  0  0  0  0  0  0  0  0  0  0
   67.1661   84.5152   86.7125 O   0  0  0  0  0  0  0  0  0  0  0  0
   67.3151   85.4118   86.9401 H   0  0  0  0  0  0  0  0  0  0  0  0
  1  2  2  0  0  0  0
  2  3  2  0  0  0  0
  3  4  2  0  0  0  0
  4 25  1  0  0  0  0
  4  5  1  0  0  0  0
  5  6  2  0  0  0  0
  6  1  2  0  0  0  0
  7  8  2  0  0  0  0
  8  9  1  0  0  0  0
  9 10  2  0  0  0  0
 10 11  1  0  0  0  0
 11  1  1  0  0  0  0
 11 12  2  0  0  0  0
 12  7  1  0  0  0  0
 13  7  1  0  0  0  0
 13 14  1  0  0  0  0
 15 16  2  0  0  0  0
 15 17  2  0  0  0  0
 15 13  1  0  0  0  0
 18 19  1  0  0  0  0
 19 20  2  0  0  0  0
 20 21  2  0  0  0  0
 21 22  1  0  0  0  0
 21 23  2  0  0  0  0
 23 15  1  0  0  0  0
 23 24  1  0  0  0  0
 24 19  1  0  0  0  0
 25 26  1  0  0  0  0
 26 27  1  0  0  0  0
 27 28  2  0  0  0  0
 28 29  1  0  0  0  0
 29 30  2  0  0  0  0
 30 31  1  0  0  0  0
 30 32  1  0  0  0  0
 31 34  1  0  0  0  0
 32 35  1  0  0  0  0
 32 33  2  0  0  0  0
 33 27  1  0  0  0  0
 35 36  2  0  0  0  0
 35 37  1  0  0  0  0
 37 38  1  0  0  0  0
M  END
>  <Activity>
16.6

>  <minimizedAffinity>
-8.87016

>  <RFScoreVS_v2>
5.95935140253

$$$$
HIPS7790
 OpenBabel05252300073D

 38 41  0  0  0  0  0  0  0  0999 V2000
   68.3848   76.6726   90.7124 C   0  0  0  0  0  0  0  0  0  0  0  0
   69.0422   77.4178   89.7820 N   0  0  0  0  0  0  0  0  0  0  0  0
   68.8911   78.7657   89.7206 C   0  0  0  0  0  0  0  0  0  0  0  0
   68.0512   79.4182   90.6296 C   0  0  0  0  0  0  0  0  0  0  0  0
   67.3707   78.6368   91.5692 C   0  0  0  0  0  0  0  0  0  0  0  0
   67.5527   77.2919   91.5943 N   0  0  0  0  0  0  0  0  0  0  0  0
   69.7082   73.2306   91.6477 C   0  0  0  0  0  0  0  0  0  0  0  0
   68.8949   72.4100   90.8559 C   0  0  0  0  0  0  0  0  0  0  0  0
   67.9150   72.9696   90.0352 C   0  0  0  0  0  0  0  0  0  0  0  0
   67.7442   74.3547   89.9891 C   0  0  0  0  0  0  0  0  0  0  0  0
   68.5645   75.2003   90.7583 C   0  0  0  0  0  0  0  0  0  0  0  0
   69.5570   74.6253   91.5750 C   0  0  0  0  0  0  0  0  0  0  0  0
   70.7084   72.6330   92.4837 N   0  0  0  0  0  0  0  0  0  0  0  0
   71.6122   73.0232   92.4884 H   0  0  0  0  0  0  0  0  0  0  0  0
   70.3958   71.2516   93.4878 S   0  0  0  0  0  0  0  0  0  0  0  0
   70.2103   71.7273   94.9013 O   0  0  0  0  0  0  0  0  0  0  0  0
   69.1350   70.5492   93.0724 O   0  0  0  0  0  0  0  0  0  0  0  0
   75.1118   68.3194   94.3613 C   0  0  0  0  0  0  0  0  0  0  0  0
   73.8156   68.8725   93.8764 C   0  0  0  0  0  0  0  0  0  0  0  0
   73.2650   68.5461   92.6871 N   0  0  0  0  0  0  0  0  0  0  0  0
   72.1157   69.2342   92.4459 C   0  0  0  0  0  0  0  0  0  0  0  0
   71.3773   69.0542   91.1579 C   0  0  0  0  0  0  0  0  0  0  0  0
   71.7683   70.1480   93.4481 C   0  0  0  0  0  0  0  0  0  0  0  0
   72.9314   70.0664   94.6605 S   0  0  0  0  0  0  0  0  0  0  0  0
   67.8554   80.9097   90.5792 C   0  0  0  0  0  0  0  0  0  0  0  0
   68.3538   81.4476   89.3537 O   0  0  0  0  0  0  0  0  0  0  0  0
   69.5009   82.2481   89.2234 C   0  0  0  0  0  0  0  0  0  0  0  0
   70.6372   81.8919   89.9526 C   0  0  0  0  0  0  0  0  0  0  0  0
   71.8063   82.6454   89.8562 C   0  0  0  0  0  0  0  0  0  0  0  0
   71.8597   83.7730   89.0261 C   0  0  0  0  0  0  0  0  0  0  0  0
   73.0443   84.5048   88.9438 O   0  0  0  0  0  0  0  0  0  0  0  0
   70.7190   84.1550   88.2830 C   0  0  0  0  0  0  0  0  0  0  0  0
   69.5451   83.3849   88.3939 C   0  0  0  0  0  0  0  0  0  0  0  0
   73.7934   84.2412   89.4413 H   0  0  0  0  0  0  0  0  0  0  0  0
   70.7256   85.3433   87.3906 C   0  0  0  0  0  0  0  0  0  0  0  0
   71.0754   86.4752   87.8211 O   0  0  0  0  0  0  0  0  0  0  0  0
   70.3428   85.2179   86.0573 O   0  0  0  0  0  0  0  0  0  0  0  0
   70.0800   84.3835   85.7218 H   0  0  0  0  0  0  0  0  0  0  0  0
  1  2  2  0  0  0  0
  2  3  2  0  0  0  0
  3  4  2  0  0  0  0
  4 25  1  0  0  0  0
  4  5  1  0  0  0  0
  5  6  2  0  0  0  0
  6  1  2  0  0  0  0
  7  8  2  0  0  0  0
  8  9  1  0  0  0  0
  9 10  2  0  0  0  0
 10 11  1  0  0  0  0
 11  1  1  0  0  0  0
 11 12  2  0  0  0  0
 12  7  1  0  0  0  0
 13  7  1  0  0  0  0
 13 14  1  0  0  0  0
 15 16  2  0  0  0  0
 15 17  2  0  0  0  0
 15 13  1  0  0  0  0
 18 19  1  0  0  0  0
 19 20  2  0  0  0  0
 20 21  2  0  0  0  0
 21 22  1  0  0  0  0
 21 23  2  0  0  0  0
 23 15  1  0  0  0  0
 23 24  1  0  0  0  0
 24 19  1  0  0  0  0
 25 26  1  0  0  0  0
 26 27  1  0  0  0  0
 27 28  2  0  0  0  0
 28 29  1  0  0  0  0
 29 30  2  0  0  0  0
 30 31  1  0  0  0  0
 30 32  1  0  0  0  0
 31 34  1  0  0  0  0
 32 35  1  0  0  0  0
 32 33  2  0  0  0  0
 33 27  1  0  0  0  0
 35 36  2  0  0  0  0
 35 37  1  0  0  0  0
 37 38  1  0  0  0  0
M  END
>  <Activity>
16.6

>  <minimizedAffinity>
-8.80470

>  <RFScoreVS_v2>
5.96626140398

$$$$
HIPS7790
 OpenBabel05252300073D

 38 41  0  0  0  0  0  0  0  0999 V2000
   67.3816   76.9234   88.9995 C   0  0  0  0  0  0  0  0  0  0  0  0
   66.8754   77.3576   87.8128 N   0  0  0  0  0  0  0  0  0  0  0  0
   66.8891   78.6733   87.4775 C   0  0  0  0  0  0  0  0  0  0  0  0
   67.4376   79.6139   88.3560 C   0  0  0  0  0  0  0  0  0  0  0  0
   67.9393   79.1539   89.5779 C   0  0  0  0  0  0  0  0  0  0  0  0
   67.9054   77.8289   89.8710 N   0  0  0  0  0  0  0  0  0  0  0  0
   67.6841   73.6816   90.9674 C   0  0  0  0  0  0  0  0  0  0  0  0
   67.2857   72.7478   90.0024 C   0  0  0  0  0  0  0  0  0  0  0  0
   66.9085   73.1693   88.7269 C   0  0  0  0  0  0  0  0  0  0  0  0
   66.9350   74.5263   88.3989 C   0  0  0  0  0  0  0  0  0  0  0  0
   67.3533   75.4804   89.3446 C   0  0  0  0  0  0  0  0  0  0  0  0
   67.7418   75.0428   90.6254 C   0  0  0  0  0  0  0  0  0  0  0  0
   68.0671   73.2250   92.2717 N   0  0  0  0  0  0  0  0  0  0  0  0
   67.3747   72.8449   92.8593 H   0  0  0  0  0  0  0  0  0  0  0  0
   69.6981   73.3130   92.8605 S   0  0  0  0  0  0  0  0  0  0  0  0
   70.5440   73.9777   91.8111 O   0  0  0  0  0  0  0  0  0  0  0  0
   69.7832   74.1424   94.1097 O   0  0  0  0  0  0  0  0  0  0  0  0
   72.1223   68.6226   94.7907 C   0  0  0  0  0  0  0  0  0  0  0  0
   71.3738   69.6610   94.0272 C   0  0  0  0  0  0  0  0  0  0  0  0
   70.9501   69.4900   92.7563 N   0  0  0  0  0  0  0  0  0  0  0  0
   70.3512   70.6065   92.2589 C   0  0  0  0  0  0  0  0  0  0  0  0
   69.8565   70.6400   90.8480 C   0  0  0  0  0  0  0  0  0  0  0  0
   70.3313   71.6933   93.1413 C   0  0  0  0  0  0  0  0  0  0  0  0
   71.0722   71.2201   94.5753 S   0  0  0  0  0  0  0  0  0  0  0  0
   67.4572   81.0802   88.0166 C   0  0  0  0  0  0  0  0  0  0  0  0
   68.0466   81.8396   89.0728 O   0  0  0  0  0  0  0  0  0  0  0  0
   69.3138   82.4444   89.0309 C   0  0  0  0  0  0  0  0  0  0  0  0
   70.3210   81.9165   89.8412 C   0  0  0  0  0  0  0  0  0  0  0  0
   71.6000   82.4718   89.8347 C   0  0  0  0  0  0  0  0  0  0  0  0
   71.8951   83.5691   89.0148 C   0  0  0  0  0  0  0  0  0  0  0  0
   73.1848   84.1005   89.0233 O   0  0  0  0  0  0  0  0  0  0  0  0
   70.8888   84.1230   88.1904 C   0  0  0  0  0  0  0  0  0  0  0  0
   69.6014   83.5522   88.2110 C   0  0  0  0  0  0  0  0  0  0  0  0
   73.8429   83.7243   89.5742 H   0  0  0  0  0  0  0  0  0  0  0  0
   71.1522   85.2872   87.3051 C   0  0  0  0  0  0  0  0  0  0  0  0
   72.0501   86.1256   87.5870 O   0  0  0  0  0  0  0  0  0  0  0  0
   70.4039   85.4655   86.1440 O   0  0  0  0  0  0  0  0  0  0  0  0
   69.7327   84.8511   85.9202 H   0  0  0  0  0  0  0  0  0  0  0  0
  1  2  2  0  0  0  0
  2  3  2  0  0  0  0
  3  4  2  0  0  0  0
  4 25  1  0  0  0  0
  4  5  1  0  0  0  0
  5  6  2  0  0  0  0
  6  1  2  0  0  0  0
  7  8  2  0  0  0  0
  8  9  1  0  0  0  0
  9 10  2  0  0  0  0
 10 11  1  0  0  0  0
 11  1  1  0  0  0  0
 11 12  2  0  0  0  0
 12  7  1  0  0  0  0
 13  7  1  0  0  0  0
 13 14  1  0  0  0  0
 15 16  2  0  0  0  0
 15 17  2  0  0  0  0
 15 13  1  0  0  0  0
 18 19  1  0  0  0  0
 19 20  2  0  0  0  0
 20 21  2  0  0  0  0
 21 22  1  0  0  0  0
 21 23  2  0  0  0  0
 23 15  1  0  0  0  0
 23 24  1  0  0  0  0
 24 19  1  0  0  0  0
 25 26  1  0  0  0  0
 26 27  1  0  0  0  0
 27 28  2  0  0  0  0
 28 29  1  0  0  0  0
 29 30  2  0  0  0  0
 30 31  1  0  0  0  0
 30 32  1  0  0  0  0
 31 34  1  0  0  0  0
 32 35  1  0  0  0  0
 32 33  2  0  0  0  0
 33 27  1  0  0  0  0
 35 36  2  0  0  0  0
 35 37  1  0  0  0  0
 37 38  1  0  0  0  0
M  END
>  <Activity>
16.6

>  <minimizedAffinity>
-8.62639

>  <RFScoreVS_v2>
5.97234012914

$$$$
HIPS7790
 OpenBabel05252300073D

 38 41  0  0  0  0  0  0  0  0999 V2000
   68.3655   77.6907   89.8391 C   0  0  0  0  0  0  0  0  0  0  0  0
   67.4003   78.1950   89.0222 N   0  0  0  0  0  0  0  0  0  0  0  0
   67.3189   79.5250   88.7616 C   0  0  0  0  0  0  0  0  0  0  0  0
   68.2428   80.4079   89.3311 C   0  0  0  0  0  0  0  0  0  0  0  0
   69.2186   79.8761   90.1806 C   0  0  0  0  0  0  0  0  0  0  0  0
   69.2626   78.5394   90.4122 N   0  0  0  0  0  0  0  0  0  0  0  0
   69.4052   74.3450   91.3220 C   0  0  0  0  0  0  0  0  0  0  0  0
   68.5499   73.4738   90.6355 C   0  0  0  0  0  0  0  0  0  0  0  0
   67.6332   73.9707   89.7084 C   0  0  0  0  0  0  0  0  0  0  0  0
   67.5682   75.3414   89.4500 C   0  0  0  0  0  0  0  0  0  0  0  0
   68.4327   76.2334   90.1107 C   0  0  0  0  0  0  0  0  0  0  0  0
   69.3611   75.7197   91.0365 C   0  0  0  0  0  0  0  0  0  0  0  0
   70.3390   73.8115   92.2706 N   0  0  0  0  0  0  0  0  0  0  0  0
   71.2819   74.0877   92.2089 H   0  0  0  0  0  0  0  0  0  0  0  0
   69.8801   72.7000   93.5229 S   0  0  0  0  0  0  0  0  0  0  0  0
   70.2034   73.3248   94.8509 O   0  0  0  0  0  0  0  0  0  0  0  0
   68.4039   72.4248   93.4941 O   0  0  0  0  0  0  0  0  0  0  0  0
   73.3635   68.3190   94.0475 C   0  0  0  0  0  0  0  0  0  0  0  0
   72.3111   69.2971   93.6508 C   0  0  0  0  0  0  0  0  0  0  0  0
   71.6363   69.2319   92.4827 N   0  0  0  0  0  0  0  0  0  0  0  0
   70.7773   70.2761   92.3258 C   0  0  0  0  0  0  0  0  0  0  0  0
   69.9711   70.4163   91.0740 C   0  0  0  0  0  0  0  0  0  0  0  0
   70.7979   71.2038   93.3741 C   0  0  0  0  0  0  0  0  0  0  0  0
   71.9126   70.6787   94.5192 S   0  0  0  0  0  0  0  0  0  0  0  0
   68.1712   81.8884   89.0692 C   0  0  0  0  0  0  0  0  0  0  0  0
   69.1746   82.5854   89.8089 O   0  0  0  0  0  0  0  0  0  0  0  0
   69.9442   83.6569   89.3261 C   0  0  0  0  0  0  0  0  0  0  0  0
   71.1720   83.3670   88.7276 C   0  0  0  0  0  0  0  0  0  0  0  0
   71.9742   84.3901   88.2238 C   0  0  0  0  0  0  0  0  0  0  0  0
   71.5611   85.7262   88.3103 C   0  0  0  0  0  0  0  0  0  0  0  0
   72.3804   86.7292   87.7922 O   0  0  0  0  0  0  0  0  0  0  0  0
   70.3240   86.0430   88.9174 C   0  0  0  0  0  0  0  0  0  0  0  0
   69.5270   84.9980   89.4239 C   0  0  0  0  0  0  0  0  0  0  0  0
   73.1980   86.5063   87.3923 H   0  0  0  0  0  0  0  0  0  0  0  0
   69.8432   87.4443   89.0345 C   0  0  0  0  0  0  0  0  0  0  0  0
   69.8624   88.2210   88.0420 O   0  0  0  0  0  0  0  0  0  0  0  0
   69.3615   87.9182   90.2523 O   0  0  0  0  0  0  0  0  0  0  0  0
   69.3406   87.3534   90.9997 H   0  0  0  0  0  0  0  0  0  0  0  0
  1  2  2  0  0  0  0
  2  3  2  0  0  0  0
  3  4  2  0  0  0  0
  4 25  1  0  0  0  0
  4  5  1  0  0  0  0
  5  6  2  0  0  0  0
  6  1  2  0  0  0  0
  7  8  2  0  0  0  0
  8  9  1  0  0  0  0
  9 10  2  0  0  0  0
 10 11  1  0  0  0  0
 11  1  1  0  0  0  0
 11 12  2  0  0  0  0
 12  7  1  0  0  0  0
 13  7  1  0  0  0  0
 13 14  1  0  0  0  0
 15 16  2  0  0  0  0
 15 17  2  0  0  0  0
 15 13  1  0  0  0  0
 18 19  1  0  0  0  0
 19 20  2  0  0  0  0
 20 21  2  0  0  0  0
 21 22  1  0  0  0  0
 21 23  2  0  0  0  0
 23 15  1  0  0  0  0
 23 24  1  0  0  0  0
 24 19  1  0  0  0  0
 25 26  1  0  0  0  0
 26 27  1  0  0  0  0
 27 28  2  0  0  0  0
 28 29  1  0  0  0  0
 29 30  2  0  0  0  0
 30 31  1  0  0  0  0
 30 32  1  0  0  0  0
 31 34  1  0  0  0  0
 32 35  1  0  0  0  0
 32 33  2  0  0  0  0
 33 27  1  0  0  0  0
 35 36  2  0  0  0  0
 35 37  1  0  0  0  0
 37 38  1  0  0  0  0
M  END
>  <Activity>
16.6

>  <minimizedAffinity>
-8.45546

>  <RFScoreVS_v2>
5.95955896634

$$$$
HIPS7790
 OpenBabel05252300073D

 38 41  0  0  0  0  0  0  0  0999 V2000
   66.9196   79.2212   90.4698 C   0  0  0  0  0  0  0  0  0  0  0  0
   66.8446   80.5751   90.5907 N   0  0  0  0  0  0  0  0  0  0  0  0
   67.0045   81.3905   89.5169 C   0  0  0  0  0  0  0  0  0  0  0  0
   67.2452   80.8434   88.2520 C   0  0  0  0  0  0  0  0  0  0  0  0
   67.3351   79.4515   88.1471 C   0  0  0  0  0  0  0  0  0  0  0  0
   67.1679   78.6748   89.2477 N   0  0  0  0  0  0  0  0  0  0  0  0
   67.1560   76.2386   92.8196 C   0  0  0  0  0  0  0  0  0  0  0  0
   66.4221   76.7070   93.9168 C   0  0  0  0  0  0  0  0  0  0  0  0
   65.8667   77.9868   93.8990 C   0  0  0  0  0  0  0  0  0  0  0  0
   66.0298   78.8080   92.7814 C   0  0  0  0  0  0  0  0  0  0  0  0
   66.7436   78.3506   91.6586 C   0  0  0  0  0  0  0  0  0  0  0  0
   67.2909   77.0534   91.6833 C   0  0  0  0  0  0  0  0  0  0  0  0
   67.7178   74.9198   92.8607 N   0  0  0  0  0  0  0  0  0  0  0  0
   67.1458   74.1569   92.6156 H   0  0  0  0  0  0  0  0  0  0  0  0
   69.3621   74.6092   93.3234 S   0  0  0  0  0  0  0  0  0  0  0  0
   70.2662   75.3655   92.3911 O   0  0  0  0  0  0  0  0  0  0  0  0
   69.6367   75.0921   94.7188 O   0  0  0  0  0  0  0  0  0  0  0  0
   71.1124   69.2963   93.8815 C   0  0  0  0  0  0  0  0  0  0  0  0
   70.4781   70.5792   93.4655 C   0  0  0  0  0  0  0  0  0  0  0  0
   69.8820   70.7611   92.2673 N   0  0  0  0  0  0  0  0  0  0  0  0
   69.4395   72.0375   92.1011 C   0  0  0  0  0  0  0  0  0  0  0  0
   68.7943   72.4582   90.8192 C   0  0  0  0  0  0  0  0  0  0  0  0
   69.7214   72.8911   93.1745 C   0  0  0  0  0  0  0  0  0  0  0  0
   70.5304   72.0046   94.3530 S   0  0  0  0  0  0  0  0  0  0  0  0
   67.4372   81.7222   87.0452 C   0  0  0  0  0  0  0  0  0  0  0  0
   67.5974   83.0882   87.4304 O   0  0  0  0  0  0  0  0  0  0  0  0
   68.8232   83.7670   87.5302 C   0  0  0  0  0  0  0  0  0  0  0  0
   69.0043   84.9139   86.7545 C   0  0  0  0  0  0  0  0  0  0  0  0
   70.1977   85.6320   86.8188 C   0  0  0  0  0  0  0  0  0  0  0  0
   71.2350   85.2140   87.6630 C   0  0  0  0  0  0  0  0  0  0  0  0
   72.4157   85.9551   87.7124 O   0  0  0  0  0  0  0  0  0  0  0  0
   71.0751   84.0524   88.4531 C   0  0  0  0  0  0  0  0  0  0  0  0
   69.8647   83.3367   88.3742 C   0  0  0  0  0  0  0  0  0  0  0  0
   72.5093   86.7231   87.1838 H   0  0  0  0  0  0  0  0  0  0  0  0
   72.1463   83.5680   89.3621 C   0  0  0  0  0  0  0  0  0  0  0  0
   73.3568   83.8406   89.1404 O   0  0  0  0  0  0  0  0  0  0  0  0
   71.8215   82.8017   90.4789 O   0  0  0  0  0  0  0  0  0  0  0  0
   70.9264   82.5904   90.6578 H   0  0  0  0  0  0  0  0  0  0  0  0
  1  2  2  0  0  0  0
  2  3  2  0  0  0  0
  3  4  2  0  0  0  0
  4 25  1  0  0  0  0
  4  5  1  0  0  0  0
  5  6  2  0  0  0  0
  6  1  2  0  0  0  0
  7  8  2  0  0  0  0
  8  9  1  0  0  0  0
  9 10  2  0  0  0  0
 10 11  1  0  0  0  0
 11  1  1  0  0  0  0
 11 12  2  0  0  0  0
 12  7  1  0  0  0  0
 13  7  1  0  0  0  0
 13 14  1  0  0  0  0
 15 16  2  0  0  0  0
 15 17  2  0  0  0  0
 15 13  1  0  0  0  0
 18 19  1  0  0  0  0
 19 20  2  0  0  0  0
 20 21  2  0  0  0  0
 21 22  1  0  0  0  0
 21 23  2  0  0  0  0
 23 15  1  0  0  0  0
 23 24  1  0  0  0  0
 24 19  1  0  0  0  0
 25 26  1  0  0  0  0
 26 27  1  0  0  0  0
 27 28  2  0  0  0  0
 28 29  1  0  0  0  0
 29 30  2  0  0  0  0
 30 31  1  0  0  0  0
 30 32  1  0  0  0  0
 31 34  1  0  0  0  0
 32 35  1  0  0  0  0
 32 33  2  0  0  0  0
 33 27  1  0  0  0  0
 35 36  2  0  0  0  0
 35 37  1  0  0  0  0
 37 38  1  0  0  0  0
M  END
>  <Activity>
16.6

>  <minimizedAffinity>
-8.44651

>  <RFScoreVS_v2>
5.97642407472

$$$$
HIPS7790
 OpenBabel05252300073D

 38 41  0  0  0  0  0  0  0  0999 V2000
   67.3009   77.2087   89.3663 C   0  0  0  0  0  0  0  0  0  0  0  0
   68.3816   77.8954   89.8288 N   0  0  0  0  0  0  0  0  0  0  0  0
   68.3705   79.2498   89.9241 C   0  0  0  0  0  0  0  0  0  0  0  0
   67.2301   79.9687   89.5497 C   0  0  0  0  0  0  0  0  0  0  0  0
   66.1340   79.2498   89.0619 C   0  0  0  0  0  0  0  0  0  0  0  0
   66.1893   77.8957   88.9845 N   0  0  0  0  0  0  0  0  0  0  0  0
   68.0392   73.5619   90.1598 C   0  0  0  0  0  0  0  0  0  0  0  0
   67.3951   72.9230   89.0926 C   0  0  0  0  0  0  0  0  0  0  0  0
   66.7146   73.6702   88.1306 C   0  0  0  0  0  0  0  0  0  0  0  0
   66.6789   75.0633   88.2188 C   0  0  0  0  0  0  0  0  0  0  0  0
   67.3378   75.7284   89.2691 C   0  0  0  0  0  0  0  0  0  0  0  0
   68.0302   74.9649   90.2285 C   0  0  0  0  0  0  0  0  0  0  0  0
   68.7320   72.7733   91.1367 N   0  0  0  0  0  0  0  0  0  0  0  0
   68.5949   71.7984   91.1376 H   0  0  0  0  0  0  0  0  0  0  0  0
   69.8019   73.4617   92.3181 S   0  0  0  0  0  0  0  0  0  0  0  0
   70.6302   72.3548   92.9074 O   0  0  0  0  0  0  0  0  0  0  0  0
   70.7413   74.4523   91.6919 O   0  0  0  0  0  0  0  0  0  0  0  0
   66.3973   74.7442   96.6036 C   0  0  0  0  0  0  0  0  0  0  0  0
   67.4007   74.7287   95.5016 C   0  0  0  0  0  0  0  0  0  0  0  0
   67.9472   75.8465   94.9763 N   0  0  0  0  0  0  0  0  0  0  0  0
   68.7838   75.5715   93.9385 C   0  0  0  0  0  0  0  0  0  0  0  0
   69.4519   76.6780   93.1862 C   0  0  0  0  0  0  0  0  0  0  0  0
   68.8745   74.2126   93.6139 C   0  0  0  0  0  0  0  0  0  0  0  0
   67.8886   73.3525   94.6711 S   0  0  0  0  0  0  0  0  0  0  0  0
   67.1921   81.4710   89.6342 C   0  0  0  0  0  0  0  0  0  0  0  0
   67.6718   82.0613   88.4254 O   0  0  0  0  0  0  0  0  0  0  0  0
   68.9330   82.6562   88.2551 C   0  0  0  0  0  0  0  0  0  0  0  0
   69.1389   83.4472   87.1230 C   0  0  0  0  0  0  0  0  0  0  0  0
   70.3682   84.0685   86.9064 C   0  0  0  0  0  0  0  0  0  0  0  0
   71.4172   83.9088   87.8216 C   0  0  0  0  0  0  0  0  0  0  0  0
   72.6343   84.5471   87.5833 O   0  0  0  0  0  0  0  0  0  0  0  0
   71.2322   83.1077   88.9720 C   0  0  0  0  0  0  0  0  0  0  0  0
   69.9854   82.4847   89.1743 C   0  0  0  0  0  0  0  0  0  0  0  0
   72.7443   85.0752   86.8172 H   0  0  0  0  0  0  0  0  0  0  0  0
   72.3144   82.9065   89.9704 C   0  0  0  0  0  0  0  0  0  0  0  0
   73.4676   83.3785   89.7802 O   0  0  0  0  0  0  0  0  0  0  0  0
   72.0637   82.1888   91.1375 O   0  0  0  0  0  0  0  0  0  0  0  0
   71.2118   81.8315   91.2939 H   0  0  0  0  0  0  0  0  0  0  0  0
  1  2  2  0  0  0  0
  2  3  2  0  0  0  0
  3  4  2  0  0  0  0
  4 25  1  0  0  0  0
  4  5  1  0  0  0  0
  5  6  2  0  0  0  0
  6  1  2  0  0  0  0
  7  8  2  0  0  0  0
  8  9  1  0  0  0  0
  9 10  2  0  0  0  0
 10 11  1  0  0  0  0
 11  1  1  0  0  0  0
 11 12  2  0  0  0  0
 12  7  1  0  0  0  0
 13  7  1  0  0  0  0
 13 14  1  0  0  0  0
 15 16  2  0  0  0  0
 15 17  2  0  0  0  0
 15 13  1  0  0  0  0
 18 19  1  0  0  0  0
 19 20  2  0  0  0  0
 20 21  2  0  0  0  0
 21 22  1  0  0  0  0
 21 23  2  0  0  0  0
 23 15  1  0  0  0  0
 23 24  1  0  0  0  0
 24 19  1  0  0  0  0
 25 26  1  0  0  0  0
 26 27  1  0  0  0  0
 27 28  2  0  0  0  0
 28 29  1  0  0  0  0
 29 30  2  0  0  0  0
 30 31  1  0  0  0  0
 30 32  1  0  0  0  0
 31 34  1  0  0  0  0
 32 35  1  0  0  0  0
 32 33  2  0  0  0  0
 33 27  1  0  0  0  0
 35 36  2  0  0  0  0
 35 37  1  0  0  0  0
 37 38  1  0  0  0  0
M  END
>  <Activity>
16.6

>  <minimizedAffinity>
-8.41185

>  <RFScoreVS_v2>
5.9541

$$$$
HIPS7790
 OpenBabel05252300073D

 38 41  0  0  0  0  0  0  0  0999 V2000
   68.0445   77.8544   90.5434 C   0  0  0  0  0  0  0  0  0  0  0  0
   69.0778   78.6859   90.2364 N   0  0  0  0  0  0  0  0  0  0  0  0
   68.9590   80.0334   90.3524 C   0  0  0  0  0  0  0  0  0  0  0  0
   67.7588   80.5944   90.8020 C   0  0  0  0  0  0  0  0  0  0  0  0
   66.7016   79.7277   91.0982 C   0  0  0  0  0  0  0  0  0  0  0  0
   66.8655   78.3865   90.9681 N   0  0  0  0  0  0  0  0  0  0  0  0
   69.2334   74.2858   91.1139 C   0  0  0  0  0  0  0  0  0  0  0  0
   68.4769   73.5984   90.1563 C   0  0  0  0  0  0  0  0  0  0  0  0
   67.5777   74.2867   89.3413 C   0  0  0  0  0  0  0  0  0  0  0  0
   67.4320   75.6697   89.4672 C   0  0  0  0  0  0  0  0  0  0  0  0
   68.1976   76.3847   90.4064 C   0  0  0  0  0  0  0  0  0  0  0  0
   69.1097   75.6813   91.2164 C   0  0  0  0  0  0  0  0  0  0  0  0
   70.1511   73.5573   91.9406 N   0  0  0  0  0  0  0  0  0  0  0  0
   71.0787   73.4469   91.6298 H   0  0  0  0  0  0  0  0  0  0  0  0
   69.6986   72.8612   93.4654 S   0  0  0  0  0  0  0  0  0  0  0  0
   69.4974   71.3848   93.2697 O   0  0  0  0  0  0  0  0  0  0  0  0
   70.7806   73.0435   94.4910 O   0  0  0  0  0  0  0  0  0  0  0  0
   65.5395   75.5182   96.1569 C   0  0  0  0  0  0  0  0  0  0  0  0
   66.3998   74.7531   95.2105 C   0  0  0  0  0  0  0  0  0  0  0  0
   65.9108   74.0062   94.1971 N   0  0  0  0  0  0  0  0  0  0  0  0
   66.8934   73.3530   93.5186 C   0  0  0  0  0  0  0  0  0  0  0  0
   66.5555   72.4318   92.3899 C   0  0  0  0  0  0  0  0  0  0  0  0
   68.1817   73.5596   94.0263 C   0  0  0  0  0  0  0  0  0  0  0  0
   68.0671   74.5976   95.3449 S   0  0  0  0  0  0  0  0  0  0  0  0
   67.5939   82.0850   90.9305 C   0  0  0  0  0  0  0  0  0  0  0  0
   67.1861   82.6611   89.6889 O   0  0  0  0  0  0  0  0  0  0  0  0
   68.0324   83.3167   88.7793 C   0  0  0  0  0  0  0  0  0  0  0  0
   67.4484   83.9714   87.6929 C   0  0  0  0  0  0  0  0  0  0  0  0
   68.2390   84.6449   86.7627 C   0  0  0  0  0  0  0  0  0  0  0  0
   69.6329   84.6753   86.9029 C   0  0  0  0  0  0  0  0  0  0  0  0
   70.3990   85.3621   85.9611 O   0  0  0  0  0  0  0  0  0  0  0  0
   70.2457   84.0144   87.9923 C   0  0  0  0  0  0  0  0  0  0  0  0
   69.4330   83.3361   88.9214 C   0  0  0  0  0  0  0  0  0  0  0  0
   69.9809   85.7961   85.2436 H   0  0  0  0  0  0  0  0  0  0  0  0
   71.7194   84.0165   88.1833 C   0  0  0  0  0  0  0  0  0  0  0  0
   72.4996   84.1572   87.2033 O   0  0  0  0  0  0  0  0  0  0  0  0
   72.2591   83.8626   89.4580 O   0  0  0  0  0  0  0  0  0  0  0  0
   71.6927   83.7570   90.1969 H   0  0  0  0  0  0  0  0  0  0  0  0
  1  2  2  0  0  0  0
  2  3  2  0  0  0  0
  3  4  2  0  0  0  0
  4 25  1  0  0  0  0
  4  5  1  0  0  0  0
  5  6  2  0  0  0  0
  6  1  2  0  0  0  0
  7  8  2  0  0  0  0
  8  9  1  0  0  0  0
  9 10  2  0  0  0  0
 10 11  1  0  0  0  0
 11  1  1  0  0  0  0
 11 12  2  0  0  0  0
 12  7  1  0  0  0  0
 13  7  1  0  0  0  0
 13 14  1  0  0  0  0
 15 16  2  0  0  0  0
 15 17  2  0  0  0  0
 15 13  1  0  0  0  0
 18 19  1  0  0  0  0
 19 20  2  0  0  0  0
 20 21  2  0  0  0  0
 21 22  1  0  0  0  0
 21 23  2  0  0  0  0
 23 15  1  0  0  0  0
 23 24  1  0  0  0  0
 24 19  1  0  0  0  0
 25 26  1  0  0  0  0
 26 27  1  0  0  0  0
 27 28  2  0  0  0  0
 28 29  1  0  0  0  0
 29 30  2  0  0  0  0
 30 31  1  0  0  0  0
 30 32  1  0  0  0  0
 31 34  1  0  0  0  0
 32 35  1  0  0  0  0
 32 33  2  0  0  0  0
 33 27  1  0  0  0  0
 35 36  2  0  0  0  0
 35 37  1  0  0  0  0
 37 38  1  0  0  0  0
M  END
>  <Activity>
16.6

>  <minimizedAffinity>
-8.40104

>  <RFScoreVS_v2>
5.95930568394

$$$$
HIPS7792
 OpenBabel05252300073D

 37 39  0  0  0  0  0  0  0  0999 V2000
   66.8304   79.3531   88.1544 C   0  0  0  0  0  0  0  0  0  0  0  0
   67.3878   78.3652   87.3388 C   0  0  0  0  0  0  0  0  0  0  0  0
   67.6770   77.1412   87.8526 N   0  0  0  0  0  0  0  0  0  0  0  0
   67.4331   76.8451   89.1602 C   0  0  0  0  0  0  0  0  0  0  0  0
   66.8803   77.7969   89.9656 N   0  0  0  0  0  0  0  0  0  0  0  0
   66.5713   79.0335   89.4925 C   0  0  0  0  0  0  0  0  0  0  0  0
   67.7750   75.5036   89.6981 C   0  0  0  0  0  0  0  0  0  0  0  0
   67.2441   74.3435   89.1058 C   0  0  0  0  0  0  0  0  0  0  0  0
   67.5896   73.0807   89.5868 C   0  0  0  0  0  0  0  0  0  0  0  0
   68.4580   72.9558   90.6726 C   0  0  0  0  0  0  0  0  0  0  0  0
   68.9809   74.1012   91.3003 C   0  0  0  0  0  0  0  0  0  0  0  0
   68.6458   75.3700   90.7929 C   0  0  0  0  0  0  0  0  0  0  0  0
   69.8527   74.0169   92.4424 N   0  0  0  0  0  0  0  0  0  0  0  0
   70.8152   74.1631   92.2962 H   0  0  0  0  0  0  0  0  0  0  0  0
   69.3234   73.6750   94.0613 S   0  0  0  0  0  0  0  0  0  0  0  0
   70.5193   73.2358   94.8634 O   0  0  0  0  0  0  0  0  0  0  0  0
   68.3242   72.5498   94.0319 O   0  0  0  0  0  0  0  0  0  0  0  0
   68.6310   75.1545   94.8056 C   0  0  0  0  0  0  0  0  0  0  0  0
   67.1508   75.3793   94.4425 C   0  0  0  0  0  0  0  0  0  0  0  0
   66.1671   74.8497   95.4931 C   0  0  0  0  0  0  0  0  0  0  0  0
   65.3042   75.8463   95.9059 F   0  0  0  0  0  0  0  0  0  0  0  0
   65.4372   73.7908   94.9783 F   0  0  0  0  0  0  0  0  0  0  0  0
   66.8783   74.4040   96.5927 F   0  0  0  0  0  0  0  0  0  0  0  0
   66.4738   80.6960   87.5903 C   0  0  0  0  0  0  0  0  0  0  0  0
   67.0130   81.7133   88.4249 O   0  0  0  0  0  0  0  0  0  0  0  0
   70.1072   83.7554   87.9170 C   0  0  0  0  0  0  0  0  0  0  0  0
   69.2221   82.7939   88.4378 C   0  0  0  0  0  0  0  0  0  0  0  0
   67.8922   82.7129   87.9856 C   0  0  0  0  0  0  0  0  0  0  0  0
   67.4304   83.6524   87.0552 C   0  0  0  0  0  0  0  0  0  0  0  0
   68.2913   84.6230   86.5447 C   0  0  0  0  0  0  0  0  0  0  0  0
   69.6235   84.6867   86.9681 C   0  0  0  0  0  0  0  0  0  0  0  0
   70.4654   85.6603   86.4337 O   0  0  0  0  0  0  0  0  0  0  0  0
   70.1347   86.2722   85.8058 H   0  0  0  0  0  0  0  0  0  0  0  0
   72.4341   84.2208   87.6078 O   0  0  0  0  0  0  0  0  0  0  0  0
   71.5217   83.7911   88.3728 C   0  0  0  0  0  0  0  0  0  0  0  0
   71.8617   83.4041   89.6665 O   0  0  0  0  0  0  0  0  0  0  0  0
   71.2010   83.0832   90.2484 H   0  0  0  0  0  0  0  0  0  0  0  0
  1  2  2  0  0  0  0
  2  3  2  0  0  0  0
  3  4  2  0  0  0  0
  4  7  1  0  0  0  0
  4  5  2  0  0  0  0
  5  6  2  0  0  0  0
  6  1  1  0  0  0  0
  7  8  2  0  0  0  0
  8  9  1  0  0  0  0
  9 10  2  0  0  0  0
 10 11  1  0  0  0  0
 11 13  1  0  0  0  0
 11 12  2  0  0  0  0
 12  7  1  0  0  0  0
 13 15  1  0  0  0  0
 13 14  1  0  0  0  0
 15 16  2  0  0  0  0
 15 17  2  0  0  0  0
 15 18  1  0  0  0  0
 18 19  1  0  0  0  0
 19 20  1  0  0  0  0
 20 21  1  0  0  0  0
 20 22  1  0  0  0  0
 20 23  1  0  0  0  0
 24  1  1  0  0  0  0
 25 24  1  0  0  0  0
 26 27  2  0  0  0  0
 27 28  1  0  0  0  0
 28 25  1  0  0  0  0
 28 29  2  0  0  0  0
 29 30  1  0  0  0  0
 30 31  2  0  0  0  0
 31 32  1  0  0  0  0
 31 26  1  0  0  0  0
 32 33  1  0  0  0  0
 34 35  2  0  0  0  0
 35 36  1  0  0  0  0
 35 26  1  0  0  0  0
 36 37  1  0  0  0  0
M  END
>  <Activity>
18.5

>  <minimizedAffinity>
-9.21100

>  <RFScoreVS_v2>
5.96444511883

$$$$
HIPS7792
 OpenBabel05252300073D

 37 39  0  0  0  0  0  0  0  0999 V2000
   70.5631   79.1293   90.3766 C   0  0  0  0  0  0  0  0  0  0  0  0
   71.1617   78.0002   90.9411 C   0  0  0  0  0  0  0  0  0  0  0  0
   70.5073   76.8097   90.9392 N   0  0  0  0  0  0  0  0  0  0  0  0
   69.2656   76.6836   90.3921 C   0  0  0  0  0  0  0  0  0  0  0  0
   68.6732   77.7754   89.8288 N   0  0  0  0  0  0  0  0  0  0  0  0
   69.2933   78.9851   89.8051 C   0  0  0  0  0  0  0  0  0  0  0  0
   68.5674   75.3731   90.4193 C   0  0  0  0  0  0  0  0  0  0  0  0
   67.7464   74.9823   89.3461 C   0  0  0  0  0  0  0  0  0  0  0  0
   67.1160   73.7381   89.3527 C   0  0  0  0  0  0  0  0  0  0  0  0
   67.2838   72.8712   90.4338 C   0  0  0  0  0  0  0  0  0  0  0  0
   68.0775   73.2494   91.5321 C   0  0  0  0  0  0  0  0  0  0  0  0
   68.7287   74.4964   91.5057 C   0  0  0  0  0  0  0  0  0  0  0  0
   68.2495   72.3992   92.6806 N   0  0  0  0  0  0  0  0  0  0  0  0
   67.5563   71.7231   92.8583 H   0  0  0  0  0  0  0  0  0  0  0  0
   69.5960   72.4839   93.7748 S   0  0  0  0  0  0  0  0  0  0  0  0
   70.7822   73.0207   93.0189 O   0  0  0  0  0  0  0  0  0  0  0  0
   69.9256   71.1004   94.2678 O   0  0  0  0  0  0  0  0  0  0  0  0
   69.2150   73.5956   95.1317 C   0  0  0  0  0  0  0  0  0  0  0  0
   67.8616   74.3127   94.9653 C   0  0  0  0  0  0  0  0  0  0  0  0
   66.8518   73.9971   96.0755 C   0  0  0  0  0  0  0  0  0  0  0  0
   67.3031   72.9623   96.8717 F   0  0  0  0  0  0  0  0  0  0  0  0
   66.6305   75.1189   96.8577 F   0  0  0  0  0  0  0  0  0  0  0  0
   65.6533   73.6152   95.5000 F   0  0  0  0  0  0  0  0  0  0  0  0
   71.2901   80.4404   90.3407 C   0  0  0  0  0  0  0  0  0  0  0  0
   70.4978   81.3970   89.6483 O   0  0  0  0  0  0  0  0  0  0  0  0
   70.6904   84.6963   87.8934 C   0  0  0  0  0  0  0  0  0  0  0  0
   70.2017   83.4510   88.3287 C   0  0  0  0  0  0  0  0  0  0  0  0
   70.9881   82.6042   89.1314 C   0  0  0  0  0  0  0  0  0  0  0  0
   72.3014   82.9823   89.4380 C   0  0  0  0  0  0  0  0  0  0  0  0
   72.8055   84.2052   88.9973 C   0  0  0  0  0  0  0  0  0  0  0  0
   72.0155   85.0644   88.2256 C   0  0  0  0  0  0  0  0  0  0  0  0
   72.5407   86.2857   87.8072 O   0  0  0  0  0  0  0  0  0  0  0  0
   73.4196   86.5196   88.0327 H   0  0  0  0  0  0  0  0  0  0  0  0
   69.6142   86.7888   87.4581 O   0  0  0  0  0  0  0  0  0  0  0  0
   69.8245   85.5967   87.0877 C   0  0  0  0  0  0  0  0  0  0  0  0
   69.2733   85.1637   85.8846 O   0  0  0  0  0  0  0  0  0  0  0  0
   69.4172   84.2850   85.5927 H   0  0  0  0  0  0  0  0  0  0  0  0
  1  2  2  0  0  0  0
  2  3  2  0  0  0  0
  3  4  2  0  0  0  0
  4  7  1  0  0  0  0
  4  5  2  0  0  0  0
  5  6  2  0  0  0  0
  6  1  1  0  0  0  0
  7  8  2  0  0  0  0
  8  9  1  0  0  0  0
  9 10  2  0  0  0  0
 10 11  1  0  0  0  0
 11 13  1  0  0  0  0
 11 12  2  0  0  0  0
 12  7  1  0  0  0  0
 13 15  1  0  0  0  0
 13 14  1  0  0  0  0
 15 16  2  0  0  0  0
 15 17  2  0  0  0  0
 15 18  1  0  0  0  0
 18 19  1  0  0  0  0
 19 20  1  0  0  0  0
 20 21  1  0  0  0  0
 20 22  1  0  0  0  0
 20 23  1  0  0  0  0
 24  1  1  0  0  0  0
 25 24  1  0  0  0  0
 26 27  2  0  0  0  0
 27 28  1  0  0  0  0
 28 25  1  0  0  0  0
 28 29  2  0  0  0  0
 29 30  1  0  0  0  0
 30 31  2  0  0  0  0
 31 32  1  0  0  0  0
 31 26  1  0  0  0  0
 32 33  1  0  0  0  0
 34 35  2  0  0  0  0
 35 36  1  0  0  0  0
 35 26  1  0  0  0  0
 36 37  1  0  0  0  0
M  END
>  <Activity>
18.5

>  <minimizedAffinity>
-9.03011

>  <RFScoreVS_v2>
5.99122538529

$$$$
HIPS7792
 OpenBabel05252300073D

 37 39  0  0  0  0  0  0  0  0999 V2000
   67.4060   79.4909   88.6732 C   0  0  0  0  0  0  0  0  0  0  0  0
   67.5892   78.4513   87.7580 C   0  0  0  0  0  0  0  0  0  0  0  0
   67.7869   77.1819   88.1998 N   0  0  0  0  0  0  0  0  0  0  0  0
   67.8098   76.8895   89.5306 C   0  0  0  0  0  0  0  0  0  0  0  0
   67.6227   77.8930   90.4352 N   0  0  0  0  0  0  0  0  0  0  0  0
   67.4177   79.1768   90.0374 C   0  0  0  0  0  0  0  0  0  0  0  0
   68.0445   75.4950   89.9846 C   0  0  0  0  0  0  0  0  0  0  0  0
   67.4249   74.4185   89.3244 C   0  0  0  0  0  0  0  0  0  0  0  0
   67.6695   73.1054   89.7264 C   0  0  0  0  0  0  0  0  0  0  0  0
   68.5237   72.8468   90.7996 C   0  0  0  0  0  0  0  0  0  0  0  0
   69.1341   73.9070   91.4941 C   0  0  0  0  0  0  0  0  0  0  0  0
   68.9005   75.2269   91.0662 C   0  0  0  0  0  0  0  0  0  0  0  0
   69.9950   73.6850   92.6261 N   0  0  0  0  0  0  0  0  0  0  0  0
   70.9598   73.5879   92.4561 H   0  0  0  0  0  0  0  0  0  0  0  0
   69.4487   73.5766   94.2715 S   0  0  0  0  0  0  0  0  0  0  0  0
   69.9798   74.7687   95.0221 O   0  0  0  0  0  0  0  0  0  0  0  0
   70.0034   72.3263   94.8997 O   0  0  0  0  0  0  0  0  0  0  0  0
   67.6546   73.6032   94.3253 C   0  0  0  0  0  0  0  0  0  0  0  0
   67.0879   74.8588   95.0149 C   0  0  0  0  0  0  0  0  0  0  0  0
   66.6799   75.9707   94.0407 C   0  0  0  0  0  0  0  0  0  0  0  0
   67.7239   76.8513   93.8338 F   0  0  0  0  0  0  0  0  0  0  0  0
   66.2865   75.4277   92.8284 F   0  0  0  0  0  0  0  0  0  0  0  0
   65.6156   76.6727   94.5775 F   0  0  0  0  0  0  0  0  0  0  0  0
   67.1514   80.8899   88.1972 C   0  0  0  0  0  0  0  0  0  0  0  0
   67.7339   81.8097   89.1121 O   0  0  0  0  0  0  0  0  0  0  0  0
   70.6016   83.9730   88.0638 C   0  0  0  0  0  0  0  0  0  0  0  0
   69.3160   83.4035   88.1098 C   0  0  0  0  0  0  0  0  0  0  0  0
   69.0250   82.3408   88.9849 C   0  0  0  0  0  0  0  0  0  0  0  0
   70.0538   81.8008   89.7668 C   0  0  0  0  0  0  0  0  0  0  0  0
   71.3374   82.3428   89.7175 C   0  0  0  0  0  0  0  0  0  0  0  0
   71.6230   83.4206   88.8720 C   0  0  0  0  0  0  0  0  0  0  0  0
   72.9121   83.9499   88.8501 O   0  0  0  0  0  0  0  0  0  0  0  0
   73.5812   83.5764   89.3893 H   0  0  0  0  0  0  0  0  0  0  0  0
   71.7421   85.9942   87.4805 O   0  0  0  0  0  0  0  0  0  0  0  0
   70.8740   85.1274   87.1679 C   0  0  0  0  0  0  0  0  0  0  0  0
   70.2195   85.2481   85.9449 O   0  0  0  0  0  0  0  0  0  0  0  0
   69.5736   84.6170   85.6948 H   0  0  0  0  0  0  0  0  0  0  0  0
  1  2  2  0  0  0  0
  2  3  2  0  0  0  0
  3  4  2  0  0  0  0
  4  7  1  0  0  0  0
  4  5  2  0  0  0  0
  5  6  2  0  0  0  0
  6  1  1  0  0  0  0
  7  8  2  0  0  0  0
  8  9  1  0  0  0  0
  9 10  2  0  0  0  0
 10 11  1  0  0  0  0
 11 13  1  0  0  0  0
 11 12  2  0  0  0  0
 12  7  1  0  0  0  0
 13 15  1  0  0  0  0
 13 14  1  0  0  0  0
 15 16  2  0  0  0  0
 15 17  2  0  0  0  0
 15 18  1  0  0  0  0
 18 19  1  0  0  0  0
 19 20  1  0  0  0  0
 20 21  1  0  0  0  0
 20 22  1  0  0  0  0
 20 23  1  0  0  0  0
 24  1  1  0  0  0  0
 25 24  1  0  0  0  0
 26 27  2  0  0  0  0
 27 28  1  0  0  0  0
 28 25  1  0  0  0  0
 28 29  2  0  0  0  0
 29 30  1  0  0  0  0
 30 31  2  0  0  0  0
 31 32  1  0  0  0  0
 31 26  1  0  0  0  0
 32 33  1  0  0  0  0
 34 35  2  0  0  0  0
 35 36  1  0  0  0  0
 35 26  1  0  0  0  0
 36 37  1  0  0  0  0
M  END
>  <Activity>
18.5

>  <minimizedAffinity>
-8.66782

>  <RFScoreVS_v2>
5.97026206974

$$$$
HIPS7792
 OpenBabel05252300073D

 37 39  0  0  0  0  0  0  0  0999 V2000
   66.9730   79.2429   88.4628 C   0  0  0  0  0  0  0  0  0  0  0  0
   67.6506   79.0549   89.6701 C   0  0  0  0  0  0  0  0  0  0  0  0
   67.9554   77.7999   90.0916 N   0  0  0  0  0  0  0  0  0  0  0  0
   67.6154   76.7030   89.3581 C   0  0  0  0  0  0  0  0  0  0  0  0
   66.9622   76.8721   88.1728 N   0  0  0  0  0  0  0  0  0  0  0  0
   66.6410   78.1098   87.7107 C   0  0  0  0  0  0  0  0  0  0  0  0
   67.9472   75.3423   89.8522 C   0  0  0  0  0  0  0  0  0  0  0  0
   67.3711   74.2078   89.2524 C   0  0  0  0  0  0  0  0  0  0  0  0
   67.7061   72.9270   89.6915 C   0  0  0  0  0  0  0  0  0  0  0  0
   68.6090   72.7584   90.7426 C   0  0  0  0  0  0  0  0  0  0  0  0
   69.1780   73.8773   91.3776 C   0  0  0  0  0  0  0  0  0  0  0  0
   68.8526   75.1646   90.9120 C   0  0  0  0  0  0  0  0  0  0  0  0
   70.0873   73.7478   92.4858 N   0  0  0  0  0  0  0  0  0  0  0  0
   70.9546   74.2096   92.4235 H   0  0  0  0  0  0  0  0  0  0  0  0
   69.7598   72.8329   93.9257 S   0  0  0  0  0  0  0  0  0  0  0  0
   68.2698   72.8136   94.1410 O   0  0  0  0  0  0  0  0  0  0  0  0
   70.4073   73.5092   95.1042 O   0  0  0  0  0  0  0  0  0  0  0  0
   70.3443   71.1473   93.7278 C   0  0  0  0  0  0  0  0  0  0  0  0
   71.8289   70.9734   94.1007 C   0  0  0  0  0  0  0  0  0  0  0  0
   72.1049   69.7619   94.9996 C   0  0  0  0  0  0  0  0  0  0  0  0
   73.4314   69.7258   95.3834 F   0  0  0  0  0  0  0  0  0  0  0  0
   71.2992   69.8051   96.1258 F   0  0  0  0  0  0  0  0  0  0  0  0
   71.8214   68.6048   94.2966 F   0  0  0  0  0  0  0  0  0  0  0  0
   66.6627   80.6247   87.9697 C   0  0  0  0  0  0  0  0  0  0  0  0
   67.4280   81.5688   88.7081 O   0  0  0  0  0  0  0  0  0  0  0  0
   70.2028   83.9613   87.9476 C   0  0  0  0  0  0  0  0  0  0  0  0
   69.4466   82.9691   88.5978 C   0  0  0  0  0  0  0  0  0  0  0  0
   68.1685   82.6102   88.1317 C   0  0  0  0  0  0  0  0  0  0  0  0
   67.6188   83.3052   87.0471 C   0  0  0  0  0  0  0  0  0  0  0  0
   68.3492   84.3040   86.4048 C   0  0  0  0  0  0  0  0  0  0  0  0
   69.6336   84.6418   86.8455 C   0  0  0  0  0  0  0  0  0  0  0  0
   70.3460   85.6370   86.1787 O   0  0  0  0  0  0  0  0  0  0  0  0
   69.9596   86.0814   85.4499 H   0  0  0  0  0  0  0  0  0  0  0  0
   72.0385   85.4581   88.2887 O   0  0  0  0  0  0  0  0  0  0  0  0
   71.5710   84.2899   88.4271 C   0  0  0  0  0  0  0  0  0  0  0  0
   72.3422   83.3352   89.0847 O   0  0  0  0  0  0  0  0  0  0  0  0
   72.0143   82.4647   89.1975 H   0  0  0  0  0  0  0  0  0  0  0  0
  1  2  2  0  0  0  0
  2  3  2  0  0  0  0
  3  4  2  0  0  0  0
  4  7  1  0  0  0  0
  4  5  2  0  0  0  0
  5  6  2  0  0  0  0
  6  1  1  0  0  0  0
  7  8  2  0  0  0  0
  8  9  1  0  0  0  0
  9 10  2  0  0  0  0
 10 11  1  0  0  0  0
 11 13  1  0  0  0  0
 11 12  2  0  0  0  0
 12  7  1  0  0  0  0
 13 15  1  0  0  0  0
 13 14  1  0  0  0  0
 15 16  2  0  0  0  0
 15 17  2  0  0  0  0
 15 18  1  0  0  0  0
 18 19  1  0  0  0  0
 19 20  1  0  0  0  0
 20 21  1  0  0  0  0
 20 22  1  0  0  0  0
 20 23  1  0  0  0  0
 24  1  1  0  0  0  0
 25 24  1  0  0  0  0
 26 27  2  0  0  0  0
 27 28  1  0  0  0  0
 28 25  1  0  0  0  0
 28 29  2  0  0  0  0
 29 30  1  0  0  0  0
 30 31  2  0  0  0  0
 31 32  1  0  0  0  0
 31 26  1  0  0  0  0
 32 33  1  0  0  0  0
 34 35  2  0  0  0  0
 35 36  1  0  0  0  0
 35 26  1  0  0  0  0
 36 37  1  0  0  0  0
M  END
>  <Activity>
18.5

>  <minimizedAffinity>
-8.55228

>  <RFScoreVS_v2>
5.95765866907

$$$$
HIPS7792
 OpenBabel05252300073D

 37 39  0  0  0  0  0  0  0  0999 V2000
   68.1483   79.4697   91.0283 C   0  0  0  0  0  0  0  0  0  0  0  0
   68.8395   78.2593   90.9332 C   0  0  0  0  0  0  0  0  0  0  0  0
   68.4921   77.2125   91.7263 N   0  0  0  0  0  0  0  0  0  0  0  0
   67.4717   77.3108   92.6242 C   0  0  0  0  0  0  0  0  0  0  0  0
   66.7819   78.4835   92.7211 N   0  0  0  0  0  0  0  0  0  0  0  0
   67.0929   79.5550   91.9442 C   0  0  0  0  0  0  0  0  0  0  0  0
   67.1252   76.1549   93.4899 C   0  0  0  0  0  0  0  0  0  0  0  0
   65.8283   76.0264   94.0192 C   0  0  0  0  0  0  0  0  0  0  0  0
   65.4895   74.9248   94.8047 C   0  0  0  0  0  0  0  0  0  0  0  0
   66.4409   73.9427   95.0852 C   0  0  0  0  0  0  0  0  0  0  0  0
   67.7526   74.0616   94.5909 C   0  0  0  0  0  0  0  0  0  0  0  0
   68.0785   75.1639   93.7795 C   0  0  0  0  0  0  0  0  0  0  0  0
   68.7719   73.0885   94.8841 N   0  0  0  0  0  0  0  0  0  0  0  0
   68.9694   72.9026   95.8305 H   0  0  0  0  0  0  0  0  0  0  0  0
   69.6774   72.2195   93.6831 S   0  0  0  0  0  0  0  0  0  0  0  0
   70.3423   71.0469   94.3536 O   0  0  0  0  0  0  0  0  0  0  0  0
   70.7438   73.1177   93.1162 O   0  0  0  0  0  0  0  0  0  0  0  0
   68.5746   71.6133   92.4029 C   0  0  0  0  0  0  0  0  0  0  0  0
   68.9830   72.0653   90.9879 C   0  0  0  0  0  0  0  0  0  0  0  0
   68.1913   73.2721   90.4696 C   0  0  0  0  0  0  0  0  0  0  0  0
   67.7776   73.0670   89.1676 F   0  0  0  0  0  0  0  0  0  0  0  0
   67.0874   73.5046   91.2737 F   0  0  0  0  0  0  0  0  0  0  0  0
   69.0039   74.3911   90.4990 F   0  0  0  0  0  0  0  0  0  0  0  0
   68.4990   80.6207   90.1333 C   0  0  0  0  0  0  0  0  0  0  0  0
   69.9064   80.8226   90.1592 O   0  0  0  0  0  0  0  0  0  0  0  0
   70.5668   83.9606   88.2306 C   0  0  0  0  0  0  0  0  0  0  0  0
   69.9221   82.8011   88.6986 C   0  0  0  0  0  0  0  0  0  0  0  0
   70.5551   81.9386   89.6125 C   0  0  0  0  0  0  0  0  0  0  0  0
   71.8733   82.2074   90.0022 C   0  0  0  0  0  0  0  0  0  0  0  0
   72.5314   83.3427   89.5315 C   0  0  0  0  0  0  0  0  0  0  0  0
   71.8937   84.2201   88.6474 C   0  0  0  0  0  0  0  0  0  0  0  0
   72.5710   85.3532   88.2006 O   0  0  0  0  0  0  0  0  0  0  0  0
   73.4497   85.5156   88.4828 H   0  0  0  0  0  0  0  0  0  0  0  0
   70.2642   85.0344   86.1137 O   0  0  0  0  0  0  0  0  0  0  0  0
   69.8607   84.8839   87.3040 C   0  0  0  0  0  0  0  0  0  0  0  0
   68.7123   85.5581   87.7106 O   0  0  0  0  0  0  0  0  0  0  0  0
   68.3971   85.4601   88.5875 H   0  0  0  0  0  0  0  0  0  0  0  0
  1  2  2  0  0  0  0
  2  3  2  0  0  0  0
  3  4  2  0  0  0  0
  4  7  1  0  0  0  0
  4  5  2  0  0  0  0
  5  6  2  0  0  0  0
  6  1  1  0  0  0  0
  7  8  2  0  0  0  0
  8  9  1  0  0  0  0
  9 10  2  0  0  0  0
 10 11  1  0  0  0  0
 11 13  1  0  0  0  0
 11 12  2  0  0  0  0
 12  7  1  0  0  0  0
 13 15  1  0  0  0  0
 13 14  1  0  0  0  0
 15 16  2  0  0  0  0
 15 17  2  0  0  0  0
 15 18  1  0  0  0  0
 18 19  1  0  0  0  0
 19 20  1  0  0  0  0
 20 21  1  0  0  0  0
 20 22  1  0  0  0  0
 20 23  1  0  0  0  0
 24  1  1  0  0  0  0
 25 24  1  0  0  0  0
 26 27  2  0  0  0  0
 27 28  1  0  0  0  0
 28 25  1  0  0  0  0
 28 29  2  0  0  0  0
 29 30  1  0  0  0  0
 30 31  2  0  0  0  0
 31 32  1  0  0  0  0
 31 26  1  0  0  0  0
 32 33  1  0  0  0  0
 34 35  2  0  0  0  0
 35 36  1  0  0  0  0
 35 26  1  0  0  0  0
 36 37  1  0  0  0  0
M  END
>  <Activity>
18.5

>  <minimizedAffinity>
-8.45104

>  <RFScoreVS_v2>
5.95424090325

$$$$
HIPS7792
 OpenBabel05252300073D

 37 39  0  0  0  0  0  0  0  0999 V2000
   67.0657   79.4189   88.4059 C   0  0  0  0  0  0  0  0  0  0  0  0
   66.9356   79.0493   89.7469 C   0  0  0  0  0  0  0  0  0  0  0  0
   67.1957   77.7719   90.1296 N   0  0  0  0  0  0  0  0  0  0  0  0
   67.5877   76.8275   89.2289 C   0  0  0  0  0  0  0  0  0  0  0  0
   67.7281   77.1765   87.9179 N   0  0  0  0  0  0  0  0  0  0  0  0
   67.4823   78.4440   87.4916 C   0  0  0  0  0  0  0  0  0  0  0  0
   67.8490   75.4348   89.6736 C   0  0  0  0  0  0  0  0  0  0  0  0
   67.1593   74.3591   89.0855 C   0  0  0  0  0  0  0  0  0  0  0  0
   67.4265   73.0473   89.4768 C   0  0  0  0  0  0  0  0  0  0  0  0
   68.3745   72.7891   90.4683 C   0  0  0  0  0  0  0  0  0  0  0  0
   69.0581   73.8488   91.0917 C   0  0  0  0  0  0  0  0  0  0  0  0
   68.7994   75.1671   90.6736 C   0  0  0  0  0  0  0  0  0  0  0  0
   70.0185   73.6277   92.1407 N   0  0  0  0  0  0  0  0  0  0  0  0
   70.9484   73.9067   91.9771 H   0  0  0  0  0  0  0  0  0  0  0  0
   69.6498   72.9025   93.6756 S   0  0  0  0  0  0  0  0  0  0  0  0
   68.1524   72.8513   93.8231 O   0  0  0  0  0  0  0  0  0  0  0  0
   70.2130   73.7574   94.7790 O   0  0  0  0  0  0  0  0  0  0  0  0
   70.3013   71.2310   93.7366 C   0  0  0  0  0  0  0  0  0  0  0  0
   71.8361   71.1744   93.6151 C   0  0  0  0  0  0  0  0  0  0  0  0
   72.3851   69.7689   93.3411 C   0  0  0  0  0  0  0  0  0  0  0  0
   73.5222   69.5304   94.0884 F   0  0  0  0  0  0  0  0  0  0  0  0
   71.4282   68.8122   93.6381 F   0  0  0  0  0  0  0  0  0  0  0  0
   72.7130   69.6660   92.0012 F   0  0  0  0  0  0  0  0  0  0  0  0
   66.8161   80.8341   87.9772 C   0  0  0  0  0  0  0  0  0  0  0  0
   67.3858   81.7205   88.9322 O   0  0  0  0  0  0  0  0  0  0  0  0
   70.3061   83.8750   88.0199 C   0  0  0  0  0  0  0  0  0  0  0  0
   69.0128   83.3213   88.0168 C   0  0  0  0  0  0  0  0  0  0  0  0
   68.6862   82.2381   88.8532 C   0  0  0  0  0  0  0  0  0  0  0  0
   69.6877   81.6625   89.6452 C   0  0  0  0  0  0  0  0  0  0  0  0
   70.9788   82.1889   89.6441 C   0  0  0  0  0  0  0  0  0  0  0  0
   71.2995   83.2864   88.8376 C   0  0  0  0  0  0  0  0  0  0  0  0
   72.5951   83.7992   88.8636 O   0  0  0  0  0  0  0  0  0  0  0  0
   73.2454   83.4018   89.4088 H   0  0  0  0  0  0  0  0  0  0  0  0
   71.5187   85.8717   87.5014 O   0  0  0  0  0  0  0  0  0  0  0  0
   70.6158   85.0508   87.1648 C   0  0  0  0  0  0  0  0  0  0  0  0
   69.9573   85.2417   85.9529 O   0  0  0  0  0  0  0  0  0  0  0  0
   69.2859   84.6452   85.6855 H   0  0  0  0  0  0  0  0  0  0  0  0
  1  2  2  0  0  0  0
  2  3  2  0  0  0  0
  3  4  2  0  0  0  0
  4  7  1  0  0  0  0
  4  5  2  0  0  0  0
  5  6  2  0  0  0  0
  6  1  1  0  0  0  0
  7  8  2  0  0  0  0
  8  9  1  0  0  0  0
  9 10  2  0  0  0  0
 10 11  1  0  0  0  0
 11 13  1  0  0  0  0
 11 12  2  0  0  0  0
 12  7  1  0  0  0  0
 13 15  1  0  0  0  0
 13 14  1  0  0  0  0
 15 16  2  0  0  0  0
 15 17  2  0  0  0  0
 15 18  1  0  0  0  0
 18 19  1  0  0  0  0
 19 20  1  0  0  0  0
 20 21  1  0  0  0  0
 20 22  1  0  0  0  0
 20 23  1  0  0  0  0
 24  1  1  0  0  0  0
 25 24  1  0  0  0  0
 26 27  2  0  0  0  0
 27 28  1  0  0  0  0
 28 25  1  0  0  0  0
 28 29  2  0  0  0  0
 29 30  1  0  0  0  0
 30 31  2  0  0  0  0
 31 32  1  0  0  0  0
 31 26  1  0  0  0  0
 32 33  1  0  0  0  0
 34 35  2  0  0  0  0
 35 36  1  0  0  0  0
 35 26  1  0  0  0  0
 36 37  1  0  0  0  0
M  END
>  <Activity>
18.5

>  <minimizedAffinity>
-8.34610

>  <RFScoreVS_v2>
5.96118508995

$$$$
HIPS7792
 OpenBabel05252300073D

 37 39  0  0  0  0  0  0  0  0999 V2000
   66.7925   79.1693   88.2655 C   0  0  0  0  0  0  0  0  0  0  0  0
   67.4785   78.2514   87.4664 C   0  0  0  0  0  0  0  0  0  0  0  0
   67.7964   77.0251   87.9572 N   0  0  0  0  0  0  0  0  0  0  0  0
   67.4580   76.6592   89.2255 C   0  0  0  0  0  0  0  0  0  0  0  0
   66.7797   77.5417   90.0137 N   0  0  0  0  0  0  0  0  0  0  0  0
   66.4378   78.7777   89.5620 C   0  0  0  0  0  0  0  0  0  0  0  0
   67.8335   75.3178   89.7406 C   0  0  0  0  0  0  0  0  0  0  0  0
   67.2627   74.1578   89.1863 C   0  0  0  0  0  0  0  0  0  0  0  0
   67.6380   72.8950   89.6444 C   0  0  0  0  0  0  0  0  0  0  0  0
   68.5769   72.7699   90.6698 C   0  0  0  0  0  0  0  0  0  0  0  0
   69.1420   73.9151   91.2600 C   0  0  0  0  0  0  0  0  0  0  0  0
   68.7753   75.1840   90.7749 C   0  0  0  0  0  0  0  0  0  0  0  0
   70.0882   73.8307   92.3413 N   0  0  0  0  0  0  0  0  0  0  0  0
   70.9355   74.3233   92.2485 H   0  0  0  0  0  0  0  0  0  0  0  0
   69.8379   72.9195   93.7990 S   0  0  0  0  0  0  0  0  0  0  0  0
   71.1374   72.2537   94.1655 O   0  0  0  0  0  0  0  0  0  0  0  0
   68.8048   71.8536   93.5494 O   0  0  0  0  0  0  0  0  0  0  0  0
   69.3464   74.0170   95.1318 C   0  0  0  0  0  0  0  0  0  0  0  0
   67.9637   74.6589   94.9091 C   0  0  0  0  0  0  0  0  0  0  0  0
   66.8764   74.1333   95.8542 C   0  0  0  0  0  0  0  0  0  0  0  0
   67.4009   73.2204   96.7485 F   0  0  0  0  0  0  0  0  0  0  0  0
   66.2967   75.1812   96.5507 F   0  0  0  0  0  0  0  0  0  0  0  0
   65.8972   73.5020   95.1086 F   0  0  0  0  0  0  0  0  0  0  0  0
   66.4046   80.5125   87.7230 C   0  0  0  0  0  0  0  0  0  0  0  0
   66.4129   81.4648   88.7792 O   0  0  0  0  0  0  0  0  0  0  0  0
   68.7258   82.8071   91.3966 C   0  0  0  0  0  0  0  0  0  0  0  0
   67.5393   82.4448   90.7333 C   0  0  0  0  0  0  0  0  0  0  0  0
   67.5704   81.9115   89.4317 C   0  0  0  0  0  0  0  0  0  0  0  0
   68.7986   81.8094   88.7663 C   0  0  0  0  0  0  0  0  0  0  0  0
   69.9808   82.1825   89.4044 C   0  0  0  0  0  0  0  0  0  0  0  0
   69.9572   82.6834   90.7108 C   0  0  0  0  0  0  0  0  0  0  0  0
   71.1546   83.0389   91.3289 O   0  0  0  0  0  0  0  0  0  0  0  0
   71.9645   82.9531   90.8656 H   0  0  0  0  0  0  0  0  0  0  0  0
   67.9316   82.7689   93.6536 O   0  0  0  0  0  0  0  0  0  0  0  0
   68.6737   83.3220   92.7901 C   0  0  0  0  0  0  0  0  0  0  0  0
   69.4793   84.3868   93.1851 O   0  0  0  0  0  0  0  0  0  0  0  0
   70.0359   84.8099   92.5611 H   0  0  0  0  0  0  0  0  0  0  0  0
  1  2  2  0  0  0  0
  2  3  2  0  0  0  0
  3  4  2  0  0  0  0
  4  7  1  0  0  0  0
  4  5  2  0  0  0  0
  5  6  2  0  0  0  0
  6  1  1  0  0  0  0
  7  8  2  0  0  0  0
  8  9  1  0  0  0  0
  9 10  2  0  0  0  0
 10 11  1  0  0  0  0
 11 13  1  0  0  0  0
 11 12  2  0  0  0  0
 12  7  1  0  0  0  0
 13 15  1  0  0  0  0
 13 14  1  0  0  0  0
 15 16  2  0  0  0  0
 15 17  2  0  0  0  0
 15 18  1  0  0  0  0
 18 19  1  0  0  0  0
 19 20  1  0  0  0  0
 20 21  1  0  0  0  0
 20 22  1  0  0  0  0
 20 23  1  0  0  0  0
 24  1  1  0  0  0  0
 25 24  1  0  0  0  0
 26 27  2  0  0  0  0
 27 28  1  0  0  0  0
 28 25  1  0  0  0  0
 28 29  2  0  0  0  0
 29 30  1  0  0  0  0
 30 31  2  0  0  0  0
 31 32  1  0  0  0  0
 31 26  1  0  0  0  0
 32 33  1  0  0  0  0
 34 35  2  0  0  0  0
 35 36  1  0  0  0  0
 35 26  1  0  0  0  0
 36 37  1  0  0  0  0
M  END
>  <Activity>
18.5

>  <minimizedAffinity>
-8.31886

>  <RFScoreVS_v2>
5.97361376136

$$$$
HIPS7792
 OpenBabel05252300073D

 37 39  0  0  0  0  0  0  0  0999 V2000
   70.5994   80.9635   90.0150 C   0  0  0  0  0  0  0  0  0  0  0  0
   69.2411   80.6503   89.9211 C   0  0  0  0  0  0  0  0  0  0  0  0
   68.8274   79.3640   90.0622 N   0  0  0  0  0  0  0  0  0  0  0  0
   69.7133   78.3558   90.2982 C   0  0  0  0  0  0  0  0  0  0  0  0
   71.0415   78.6483   90.4018 N   0  0  0  0  0  0  0  0  0  0  0  0
   71.4990   79.9219   90.2714 C   0  0  0  0  0  0  0  0  0  0  0  0
   69.2336   76.9565   90.4315 C   0  0  0  0  0  0  0  0  0  0  0  0
   68.1697   76.4909   89.6379 C   0  0  0  0  0  0  0  0  0  0  0  0
   67.7387   75.1680   89.7360 C   0  0  0  0  0  0  0  0  0  0  0  0
   68.3521   74.2941   90.6351 C   0  0  0  0  0  0  0  0  0  0  0  0
   69.4000   74.7423   91.4599 C   0  0  0  0  0  0  0  0  0  0  0  0
   69.8439   76.0718   91.3367 C   0  0  0  0  0  0  0  0  0  0  0  0
   70.0369   73.8829   92.4229 N   0  0  0  0  0  0  0  0  0  0  0  0
   70.9267   73.5253   92.2003 H   0  0  0  0  0  0  0  0  0  0  0  0
   69.3434   73.4330   93.9507 S   0  0  0  0  0  0  0  0  0  0  0  0
   70.4119   72.7617   94.7719 O   0  0  0  0  0  0  0  0  0  0  0  0
   68.2255   72.4517   93.7212 O   0  0  0  0  0  0  0  0  0  0  0  0
   68.7708   74.8960   94.8191 C   0  0  0  0  0  0  0  0  0  0  0  0
   67.3191   75.2771   94.4716 C   0  0  0  0  0  0  0  0  0  0  0  0
   66.2986   74.8741   95.5431 C   0  0  0  0  0  0  0  0  0  0  0  0
   66.8999   74.7741   96.7827 F   0  0  0  0  0  0  0  0  0  0  0  0
   65.2710   75.8013   95.6017 F   0  0  0  0  0  0  0  0  0  0  0  0
   65.7640   73.6410   95.2157 F   0  0  0  0  0  0  0  0  0  0  0  0
   71.0644   82.3842   89.8968 C   0  0  0  0  0  0  0  0  0  0  0  0
   70.2283   83.0761   88.9778 O   0  0  0  0  0  0  0  0  0  0  0  0
   69.2180   86.5081   90.0747 C   0  0  0  0  0  0  0  0  0  0  0  0
   69.3434   85.1072   90.0453 C   0  0  0  0  0  0  0  0  0  0  0  0
   70.0156   84.4616   88.9912 C   0  0  0  0  0  0  0  0  0  0  0  0
   70.5019   85.2265   87.9234 C   0  0  0  0  0  0  0  0  0  0  0  0
   70.3679   86.6142   87.9299 C   0  0  0  0  0  0  0  0  0  0  0  0
   69.7282   87.2627   88.9921 C   0  0  0  0  0  0  0  0  0  0  0  0
   69.6172   88.6519   88.9783 O   0  0  0  0  0  0  0  0  0  0  0  0
   69.9586   89.1420   88.2564 H   0  0  0  0  0  0  0  0  0  0  0  0
   67.4475   86.7326   91.6688 O   0  0  0  0  0  0  0  0  0  0  0  0
   68.5474   87.1727   91.2228 C   0  0  0  0  0  0  0  0  0  0  0  0
   69.1420   88.2571   91.8627 O   0  0  0  0  0  0  0  0  0  0  0  0
   69.9562   88.5979   91.5482 H   0  0  0  0  0  0  0  0  0  0  0  0
  1  2  2  0  0  0  0
  2  3  2  0  0  0  0
  3  4  2  0  0  0  0
  4  7  1  0  0  0  0
  4  5  2  0  0  0  0
  5  6  2  0  0  0  0
  6  1  1  0  0  0  0
  7  8  2  0  0  0  0
  8  9  1  0  0  0  0
  9 10  2  0  0  0  0
 10 11  1  0  0  0  0
 11 13  1  0  0  0  0
 11 12  2  0  0  0  0
 12  7  1  0  0  0  0
 13 15  1  0  0  0  0
 13 14  1  0  0  0  0
 15 16  2  0  0  0  0
 15 17  2  0  0  0  0
 15 18  1  0  0  0  0
 18 19  1  0  0  0  0
 19 20  1  0  0  0  0
 20 21  1  0  0  0  0
 20 22  1  0  0  0  0
 20 23  1  0  0  0  0
 24  1  1  0  0  0  0
 25 24  1  0  0  0  0
 26 27  2  0  0  0  0
 27 28  1  0  0  0  0
 28 25  1  0  0  0  0
 28 29  2  0  0  0  0
 29 30  1  0  0  0  0
 30 31  2  0  0  0  0
 31 32  1  0  0  0  0
 31 26  1  0  0  0  0
 32 33  1  0  0  0  0
 34 35  2  0  0  0  0
 35 36  1  0  0  0  0
 35 26  1  0  0  0  0
 36 37  1  0  0  0  0
M  END
>  <Activity>
18.5

>  <minimizedAffinity>
-8.25947

>  <RFScoreVS_v2>
5.96686558374

$$$$
HIPS7792
 OpenBabel05252300073D

 37 39  0  0  0  0  0  0  0  0999 V2000
   66.9489   79.3215   88.8091 C   0  0  0  0  0  0  0  0  0  0  0  0
   67.3455   78.3403   87.8969 C   0  0  0  0  0  0  0  0  0  0  0  0
   67.6595   77.0925   88.3327 N   0  0  0  0  0  0  0  0  0  0  0  0
   67.5956   76.7655   89.6540 C   0  0  0  0  0  0  0  0  0  0  0  0
   67.2008   77.7106   90.5546 N   0  0  0  0  0  0  0  0  0  0  0  0
   66.8735   78.9705   90.1623 C   0  0  0  0  0  0  0  0  0  0  0  0
   67.9609   75.3977   90.1030 C   0  0  0  0  0  0  0  0  0  0  0  0
   67.4695   74.2702   89.4204 C   0  0  0  0  0  0  0  0  0  0  0  0
   67.8374   72.9850   89.8182 C   0  0  0  0  0  0  0  0  0  0  0  0
   68.6890   72.8041   90.9094 C   0  0  0  0  0  0  0  0  0  0  0  0
   69.1721   73.9141   91.6261 C   0  0  0  0  0  0  0  0  0  0  0  0
   68.8149   75.2075   91.2026 C   0  0  0  0  0  0  0  0  0  0  0  0
   70.0250   73.7698   92.7764 N   0  0  0  0  0  0  0  0  0  0  0  0
   70.9985   73.7803   92.6295 H   0  0  0  0  0  0  0  0  0  0  0  0
   69.4552   73.5783   94.4062 S   0  0  0  0  0  0  0  0  0  0  0  0
   69.9432   74.7505   95.2151 O   0  0  0  0  0  0  0  0  0  0  0  0
   70.0317   72.3169   94.9910 O   0  0  0  0  0  0  0  0  0  0  0  0
   67.6604   73.5576   94.4301 C   0  0  0  0  0  0  0  0  0  0  0  0
   67.0503   74.7719   95.1559 C   0  0  0  0  0  0  0  0  0  0  0  0
   66.5733   75.8829   94.2126 C   0  0  0  0  0  0  0  0  0  0  0  0
   67.5656   76.8244   94.0195 F   0  0  0  0  0  0  0  0  0  0  0  0
   66.1994   75.3487   92.9903 F   0  0  0  0  0  0  0  0  0  0  0  0
   65.4771   76.5121   94.7746 F   0  0  0  0  0  0  0  0  0  0  0  0
   66.5654   80.6919   88.3363 C   0  0  0  0  0  0  0  0  0  0  0  0
   67.2832   81.6642   89.0858 O   0  0  0  0  0  0  0  0  0  0  0  0
   68.6580   85.1359   88.8414 C   0  0  0  0  0  0  0  0  0  0  0  0
   68.1123   83.9598   89.3874 C   0  0  0  0  0  0  0  0  0  0  0  0
   67.7505   82.8782   88.5634 C   0  0  0  0  0  0  0  0  0  0  0  0
   67.8721   83.0094   87.1743 C   0  0  0  0  0  0  0  0  0  0  0  0
   68.3935   84.1767   86.6180 C   0  0  0  0  0  0  0  0  0  0  0  0
   68.7844   85.2424   87.4362 C   0  0  0  0  0  0  0  0  0  0  0  0
   69.3123   86.3936   86.8546 O   0  0  0  0  0  0  0  0  0  0  0  0
   69.3916   86.4537   85.9229 H   0  0  0  0  0  0  0  0  0  0  0  0
   70.0104   87.0323   89.3900 O   0  0  0  0  0  0  0  0  0  0  0  0
   69.0794   86.2469   89.7346 C   0  0  0  0  0  0  0  0  0  0  0  0
   68.4231   86.4772   90.9409 O   0  0  0  0  0  0  0  0  0  0  0  0
   67.7312   85.9074   91.2141 H   0  0  0  0  0  0  0  0  0  0  0  0
  1  2  2  0  0  0  0
  2  3  2  0  0  0  0
  3  4  2  0  0  0  0
  4  7  1  0  0  0  0
  4  5  2  0  0  0  0
  5  6  2  0  0  0  0
  6  1  1  0  0  0  0
  7  8  2  0  0  0  0
  8  9  1  0  0  0  0
  9 10  2  0  0  0  0
 10 11  1  0  0  0  0
 11 13  1  0  0  0  0
 11 12  2  0  0  0  0
 12  7  1  0  0  0  0
 13 15  1  0  0  0  0
 13 14  1  0  0  0  0
 15 16  2  0  0  0  0
 15 17  2  0  0  0  0
 15 18  1  0  0  0  0
 18 19  1  0  0  0  0
 19 20  1  0  0  0  0
 20 21  1  0  0  0  0
 20 22  1  0  0  0  0
 20 23  1  0  0  0  0
 24  1  1  0  0  0  0
 25 24  1  0  0  0  0
 26 27  2  0  0  0  0
 27 28  1  0  0  0  0
 28 25  1  0  0  0  0
 28 29  2  0  0  0  0
 29 30  1  0  0  0  0
 30 31  2  0  0  0  0
 31 32  1  0  0  0  0
 31 26  1  0  0  0  0
 32 33  1  0  0  0  0
 34 35  2  0  0  0  0
 35 36  1  0  0  0  0
 35 26  1  0  0  0  0
 36 37  1  0  0  0  0
M  END
>  <Activity>
18.5

>  <minimizedAffinity>
-8.22599

>  <RFScoreVS_v2>
5.96234418714

$$$$
HIPS7792
 OpenBabel05252300073D

 37 39  0  0  0  0  0  0  0  0999 V2000
   66.7608   79.4621   87.8698 C   0  0  0  0  0  0  0  0  0  0  0  0
   67.2606   78.5258   86.9612 C   0  0  0  0  0  0  0  0  0  0  0  0
   67.3699   77.2200   87.3197 N   0  0  0  0  0  0  0  0  0  0  0  0
   66.9983   76.7910   88.5585 C   0  0  0  0  0  0  0  0  0  0  0  0
   66.4996   77.6923   89.4525 N   0  0  0  0  0  0  0  0  0  0  0  0
   66.3691   79.0078   89.1348 C   0  0  0  0  0  0  0  0  0  0  0  0
   67.1447   75.3600   88.9280 C   0  0  0  0  0  0  0  0  0  0  0  0
   66.6681   74.3518   88.0706 C   0  0  0  0  0  0  0  0  0  0  0  0
   66.8340   73.0062   88.3982 C   0  0  0  0  0  0  0  0  0  0  0  0
   67.4647   72.6459   89.5902 C   0  0  0  0  0  0  0  0  0  0  0  0
   67.9257   73.6350   90.4780 C   0  0  0  0  0  0  0  0  0  0  0  0
   67.7755   74.9895   90.1278 C   0  0  0  0  0  0  0  0  0  0  0  0
   68.5514   73.3061   91.7318 N   0  0  0  0  0  0  0  0  0  0  0  0
   68.4453   72.3876   92.0700 H   0  0  0  0  0  0  0  0  0  0  0  0
   69.4807   74.4183   92.6894 S   0  0  0  0  0  0  0  0  0  0  0  0
   70.2685   73.6252   93.6978 O   0  0  0  0  0  0  0  0  0  0  0  0
   68.5481   75.3419   93.4262 O   0  0  0  0  0  0  0  0  0  0  0  0
   70.6196   75.3275   91.6412 C   0  0  0  0  0  0  0  0  0  0  0  0
   70.5466   76.8524   91.8474 C   0  0  0  0  0  0  0  0  0  0  0  0
   71.8650   77.5810   91.5594 C   0  0  0  0  0  0  0  0  0  0  0  0
   71.6296   78.8210   90.9978 F   0  0  0  0  0  0  0  0  0  0  0  0
   72.5951   77.7338   92.7267 F   0  0  0  0  0  0  0  0  0  0  0  0
   72.6092   76.8309   90.6667 F   0  0  0  0  0  0  0  0  0  0  0  0
   66.6019   80.8996   87.4737 C   0  0  0  0  0  0  0  0  0  0  0  0
   67.2884   81.7221   88.4090 O   0  0  0  0  0  0  0  0  0  0  0  0
   70.3849   83.8044   88.1301 C   0  0  0  0  0  0  0  0  0  0  0  0
   69.4872   82.8124   88.5650 C   0  0  0  0  0  0  0  0  0  0  0  0
   68.1766   82.7478   88.0570 C   0  0  0  0  0  0  0  0  0  0  0  0
   67.7447   83.7320   87.1590 C   0  0  0  0  0  0  0  0  0  0  0  0
   68.6178   84.7324   86.7338 C   0  0  0  0  0  0  0  0  0  0  0  0
   69.9318   84.7812   87.2123 C   0  0  0  0  0  0  0  0  0  0  0  0
   70.7868   85.7858   86.7626 O   0  0  0  0  0  0  0  0  0  0  0  0
   70.4764   86.4277   86.1547 H   0  0  0  0  0  0  0  0  0  0  0  0
   72.0393   83.4349   89.8191 O   0  0  0  0  0  0  0  0  0  0  0  0
   71.7800   83.8240   88.6428 C   0  0  0  0  0  0  0  0  0  0  0  0
   72.8334   84.2189   87.8222 O   0  0  0  0  0  0  0  0  0  0  0  0
   72.6627   84.5102   86.9482 H   0  0  0  0  0  0  0  0  0  0  0  0
  1  2  2  0  0  0  0
  2  3  2  0  0  0  0
  3  4  2  0  0  0  0
  4  7  1  0  0  0  0
  4  5  2  0  0  0  0
  5  6  2  0  0  0  0
  6  1  1  0  0  0  0
  7  8  2  0  0  0  0
  8  9  1  0  0  0  0
  9 10  2  0  0  0  0
 10 11  1  0  0  0  0
 11 13  1  0  0  0  0
 11 12  2  0  0  0  0
 12  7  1  0  0  0  0
 13 15  1  0  0  0  0
 13 14  1  0  0  0  0
 15 16  2  0  0  0  0
 15 17  2  0  0  0  0
 15 18  1  0  0  0  0
 18 19  1  0  0  0  0
 19 20  1  0  0  0  0
 20 21  1  0  0  0  0
 20 22  1  0  0  0  0
 20 23  1  0  0  0  0
 24  1  1  0  0  0  0
 25 24  1  0  0  0  0
 26 27  2  0  0  0  0
 27 28  1  0  0  0  0
 28 25  1  0  0  0  0
 28 29  2  0  0  0  0
 29 30  1  0  0  0  0
 30 31  2  0  0  0  0
 31 32  1  0  0  0  0
 31 26  1  0  0  0  0
 32 33  1  0  0  0  0
 34 35  2  0  0  0  0
 35 36  1  0  0  0  0
 35 26  1  0  0  0  0
 36 37  1  0  0  0  0
M  END
>  <Activity>
18.5

>  <minimizedAffinity>
-8.17529

>  <RFScoreVS_v2>
5.97871051297

$$$$
HIPS6992
 OpenBabel05252300073D

 35 38  0  0  0  0  0  0  0  0999 V2000
   68.4182   78.5414   89.1602 C   0  0  0  0  0  0  0  0  0  0  0  0
   67.7282   77.7402   88.2321 C   0  0  0  0  0  0  0  0  0  0  0  0
   66.8406   78.3217   87.3200 C   0  0  0  0  0  0  0  0  0  0  0  0
   66.6447   79.7058   87.3153 C   0  0  0  0  0  0  0  0  0  0  0  0
   67.3342   80.5210   88.2275 C   0  0  0  0  0  0  0  0  0  0  0  0
   68.1862   79.9276   89.1718 C   0  0  0  0  0  0  0  0  0  0  0  0
   69.9378   76.4095   91.9175 C   0  0  0  0  0  0  0  0  0  0  0  0
   71.2868   76.7632   91.8173 C   0  0  0  0  0  0  0  0  0  0  0  0
   71.6966   77.7240   90.8870 C   0  0  0  0  0  0  0  0  0  0  0  0
   70.7643   78.3189   90.0303 C   0  0  0  0  0  0  0  0  0  0  0  0
   69.4112   77.9482   90.0914 C   0  0  0  0  0  0  0  0  0  0  0  0
   69.0063   76.9911   91.0409 C   0  0  0  0  0  0  0  0  0  0  0  0
   69.5545   75.4472   92.8641 O   0  0  0  0  0  0  0  0  0  0  0  0
   69.6713   71.2505   92.4355 C   0  0  0  0  0  0  0  0  0  0  0  0
   69.3158   72.0449   91.3365 C   0  0  0  0  0  0  0  0  0  0  0  0
   69.2928   73.4415   91.4562 C   0  0  0  0  0  0  0  0  0  0  0  0
   69.6279   74.0557   92.6817 C   0  0  0  0  0  0  0  0  0  0  0  0
   69.9871   73.2539   93.7730 C   0  0  0  0  0  0  0  0  0  0  0  0
   70.0113   71.8572   93.6526 C   0  0  0  0  0  0  0  0  0  0  0  0
   69.6470   68.6577   92.2308 N   0  0  0  0  0  0  0  0  0  0  0  0
   69.6576   69.8125   92.3224 C   0  0  0  0  0  0  0  0  0  0  0  0
   67.1532   82.0191   88.2013 C   0  0  0  0  0  0  0  0  0  0  0  0
   67.9115   82.6168   87.1430 O   0  0  0  0  0  0  0  0  0  0  0  0
   69.0111   83.4813   87.3179 C   0  0  0  0  0  0  0  0  0  0  0  0
   69.1472   84.6888   86.6063 C   0  0  0  0  0  0  0  0  0  0  0  0
   70.2768   85.4915   86.7912 C   0  0  0  0  0  0  0  0  0  0  0  0
   71.2818   85.1125   87.6948 C   0  0  0  0  0  0  0  0  0  0  0  0
   72.4213   85.9088   87.8354 O   0  0  0  0  0  0  0  0  0  0  0  0
   71.1459   83.9137   88.4321 C   0  0  0  0  0  0  0  0  0  0  0  0
   70.0101   83.1085   88.2277 C   0  0  0  0  0  0  0  0  0  0  0  0
   72.5026   86.7016   87.3426 H   0  0  0  0  0  0  0  0  0  0  0  0
   72.1763   83.4751   89.4026 C   0  0  0  0  0  0  0  0  0  0  0  0
   73.3828   83.8043   89.2467 O   0  0  0  0  0  0  0  0  0  0  0  0
   71.8177   82.7126   90.5133 O   0  0  0  0  0  0  0  0  0  0  0  0
   70.9240   82.4614   90.6404 H   0  0  0  0  0  0  0  0  0  0  0  0
  1  2  2  0  0  0  0
  2  3  1  0  0  0  0
  3  4  2  0  0  0  0
  4  5  1  0  0  0  0
  5 22  1  0  0  0  0
  5  6  2  0  0  0  0
  6  1  1  0  0  0  0
  7  8  2  0  0  0  0
  8  9  1  0  0  0  0
  9 10  2  0  0  0  0
 10 11  1  0  0  0  0
 11  1  1  0  0  0  0
 11 12  2  0  0  0  0
 12  7  1  0  0  0  0
 13  7  1  0  0  0  0
 14 15  2  0  0  0  0
 15 16  1  0  0  0  0
 16 17  2  0  0  0  0
 17 13  1  0  0  0  0
 17 18  1  0  0  0  0
 18 19  2  0  0  0  0
 19 14  1  0  0  0  0
 20 21  3  0  0  0  0
 21 14  1  0  0  0  0
 22 23  1  0  0  0  0
 23 24  1  0  0  0  0
 24 25  2  0  0  0  0
 25 26  1  0  0  0  0
 26 27  2  0  0  0  0
 27 28  1  0  0  0  0
 27 29  1  0  0  0  0
 28 31  1  0  0  0  0
 29 32  1  0  0  0  0
 29 30  2  0  0  0  0
 30 24  1  0  0  0  0
 32 33  2  0  0  0  0
 32 34  1  0  0  0  0
 34 35  1  0  0  0  0
M  END
>  <Activity>
18.6

>  <minimizedAffinity>
-9.06589

>  <RFScoreVS_v2>
5.95903153682

$$$$
HIPS6992
 OpenBabel05252300073D

 35 38  0  0  0  0  0  0  0  0999 V2000
   69.3770   78.3111   90.2347 C   0  0  0  0  0  0  0  0  0  0  0  0
   70.7701   78.4263   90.0754 C   0  0  0  0  0  0  0  0  0  0  0  0
   71.6367   77.6704   90.8726 C   0  0  0  0  0  0  0  0  0  0  0  0
   71.1230   76.7840   91.8236 C   0  0  0  0  0  0  0  0  0  0  0  0
   69.7348   76.6486   91.9876 C   0  0  0  0  0  0  0  0  0  0  0  0
   68.8713   77.4446   91.2191 C   0  0  0  0  0  0  0  0  0  0  0  0
   67.5037   81.1817   88.5895 C   0  0  0  0  0  0  0  0  0  0  0  0
   66.7328   80.4939   87.6475 C   0  0  0  0  0  0  0  0  0  0  0  0
   66.7871   79.0981   87.5756 C   0  0  0  0  0  0  0  0  0  0  0  0
   67.6340   78.3805   88.4271 C   0  0  0  0  0  0  0  0  0  0  0  0
   68.4435   79.0575   89.3536 C   0  0  0  0  0  0  0  0  0  0  0  0
   68.3708   80.4613   89.4284 C   0  0  0  0  0  0  0  0  0  0  0  0
   67.4244   82.5817   88.6432 O   0  0  0  0  0  0  0  0  0  0  0  0
   70.7003   85.1939   88.1385 C   0  0  0  0  0  0  0  0  0  0  0  0
   70.4881   84.1681   87.2069 C   0  0  0  0  0  0  0  0  0  0  0  0
   69.3924   83.3051   87.3482 C   0  0  0  0  0  0  0  0  0  0  0  0
   68.4968   83.4638   88.4271 C   0  0  0  0  0  0  0  0  0  0  0  0
   68.7138   84.4951   89.3501 C   0  0  0  0  0  0  0  0  0  0  0  0
   69.8089   85.3590   89.2078 C   0  0  0  0  0  0  0  0  0  0  0  0
   72.7712   86.7515   87.9136 N   0  0  0  0  0  0  0  0  0  0  0  0
   71.8490   86.0573   88.0138 C   0  0  0  0  0  0  0  0  0  0  0  0
   69.1761   75.6659   92.9874 C   0  0  0  0  0  0  0  0  0  0  0  0
   70.1266   74.6394   93.2957 O   0  0  0  0  0  0  0  0  0  0  0  0
   70.0298   73.2927   92.8907 C   0  0  0  0  0  0  0  0  0  0  0  0
   69.4739   72.9105   91.6547 C   0  0  0  0  0  0  0  0  0  0  0  0
   69.3683   71.5576   91.3184 C   0  0  0  0  0  0  0  0  0  0  0  0
   69.8248   70.5651   92.1998 C   0  0  0  0  0  0  0  0  0  0  0  0
   69.6738   69.2178   91.8619 O   0  0  0  0  0  0  0  0  0  0  0  0
   70.4057   70.9371   93.4341 C   0  0  0  0  0  0  0  0  0  0  0  0
   70.4948   72.3016   93.7661 C   0  0  0  0  0  0  0  0  0  0  0  0
   69.2877   68.9809   91.0417 H   0  0  0  0  0  0  0  0  0  0  0  0
   70.9083   69.9264   94.3942 C   0  0  0  0  0  0  0  0  0  0  0  0
   70.6098   70.0013   95.6163 O   0  0  0  0  0  0  0  0  0  0  0  0
   71.6984   68.8665   93.9511 O   0  0  0  0  0  0  0  0  0  0  0  0
   71.9272   68.7997   93.0449 H   0  0  0  0  0  0  0  0  0  0  0  0
  1  2  2  0  0  0  0
  2  3  1  0  0  0  0
  3  4  2  0  0  0  0
  4  5  1  0  0  0  0
  5 22  1  0  0  0  0
  5  6  2  0  0  0  0
  6  1  1  0  0  0  0
  7  8  2  0  0  0  0
  8  9  1  0  0  0  0
  9 10  2  0  0  0  0
 10 11  1  0  0  0  0
 11  1  1  0  0  0  0
 11 12  2  0  0  0  0
 12  7  1  0  0  0  0
 13  7  1  0  0  0  0
 14 15  2  0  0  0  0
 15 16  1  0  0  0  0
 16 17  2  0  0  0  0
 17 13  1  0  0  0  0
 17 18  1  0  0  0  0
 18 19  2  0  0  0  0
 19 14  1  0  0  0  0
 20 21  3  0  0  0  0
 21 14  1  0  0  0  0
 22 23  1  0  0  0  0
 23 24  1  0  0  0  0
 24 25  2  0  0  0  0
 25 26  1  0  0  0  0
 26 27  2  0  0  0  0
 27 28  1  0  0  0  0
 27 29  1  0  0  0  0
 28 31  1  0  0  0  0
 29 32  1  0  0  0  0
 29 30  2  0  0  0  0
 30 24  1  0  0  0  0
 32 33  2  0  0  0  0
 32 34  1  0  0  0  0
 34 35  1  0  0  0  0
M  END
>  <Activity>
18.6

>  <minimizedAffinity>
-9.04493

>  <RFScoreVS_v2>
5.9709197803

$$$$
HIPS6992
 OpenBabel05252300073D

 35 38  0  0  0  0  0  0  0  0999 V2000
   67.3895   78.1187   87.0101 C   0  0  0  0  0  0  0  0  0  0  0  0
   67.6820   78.0796   85.6345 C   0  0  0  0  0  0  0  0  0  0  0  0
   67.7034   76.8584   84.9518 C   0  0  0  0  0  0  0  0  0  0  0  0
   67.4196   75.6694   85.6299 C   0  0  0  0  0  0  0  0  0  0  0  0
   67.1146   75.6921   87.0005 C   0  0  0  0  0  0  0  0  0  0  0  0
   67.1421   76.9140   87.6905 C   0  0  0  0  0  0  0  0  0  0  0  0
   67.4492   81.8522   87.7271 C   0  0  0  0  0  0  0  0  0  0  0  0
   67.0679   81.8730   89.0721 C   0  0  0  0  0  0  0  0  0  0  0  0
   66.8347   80.6763   89.7576 C   0  0  0  0  0  0  0  0  0  0  0  0
   66.9543   79.4496   89.0957 C   0  0  0  0  0  0  0  0  0  0  0  0
   67.2995   79.4115   87.7351 C   0  0  0  0  0  0  0  0  0  0  0  0
   67.5465   80.6205   87.0578 C   0  0  0  0  0  0  0  0  0  0  0  0
   67.6826   83.0679   87.0665 O   0  0  0  0  0  0  0  0  0  0  0  0
   71.0176   85.5656   87.7367 C   0  0  0  0  0  0  0  0  0  0  0  0
   71.2162   84.1939   87.5265 C   0  0  0  0  0  0  0  0  0  0  0  0
   70.1209   83.3539   87.2814 C   0  0  0  0  0  0  0  0  0  0  0  0
   68.8133   83.8833   87.2436 C   0  0  0  0  0  0  0  0  0  0  0  0
   68.6251   85.2562   87.4494 C   0  0  0  0  0  0  0  0  0  0  0  0
   69.7208   86.0963   87.6932 C   0  0  0  0  0  0  0  0  0  0  0  0
   73.0430   87.1114   88.2595 N   0  0  0  0  0  0  0  0  0  0  0  0
   72.1411   86.4225   88.0268 C   0  0  0  0  0  0  0  0  0  0  0  0
   66.7717   74.4150   87.7279 C   0  0  0  0  0  0  0  0  0  0  0  0
   66.7662   74.6094   89.1472 O   0  0  0  0  0  0  0  0  0  0  0  0
   67.7757   74.1777   90.0313 C   0  0  0  0  0  0  0  0  0  0  0  0
   68.0492   72.8160   90.2635 C   0  0  0  0  0  0  0  0  0  0  0  0
   69.0374   72.4426   91.1792 C   0  0  0  0  0  0  0  0  0  0  0  0
   69.7768   73.4164   91.8685 C   0  0  0  0  0  0  0  0  0  0  0  0
   70.7322   73.0221   92.8086 O   0  0  0  0  0  0  0  0  0  0  0  0
   69.5271   74.7871   91.6272 C   0  0  0  0  0  0  0  0  0  0  0  0
   68.5214   75.1498   90.7123 C   0  0  0  0  0  0  0  0  0  0  0  0
   70.8908   72.1114   92.9618 H   0  0  0  0  0  0  0  0  0  0  0  0
   70.2862   75.8515   92.3248 C   0  0  0  0  0  0  0  0  0  0  0  0
   70.0871   76.0822   93.5478 O   0  0  0  0  0  0  0  0  0  0  0  0
   71.2474   76.5943   91.6406 O   0  0  0  0  0  0  0  0  0  0  0  0
   71.4047   76.4323   90.7312 H   0  0  0  0  0  0  0  0  0  0  0  0
  1  2  2  0  0  0  0
  2  3  1  0  0  0  0
  3  4  2  0  0  0  0
  4  5  1  0  0  0  0
  5 22  1  0  0  0  0
  5  6  2  0  0  0  0
  6  1  1  0  0  0  0
  7  8  2  0  0  0  0
  8  9  1  0  0  0  0
  9 10  2  0  0  0  0
 10 11  1  0  0  0  0
 11  1  1  0  0  0  0
 11 12  2  0  0  0  0
 12  7  1  0  0  0  0
 13  7  1  0  0  0  0
 14 15  2  0  0  0  0
 15 16  1  0  0  0  0
 16 17  2  0  0  0  0
 17 13  1  0  0  0  0
 17 18  1  0  0  0  0
 18 19  2  0  0  0  0
 19 14  1  0  0  0  0
 20 21  3  0  0  0  0
 21 14  1  0  0  0  0
 22 23  1  0  0  0  0
 23 24  1  0  0  0  0
 24 25  2  0  0  0  0
 25 26  1  0  0  0  0
 26 27  2  0  0  0  0
 27 28  1  0  0  0  0
 27 29  1  0  0  0  0
 28 31  1  0  0  0  0
 29 32  1  0  0  0  0
 29 30  2  0  0  0  0
 30 24  1  0  0  0  0
 32 33  2  0  0  0  0
 32 34  1  0  0  0  0
 34 35  1  0  0  0  0
M  END
>  <Activity>
18.6

>  <minimizedAffinity>
-9.01394

>  <RFScoreVS_v2>
6.01578767882

$$$$
HIPS6992
 OpenBabel05252300073D

 35 38  0  0  0  0  0  0  0  0999 V2000
   67.2010   78.0836   87.9002 C   0  0  0  0  0  0  0  0  0  0  0  0
   67.0804   77.7902   86.5295 C   0  0  0  0  0  0  0  0  0  0  0  0
   67.0233   76.4616   86.0944 C   0  0  0  0  0  0  0  0  0  0  0  0
   67.0710   75.4162   87.0212 C   0  0  0  0  0  0  0  0  0  0  0  0
   67.1799   75.6920   88.3939 C   0  0  0  0  0  0  0  0  0  0  0  0
   67.2855   77.0249   88.8207 C   0  0  0  0  0  0  0  0  0  0  0  0
   67.5154   81.8725   87.9463 C   0  0  0  0  0  0  0  0  0  0  0  0
   67.1324   82.1574   89.2604 C   0  0  0  0  0  0  0  0  0  0  0  0
   66.8154   81.1198   90.1432 C   0  0  0  0  0  0  0  0  0  0  0  0
   66.8521   79.7899   89.7106 C   0  0  0  0  0  0  0  0  0  0  0  0
   67.1980   79.4877   88.3836 C   0  0  0  0  0  0  0  0  0  0  0  0
   67.5297   80.5379   87.5069 C   0  0  0  0  0  0  0  0  0  0  0  0
   67.8339   82.9332   87.0845 O   0  0  0  0  0  0  0  0  0  0  0  0
   71.0722   85.5779   87.6580 C   0  0  0  0  0  0  0  0  0  0  0  0
   71.3181   84.2020   87.5501 C   0  0  0  0  0  0  0  0  0  0  0  0
   70.2558   83.3121   87.3381 C   0  0  0  0  0  0  0  0  0  0  0  0
   68.9342   83.7950   87.2312 C   0  0  0  0  0  0  0  0  0  0  0  0
   68.6987   85.1722   87.3349 C   0  0  0  0  0  0  0  0  0  0  0  0
   69.7615   86.0622   87.5455 C   0  0  0  0  0  0  0  0  0  0  0  0
   73.0353   87.2207   88.1191 N   0  0  0  0  0  0  0  0  0  0  0  0
   72.1609   86.4888   87.9141 C   0  0  0  0  0  0  0  0  0  0  0  0
   67.1947   74.5673   89.4000 C   0  0  0  0  0  0  0  0  0  0  0  0
   68.4859   74.4256   90.0039 O   0  0  0  0  0  0  0  0  0  0  0  0
   68.8396   74.8907   91.2867 C   0  0  0  0  0  0  0  0  0  0  0  0
   69.5583   76.0846   91.4892 C   0  0  0  0  0  0  0  0  0  0  0  0
   69.9155   76.4809   92.7814 C   0  0  0  0  0  0  0  0  0  0  0  0
   69.5531   75.7034   93.8924 C   0  0  0  0  0  0  0  0  0  0  0  0
   69.9541   76.0965   95.1719 O   0  0  0  0  0  0  0  0  0  0  0  0
   68.8116   74.5143   93.7040 C   0  0  0  0  0  0  0  0  0  0  0  0
   68.4691   74.1200   92.3974 C   0  0  0  0  0  0  0  0  0  0  0  0
   70.4452   76.8861   95.2870 H   0  0  0  0  0  0  0  0  0  0  0  0
   68.3998   73.6641   94.8457 C   0  0  0  0  0  0  0  0  0  0  0  0
   67.1796   73.4445   95.0722 O   0  0  0  0  0  0  0  0  0  0  0  0
   69.3603   73.0774   95.6686 O   0  0  0  0  0  0  0  0  0  0  0  0
   70.2707   73.2328   95.5106 H   0  0  0  0  0  0  0  0  0  0  0  0
  1  2  2  0  0  0  0
  2  3  1  0  0  0  0
  3  4  2  0  0  0  0
  4  5  1  0  0  0  0
  5 22  1  0  0  0  0
  5  6  2  0  0  0  0
  6  1  1  0  0  0  0
  7  8  2  0  0  0  0
  8  9  1  0  0  0  0
  9 10  2  0  0  0  0
 10 11  1  0  0  0  0
 11  1  1  0  0  0  0
 11 12  2  0  0  0  0
 12  7  1  0  0  0  0
 13  7  1  0  0  0  0
 14 15  2  0  0  0  0
 15 16  1  0  0  0  0
 16 17  2  0  0  0  0
 17 13  1  0  0  0  0
 17 18  1  0  0  0  0
 18 19  2  0  0  0  0
 19 14  1  0  0  0  0
 20 21  3  0  0  0  0
 21 14  1  0  0  0  0
 22 23  1  0  0  0  0
 23 24  1  0  0  0  0
 24 25  2  0  0  0  0
 25 26  1  0  0  0  0
 26 27  2  0  0  0  0
 27 28  1  0  0  0  0
 27 29  1  0  0  0  0
 28 31  1  0  0  0  0
 29 32  1  0  0  0  0
 29 30  2  0  0  0  0
 30 24  1  0  0  0  0
 32 33  2  0  0  0  0
 32 34  1  0  0  0  0
 34 35  1  0  0  0  0
M  END
>  <Activity>
18.6

>  <minimizedAffinity>
-8.88696

>  <RFScoreVS_v2>
6.00555917904

$$$$
HIPS6992
 OpenBabel05252300073D

 35 38  0  0  0  0  0  0  0  0999 V2000
   69.8221   76.9733   91.4805 C   0  0  0  0  0  0  0  0  0  0  0  0
   71.1371   76.4896   91.3536 C   0  0  0  0  0  0  0  0  0  0  0  0
   72.1197   77.2702   90.7347 C   0  0  0  0  0  0  0  0  0  0  0  0
   71.8041   78.5432   90.2511 C   0  0  0  0  0  0  0  0  0  0  0  0
   70.4991   79.0456   90.3799 C   0  0  0  0  0  0  0  0  0  0  0  0
   69.5063   78.2392   90.9579 C   0  0  0  0  0  0  0  0  0  0  0  0
   68.1333   74.1761   93.4250 C   0  0  0  0  0  0  0  0  0  0  0  0
   66.8516   74.7068   93.5995 C   0  0  0  0  0  0  0  0  0  0  0  0
   66.5222   75.9500   93.0496 C   0  0  0  0  0  0  0  0  0  0  0  0
   67.4807   76.6853   92.3440 C   0  0  0  0  0  0  0  0  0  0  0  0
   68.7838   76.1848   92.1914 C   0  0  0  0  0  0  0  0  0  0  0  0
   69.1014   74.9261   92.7358 C   0  0  0  0  0  0  0  0  0  0  0  0
   68.4338   72.9239   93.9824 O   0  0  0  0  0  0  0  0  0  0  0  0
   71.3888   70.3481   92.4196 C   0  0  0  0  0  0  0  0  0  0  0  0
   71.6411   71.0420   93.6112 C   0  0  0  0  0  0  0  0  0  0  0  0
   70.6619   71.8852   94.1550 C   0  0  0  0  0  0  0  0  0  0  0  0
   69.4175   72.0397   93.5078 C   0  0  0  0  0  0  0  0  0  0  0  0
   69.1724   71.3380   92.3202 C   0  0  0  0  0  0  0  0  0  0  0  0
   70.1513   70.4937   91.7773 C   0  0  0  0  0  0  0  0  0  0  0  0
   73.2314   68.8375   91.3763 N   0  0  0  0  0  0  0  0  0  0  0  0
   72.4108   69.5107   91.8407 C   0  0  0  0  0  0  0  0  0  0  0  0
   70.1634   80.4337   89.8922 C   0  0  0  0  0  0  0  0  0  0  0  0
   71.1826   81.3733   90.2536 O   0  0  0  0  0  0  0  0  0  0  0  0
   71.4858   82.5559   89.5489 C   0  0  0  0  0  0  0  0  0  0  0  0
   72.7530   83.1675   89.6034 C   0  0  0  0  0  0  0  0  0  0  0  0
   72.9891   84.3606   88.9138 C   0  0  0  0  0  0  0  0  0  0  0  0
   71.9736   84.9569   88.1501 C   0  0  0  0  0  0  0  0  0  0  0  0
   72.2182   86.1698   87.5010 O   0  0  0  0  0  0  0  0  0  0  0  0
   70.7037   84.3403   88.0691 C   0  0  0  0  0  0  0  0  0  0  0  0
   70.4751   83.1463   88.7778 C   0  0  0  0  0  0  0  0  0  0  0  0
   73.0630   86.5709   87.5604 H   0  0  0  0  0  0  0  0  0  0  0  0
   69.6024   84.9276   87.2702 C   0  0  0  0  0  0  0  0  0  0  0  0
   68.8305   84.1871   86.6038 O   0  0  0  0  0  0  0  0  0  0  0  0
   69.3933   86.3060   87.2664 O   0  0  0  0  0  0  0  0  0  0  0  0
   69.9603   86.8673   87.7579 H   0  0  0  0  0  0  0  0  0  0  0  0
  1  2  2  0  0  0  0
  2  3  1  0  0  0  0
  3  4  2  0  0  0  0
  4  5  1  0  0  0  0
  5 22  1  0  0  0  0
  5  6  2  0  0  0  0
  6  1  1  0  0  0  0
  7  8  2  0  0  0  0
  8  9  1  0  0  0  0
  9 10  2  0  0  0  0
 10 11  1  0  0  0  0
 11  1  1  0  0  0  0
 11 12  2  0  0  0  0
 12  7  1  0  0  0  0
 13  7  1  0  0  0  0
 14 15  2  0  0  0  0
 15 16  1  0  0  0  0
 16 17  2  0  0  0  0
 17 13  1  0  0  0  0
 17 18  1  0  0  0  0
 18 19  2  0  0  0  0
 19 14  1  0  0  0  0
 20 21  3  0  0  0  0
 21 14  1  0  0  0  0
 22 23  1  0  0  0  0
 23 24  1  0  0  0  0
 24 25  2  0  0  0  0
 25 26  1  0  0  0  0
 26 27  2  0  0  0  0
 27 28  1  0  0  0  0
 27 29  1  0  0  0  0
 28 31  1  0  0  0  0
 29 32  1  0  0  0  0
 29 30  2  0  0  0  0
 30 24  1  0  0  0  0
 32 33  2  0  0  0  0
 32 34  1  0  0  0  0
 34 35  1  0  0  0  0
M  END
>  <Activity>
18.6

>  <minimizedAffinity>
-8.66825

>  <RFScoreVS_v2>
5.96880358946

$$$$
HIPS6992
 OpenBabel05252300073D

 35 38  0  0  0  0  0  0  0  0999 V2000
   66.5338   79.8013   89.7495 C   0  0  0  0  0  0  0  0  0  0  0  0
   65.2020   80.0895   90.0996 C   0  0  0  0  0  0  0  0  0  0  0  0
   64.9100   81.1767   90.9306 C   0  0  0  0  0  0  0  0  0  0  0  0
   65.9397   81.9933   91.4069 C   0  0  0  0  0  0  0  0  0  0  0  0
   67.2735   81.7263   91.0577 C   0  0  0  0  0  0  0  0  0  0  0  0
   67.5648   80.6063   90.2637 C   0  0  0  0  0  0  0  0  0  0  0  0
   67.1193   76.2968   88.3961 C   0  0  0  0  0  0  0  0  0  0  0  0
   67.3932   76.5704   87.0526 C   0  0  0  0  0  0  0  0  0  0  0  0
   67.4316   77.8919   86.5958 C   0  0  0  0  0  0  0  0  0  0  0  0
   67.1690   78.9493   87.4733 C   0  0  0  0  0  0  0  0  0  0  0  0
   66.8550   78.6909   88.8174 C   0  0  0  0  0  0  0  0  0  0  0  0
   66.8333   77.3585   89.2709 C   0  0  0  0  0  0  0  0  0  0  0  0
   67.0935   74.9618   88.8277 O   0  0  0  0  0  0  0  0  0  0  0  0
   69.4478   73.2780   91.8988 C   0  0  0  0  0  0  0  0  0  0  0  0
   69.5573   74.6474   91.6200 C   0  0  0  0  0  0  0  0  0  0  0  0
   68.7669   75.2266   90.6174 C   0  0  0  0  0  0  0  0  0  0  0  0
   67.8565   74.4360   89.8842 C   0  0  0  0  0  0  0  0  0  0  0  0
   67.7501   73.0694   90.1735 C   0  0  0  0  0  0  0  0  0  0  0  0
   68.5397   72.4907   91.1773 C   0  0  0  0  0  0  0  0  0  0  0  0
   70.9646   72.1915   93.7111 N   0  0  0  0  0  0  0  0  0  0  0  0
   70.2887   72.6756   92.9042 C   0  0  0  0  0  0  0  0  0  0  0  0
   68.3842   82.6271   91.5398 C   0  0  0  0  0  0  0  0  0  0  0  0
   68.2627   83.9440   90.9893 O   0  0  0  0  0  0  0  0  0  0  0  0
   68.6583   84.3224   89.6903 C   0  0  0  0  0  0  0  0  0  0  0  0
   67.7385   84.4999   88.6389 C   0  0  0  0  0  0  0  0  0  0  0  0
   68.1885   84.8399   87.3597 C   0  0  0  0  0  0  0  0  0  0  0  0
   69.5577   85.0208   87.1091 C   0  0  0  0  0  0  0  0  0  0  0  0
   69.9900   85.3213   85.8148 O   0  0  0  0  0  0  0  0  0  0  0  0
   70.4892   84.8677   88.1619 C   0  0  0  0  0  0  0  0  0  0  0  0
   70.0245   84.5132   89.4419 C   0  0  0  0  0  0  0  0  0  0  0  0
   69.3653   85.4208   85.1236 H   0  0  0  0  0  0  0  0  0  0  0  0
   71.9435   85.0552   87.9483 C   0  0  0  0  0  0  0  0  0  0  0  0
   72.6231   84.1701   87.3625 O   0  0  0  0  0  0  0  0  0  0  0  0
   72.5721   86.2252   88.3723 O   0  0  0  0  0  0  0  0  0  0  0  0
   72.0778   86.8907   88.8090 H   0  0  0  0  0  0  0  0  0  0  0  0
  1  2  2  0  0  0  0
  2  3  1  0  0  0  0
  3  4  2  0  0  0  0
  4  5  1  0  0  0  0
  5 22  1  0  0  0  0
  5  6  2  0  0  0  0
  6  1  1  0  0  0  0
  7  8  2  0  0  0  0
  8  9  1  0  0  0  0
  9 10  2  0  0  0  0
 10 11  1  0  0  0  0
 11  1  1  0  0  0  0
 11 12  2  0  0  0  0
 12  7  1  0  0  0  0
 13  7  1  0  0  0  0
 14 15  2  0  0  0  0
 15 16  1  0  0  0  0
 16 17  2  0  0  0  0
 17 13  1  0  0  0  0
 17 18  1  0  0  0  0
 18 19  2  0  0  0  0
 19 14  1  0  0  0  0
 20 21  3  0  0  0  0
 21 14  1  0  0  0  0
 22 23  1  0  0  0  0
 23 24  1  0  0  0  0
 24 25  2  0  0  0  0
 25 26  1  0  0  0  0
 26 27  2  0  0  0  0
 27 28  1  0  0  0  0
 27 29  1  0  0  0  0
 28 31  1  0  0  0  0
 29 32  1  0  0  0  0
 29 30  2  0  0  0  0
 30 24  1  0  0  0  0
 32 33  2  0  0  0  0
 32 34  1  0  0  0  0
 34 35  1  0  0  0  0
M  END
>  <Activity>
18.6

>  <minimizedAffinity>
-8.62784

>  <RFScoreVS_v2>
6.06502216976

$$$$
HIPS6992
 OpenBabel05252300073D

 35 38  0  0  0  0  0  0  0  0999 V2000
   67.4566   77.1257   88.4889 C   0  0  0  0  0  0  0  0  0  0  0  0
   67.3131   77.1355   87.0894 C   0  0  0  0  0  0  0  0  0  0  0  0
   67.0637   75.9455   86.3969 C   0  0  0  0  0  0  0  0  0  0  0  0
   66.9407   74.7399   87.0937 C   0  0  0  0  0  0  0  0  0  0  0  0
   67.0699   74.7144   88.4918 C   0  0  0  0  0  0  0  0  0  0  0  0
   67.3681   75.9029   89.1762 C   0  0  0  0  0  0  0  0  0  0  0  0
   69.1607   80.0874   90.1565 C   0  0  0  0  0  0  0  0  0  0  0  0
   68.0548   80.8106   90.6136 C   0  0  0  0  0  0  0  0  0  0  0  0
   66.7605   80.3168   90.4203 C   0  0  0  0  0  0  0  0  0  0  0  0
   66.5603   79.1088   89.7437 C   0  0  0  0  0  0  0  0  0  0  0  0
   67.6573   78.3880   89.2447 C   0  0  0  0  0  0  0  0  0  0  0  0
   68.9567   78.8858   89.4572 C   0  0  0  0  0  0  0  0  0  0  0  0
   70.4478   80.6039   90.3700 O   0  0  0  0  0  0  0  0  0  0  0  0
   71.8599   84.2048   88.6821 C   0  0  0  0  0  0  0  0  0  0  0  0
   72.6994   83.4648   89.5263 C   0  0  0  0  0  0  0  0  0  0  0  0
   72.2533   82.2557   90.0781 C   0  0  0  0  0  0  0  0  0  0  0  0
   70.9584   81.7761   89.7869 C   0  0  0  0  0  0  0  0  0  0  0  0
   70.1285   82.5199   88.9379 C   0  0  0  0  0  0  0  0  0  0  0  0
   70.5754   83.7283   88.3850 C   0  0  0  0  0  0  0  0  0  0  0  0
   72.6644   86.4811   87.7144 N   0  0  0  0  0  0  0  0  0  0  0  0
   72.3056   85.4674   88.1454 C   0  0  0  0  0  0  0  0  0  0  0  0
   66.9013   73.4210   89.2509 C   0  0  0  0  0  0  0  0  0  0  0  0
   68.1399   72.9900   89.8273 O   0  0  0  0  0  0  0  0  0  0  0  0
   68.4468   73.0078   91.2030 C   0  0  0  0  0  0  0  0  0  0  0  0
   69.6424   72.4732   91.7203 C   0  0  0  0  0  0  0  0  0  0  0  0
   69.8802   72.4836   93.0980 C   0  0  0  0  0  0  0  0  0  0  0  0
   68.9394   73.0365   93.9807 C   0  0  0  0  0  0  0  0  0  0  0  0
   69.1783   73.0011   95.3569 O   0  0  0  0  0  0  0  0  0  0  0  0
   67.7452   73.5970   93.4715 C   0  0  0  0  0  0  0  0  0  0  0  0
   67.5122   73.5690   92.0841 C   0  0  0  0  0  0  0  0  0  0  0  0
   69.9725   72.6277   95.6851 H   0  0  0  0  0  0  0  0  0  0  0  0
   66.7254   74.1984   94.3627 C   0  0  0  0  0  0  0  0  0  0  0  0
   67.0167   75.1810   95.0962 O   0  0  0  0  0  0  0  0  0  0  0  0
   65.4241   73.6982   94.3814 O   0  0  0  0  0  0  0  0  0  0  0  0
   65.1951   72.9681   93.8406 H   0  0  0  0  0  0  0  0  0  0  0  0
  1  2  2  0  0  0  0
  2  3  1  0  0  0  0
  3  4  2  0  0  0  0
  4  5  1  0  0  0  0
  5 22  1  0  0  0  0
  5  6  2  0  0  0  0
  6  1  1  0  0  0  0
  7  8  2  0  0  0  0
  8  9  1  0  0  0  0
  9 10  2  0  0  0  0
 10 11  1  0  0  0  0
 11  1  1  0  0  0  0
 11 12  2  0  0  0  0
 12  7  1  0  0  0  0
 13  7  1  0  0  0  0
 14 15  2  0  0  0  0
 15 16  1  0  0  0  0
 16 17  2  0  0  0  0
 17 13  1  0  0  0  0
 17 18  1  0  0  0  0
 18 19  2  0  0  0  0
 19 14  1  0  0  0  0
 20 21  3  0  0  0  0
 21 14  1  0  0  0  0
 22 23  1  0  0  0  0
 23 24  1  0  0  0  0
 24 25  2  0  0  0  0
 25 26  1  0  0  0  0
 26 27  2  0  0  0  0
 27 28  1  0  0  0  0
 27 29  1  0  0  0  0
 28 31  1  0  0  0  0
 29 32  1  0  0  0  0
 29 30  2  0  0  0  0
 30 24  1  0  0  0  0
 32 33  2  0  0  0  0
 32 34  1  0  0  0  0
 34 35  1  0  0  0  0
M  END
>  <Activity>
18.6

>  <minimizedAffinity>
-8.61978

>  <RFScoreVS_v2>
5.98770687167

$$$$
HIPS6992
 OpenBabel05252300073D

 35 38  0  0  0  0  0  0  0  0999 V2000
   68.0055   77.1183   90.2831 C   0  0  0  0  0  0  0  0  0  0  0  0
   66.9532   78.0042   90.5782 C   0  0  0  0  0  0  0  0  0  0  0  0
   67.2036   79.3726   90.7287 C   0  0  0  0  0  0  0  0  0  0  0  0
   68.5002   79.8708   90.5721 C   0  0  0  0  0  0  0  0  0  0  0  0
   69.5601   79.0017   90.2663 C   0  0  0  0  0  0  0  0  0  0  0  0
   69.3115   77.6242   90.1644 C   0  0  0  0  0  0  0  0  0  0  0  0
   67.6768   73.3821   90.9072 C   0  0  0  0  0  0  0  0  0  0  0  0
   67.1972   72.9446   89.6690 C   0  0  0  0  0  0  0  0  0  0  0  0
   67.0226   73.8527   88.6195 C   0  0  0  0  0  0  0  0  0  0  0  0
   67.3002   75.2107   88.8086 C   0  0  0  0  0  0  0  0  0  0  0  0
   67.7467   75.6737   90.0569 C   0  0  0  0  0  0  0  0  0  0  0  0
   67.9333   74.7498   91.1024 C   0  0  0  0  0  0  0  0  0  0  0  0
   67.8481   72.4478   91.9400 O   0  0  0  0  0  0  0  0  0  0  0  0
   71.4939   71.0995   93.5834 C   0  0  0  0  0  0  0  0  0  0  0  0
   71.0241   70.5306   92.3914 C   0  0  0  0  0  0  0  0  0  0  0  0
   69.8256   70.9819   91.8210 C   0  0  0  0  0  0  0  0  0  0  0  0
   69.0861   72.0111   92.4417 C   0  0  0  0  0  0  0  0  0  0  0  0
   69.5662   72.5774   93.6298 C   0  0  0  0  0  0  0  0  0  0  0  0
   70.7655   72.1268   94.1993 C   0  0  0  0  0  0  0  0  0  0  0  0
   73.6815   70.2146   94.6772 N   0  0  0  0  0  0  0  0  0  0  0  0
   72.7071   70.6084   94.1897 C   0  0  0  0  0  0  0  0  0  0  0  0
   70.9546   79.5406   90.0603 C   0  0  0  0  0  0  0  0  0  0  0  0
   71.0909   80.8564   90.6100 O   0  0  0  0  0  0  0  0  0  0  0  0
   71.4583   82.0074   89.8839 C   0  0  0  0  0  0  0  0  0  0  0  0
   72.7480   82.5683   89.9530 C   0  0  0  0  0  0  0  0  0  0  0  0
   73.0485   83.7329   89.2402 C   0  0  0  0  0  0  0  0  0  0  0  0
   72.0757   84.3503   88.4386 C   0  0  0  0  0  0  0  0  0  0  0  0
   72.3845   85.5354   87.7660 O   0  0  0  0  0  0  0  0  0  0  0  0
   70.7836   83.7840   88.3430 C   0  0  0  0  0  0  0  0  0  0  0  0
   70.4902   82.6187   89.0751 C   0  0  0  0  0  0  0  0  0  0  0  0
   73.2435   85.9033   87.8352 H   0  0  0  0  0  0  0  0  0  0  0  0
   69.7256   84.3951   87.5045 C   0  0  0  0  0  0  0  0  0  0  0  0
   69.6257   85.6481   87.4135 O   0  0  0  0  0  0  0  0  0  0  0  0
   68.8429   83.5889   86.7870 O   0  0  0  0  0  0  0  0  0  0  0  0
   68.9069   82.6559   86.8462 H   0  0  0  0  0  0  0  0  0  0  0  0
  1  2  2  0  0  0  0
  2  3  1  0  0  0  0
  3  4  2  0  0  0  0
  4  5  1  0  0  0  0
  5 22  1  0  0  0  0
  5  6  2  0  0  0  0
  6  1  1  0  0  0  0
  7  8  2  0  0  0  0
  8  9  1  0  0  0  0
  9 10  2  0  0  0  0
 10 11  1  0  0  0  0
 11  1  1  0  0  0  0
 11 12  2  0  0  0  0
 12  7  1  0  0  0  0
 13  7  1  0  0  0  0
 14 15  2  0  0  0  0
 15 16  1  0  0  0  0
 16 17  2  0  0  0  0
 17 13  1  0  0  0  0
 17 18  1  0  0  0  0
 18 19  2  0  0  0  0
 19 14  1  0  0  0  0
 20 21  3  0  0  0  0
 21 14  1  0  0  0  0
 22 23  1  0  0  0  0
 23 24  1  0  0  0  0
 24 25  2  0  0  0  0
 25 26  1  0  0  0  0
 26 27  2  0  0  0  0
 27 28  1  0  0  0  0
 27 29  1  0  0  0  0
 28 31  1  0  0  0  0
 29 32  1  0  0  0  0
 29 30  2  0  0  0  0
 30 24  1  0  0  0  0
 32 33  2  0  0  0  0
 32 34  1  0  0  0  0
 34 35  1  0  0  0  0
M  END
>  <Activity>
18.6

>  <minimizedAffinity>
-8.61227

>  <RFScoreVS_v2>
5.96443606777

$$$$
HIPS6992
 OpenBabel05252300073D

 35 38  0  0  0  0  0  0  0  0999 V2000
   67.4915   77.1796   88.4319 C   0  0  0  0  0  0  0  0  0  0  0  0
   67.4149   77.2726   87.0302 C   0  0  0  0  0  0  0  0  0  0  0  0
   67.1427   76.1358   86.2612 C   0  0  0  0  0  0  0  0  0  0  0  0
   66.9305   74.9017   86.8824 C   0  0  0  0  0  0  0  0  0  0  0  0
   66.9923   74.7938   88.2813 C   0  0  0  0  0  0  0  0  0  0  0  0
   67.3133   75.9271   89.0443 C   0  0  0  0  0  0  0  0  0  0  0  0
   69.2399   80.0541   90.2031 C   0  0  0  0  0  0  0  0  0  0  0  0
   68.1520   80.7119   90.7851 C   0  0  0  0  0  0  0  0  0  0  0  0
   66.8585   80.1996   90.6403 C   0  0  0  0  0  0  0  0  0  0  0  0
   66.6393   79.0400   89.8890 C   0  0  0  0  0  0  0  0  0  0  0  0
   67.7155   78.3875   89.2661 C   0  0  0  0  0  0  0  0  0  0  0  0
   69.0152   78.9026   89.4299 C   0  0  0  0  0  0  0  0  0  0  0  0
   70.5270   80.5874   90.3701 O   0  0  0  0  0  0  0  0  0  0  0  0
   71.8221   84.2223   88.6612 C   0  0  0  0  0  0  0  0  0  0  0  0
   72.7118   83.4751   89.4456 C   0  0  0  0  0  0  0  0  0  0  0  0
   72.3040   82.2550   90.0029 C   0  0  0  0  0  0  0  0  0  0  0  0
   70.9976   81.7715   89.7774 C   0  0  0  0  0  0  0  0  0  0  0  0
   70.1172   82.5226   88.9877 C   0  0  0  0  0  0  0  0  0  0  0  0
   70.5257   83.7421   88.4293 C   0  0  0  0  0  0  0  0  0  0  0  0
   72.5584   86.5180   87.6850 N   0  0  0  0  0  0  0  0  0  0  0  0
   72.2300   85.4956   88.1199 C   0  0  0  0  0  0  0  0  0  0  0  0
   66.7274   73.4710   88.9577 C   0  0  0  0  0  0  0  0  0  0  0  0
   67.9021   72.9758   89.6112 O   0  0  0  0  0  0  0  0  0  0  0  0
   68.1204   72.9783   91.0038 C   0  0  0  0  0  0  0  0  0  0  0  0
   67.3397   73.7420   91.8927 C   0  0  0  0  0  0  0  0  0  0  0  0
   67.6230   73.7365   93.2617 C   0  0  0  0  0  0  0  0  0  0  0  0
   68.6782   72.9626   93.7693 C   0  0  0  0  0  0  0  0  0  0  0  0
   68.9698   73.0020   95.1352 O   0  0  0  0  0  0  0  0  0  0  0  0
   69.4550   72.1736   92.8899 C   0  0  0  0  0  0  0  0  0  0  0  0
   69.1676   72.1976   91.5126 C   0  0  0  0  0  0  0  0  0  0  0  0
   68.4494   73.5277   95.7104 H   0  0  0  0  0  0  0  0  0  0  0  0
   70.5744   71.3348   93.3790 C   0  0  0  0  0  0  0  0  0  0  0  0
   70.3638   70.4043   94.2025 O   0  0  0  0  0  0  0  0  0  0  0  0
   71.8710   71.5509   92.9144 O   0  0  0  0  0  0  0  0  0  0  0  0
   72.0406   72.2395   92.3020 H   0  0  0  0  0  0  0  0  0  0  0  0
  1  2  2  0  0  0  0
  2  3  1  0  0  0  0
  3  4  2  0  0  0  0
  4  5  1  0  0  0  0
  5 22  1  0  0  0  0
  5  6  2  0  0  0  0
  6  1  1  0  0  0  0
  7  8  2  0  0  0  0
  8  9  1  0  0  0  0
  9 10  2  0  0  0  0
 10 11  1  0  0  0  0
 11  1  1  0  0  0  0
 11 12  2  0  0  0  0
 12  7  1  0  0  0  0
 13  7  1  0  0  0  0
 14 15  2  0  0  0  0
 15 16  1  0  0  0  0
 16 17  2  0  0  0  0
 17 13  1  0  0  0  0
 17 18  1  0  0  0  0
 18 19  2  0  0  0  0
 19 14  1  0  0  0  0
 20 21  3  0  0  0  0
 21 14  1  0  0  0  0
 22 23  1  0  0  0  0
 23 24  1  0  0  0  0
 24 25  2  0  0  0  0
 25 26  1  0  0  0  0
 26 27  2  0  0  0  0
 27 28  1  0  0  0  0
 27 29  1  0  0  0  0
 28 31  1  0  0  0  0
 29 32  1  0  0  0  0
 29 30  2  0  0  0  0
 30 24  1  0  0  0  0
 32 33  2  0  0  0  0
 32 34  1  0  0  0  0
 34 35  1  0  0  0  0
M  END
>  <Activity>
18.6

>  <minimizedAffinity>
-8.55540

>  <RFScoreVS_v2>
6.00842914928

$$$$
HIPS6992
 OpenBabel05252300073D

 35 38  0  0  0  0  0  0  0  0999 V2000
   67.2226   78.4271   92.7427 C   0  0  0  0  0  0  0  0  0  0  0  0
   66.6686   79.5436   93.3951 C   0  0  0  0  0  0  0  0  0  0  0  0
   66.6512   80.7928   92.7648 C   0  0  0  0  0  0  0  0  0  0  0  0
   67.1717   80.9363   91.4755 C   0  0  0  0  0  0  0  0  0  0  0  0
   67.7182   79.8295   90.8058 C   0  0  0  0  0  0  0  0  0  0  0  0
   67.7768   78.5899   91.4614 C   0  0  0  0  0  0  0  0  0  0  0  0
   68.3473   75.0304   94.0290 C   0  0  0  0  0  0  0  0  0  0  0  0
   67.1681   74.5623   94.6166 C   0  0  0  0  0  0  0  0  0  0  0  0
   65.9987   75.3275   94.5573 C   0  0  0  0  0  0  0  0  0  0  0  0
   66.0062   76.5797   93.9336 C   0  0  0  0  0  0  0  0  0  0  0  0
   67.1908   77.0821   93.3712 C   0  0  0  0  0  0  0  0  0  0  0  0
   68.3588   76.2981   93.4231 C   0  0  0  0  0  0  0  0  0  0  0  0
   69.5037   74.2387   94.0985 O   0  0  0  0  0  0  0  0  0  0  0  0
   70.1927   70.7262   91.8630 C   0  0  0  0  0  0  0  0  0  0  0  0
   69.4354   71.7628   91.3000 C   0  0  0  0  0  0  0  0  0  0  0  0
   69.2152   72.9448   92.0210 C   0  0  0  0  0  0  0  0  0  0  0  0
   69.7545   73.0988   93.3159 C   0  0  0  0  0  0  0  0  0  0  0  0
   70.5146   72.0596   93.8682 C   0  0  0  0  0  0  0  0  0  0  0  0
   70.7359   70.8781   93.1464 C   0  0  0  0  0  0  0  0  0  0  0  0
   70.5431   68.5070   90.5524 N   0  0  0  0  0  0  0  0  0  0  0  0
   70.3867   69.4956   91.1359 C   0  0  0  0  0  0  0  0  0  0  0  0
   68.2475   79.9725   89.3997 C   0  0  0  0  0  0  0  0  0  0  0  0
   67.5325   80.9796   88.6740 O   0  0  0  0  0  0  0  0  0  0  0  0
   68.1066   82.1349   88.1059 C   0  0  0  0  0  0  0  0  0  0  0  0
   67.4150   82.9559   87.1946 C   0  0  0  0  0  0  0  0  0  0  0  0
   68.0450   84.0702   86.6324 C   0  0  0  0  0  0  0  0  0  0  0  0
   69.3670   84.3922   86.9767 C   0  0  0  0  0  0  0  0  0  0  0  0
   69.9916   85.4869   86.3734 O   0  0  0  0  0  0  0  0  0  0  0  0
   70.0645   83.5887   87.9079 C   0  0  0  0  0  0  0  0  0  0  0  0
   69.4234   82.4628   88.4571 C   0  0  0  0  0  0  0  0  0  0  0  0
   69.5214   86.0137   85.7574 H   0  0  0  0  0  0  0  0  0  0  0  0
   71.4586   83.8922   88.3082 C   0  0  0  0  0  0  0  0  0  0  0  0
   71.8280   83.7411   89.5036 O   0  0  0  0  0  0  0  0  0  0  0  0
   72.3844   84.3259   87.3602 O   0  0  0  0  0  0  0  0  0  0  0  0
   72.1221   84.4421   86.4682 H   0  0  0  0  0  0  0  0  0  0  0  0
  1  2  2  0  0  0  0
  2  3  1  0  0  0  0
  3  4  2  0  0  0  0
  4  5  1  0  0  0  0
  5 22  1  0  0  0  0
  5  6  2  0  0  0  0
  6  1  1  0  0  0  0
  7  8  2  0  0  0  0
  8  9  1  0  0  0  0
  9 10  2  0  0  0  0
 10 11  1  0  0  0  0
 11  1  1  0  0  0  0
 11 12  2  0  0  0  0
 12  7  1  0  0  0  0
 13  7  1  0  0  0  0
 14 15  2  0  0  0  0
 15 16  1  0  0  0  0
 16 17  2  0  0  0  0
 17 13  1  0  0  0  0
 17 18  1  0  0  0  0
 18 19  2  0  0  0  0
 19 14  1  0  0  0  0
 20 21  3  0  0  0  0
 21 14  1  0  0  0  0
 22 23  1  0  0  0  0
 23 24  1  0  0  0  0
 24 25  2  0  0  0  0
 25 26  1  0  0  0  0
 26 27  2  0  0  0  0
 27 28  1  0  0  0  0
 27 29  1  0  0  0  0
 28 31  1  0  0  0  0
 29 32  1  0  0  0  0
 29 30  2  0  0  0  0
 30 24  1  0  0  0  0
 32 33  2  0  0  0  0
 32 34  1  0  0  0  0
 34 35  1  0  0  0  0
M  END
>  <Activity>
18.6

>  <minimizedAffinity>
-8.50751

>  <RFScoreVS_v2>
5.95836734125

$$$$
HIPS7001
 OpenBabel05252300073D

 36 39  0  0  0  0  0  0  0  0999 V2000
   69.3688   78.1939   90.1409 C   0  0  0  0  0  0  0  0  0  0  0  0
   70.7526   78.4219   90.0557 C   0  0  0  0  0  0  0  0  0  0  0  0
   71.6339   77.7382   90.8946 C   0  0  0  0  0  0  0  0  0  0  0  0
   71.1492   76.8291   91.8348 C   0  0  0  0  0  0  0  0  0  0  0  0
   69.7665   76.5762   91.9331 C   0  0  0  0  0  0  0  0  0  0  0  0
   68.8873   77.2580   91.0753 C   0  0  0  0  0  0  0  0  0  0  0  0
   67.6897   81.0916   88.3429 C   0  0  0  0  0  0  0  0  0  0  0  0
   66.7038   80.4100   87.6058 C   0  0  0  0  0  0  0  0  0  0  0  0
   66.5816   79.0233   87.7099 C   0  0  0  0  0  0  0  0  0  0  0  0
   67.4346   78.3040   88.5486 C   0  0  0  0  0  0  0  0  0  0  0  0
   68.4249   78.9667   89.2948 C   0  0  0  0  0  0  0  0  0  0  0  0
   68.5352   80.3672   89.1930 C   0  0  0  0  0  0  0  0  0  0  0  0
   67.8636   82.4821   88.2576 O   0  0  0  0  0  0  0  0  0  0  0  0
   68.1441   83.1972   87.0529 C   0  0  0  0  0  0  0  0  0  0  0  0
   71.4483   85.8562   87.8237 C   0  0  0  0  0  0  0  0  0  0  0  0
   71.6914   84.5000   87.5632 C   0  0  0  0  0  0  0  0  0  0  0  0
   70.6236   83.6393   87.2907 C   0  0  0  0  0  0  0  0  0  0  0  0
   69.3054   84.1273   87.2695 C   0  0  0  0  0  0  0  0  0  0  0  0
   69.0687   85.4854   87.5361 C   0  0  0  0  0  0  0  0  0  0  0  0
   70.1368   86.3469   87.8038 C   0  0  0  0  0  0  0  0  0  0  0  0
   73.4236   87.4607   88.3355 N   0  0  0  0  0  0  0  0  0  0  0  0
   72.5438   86.7441   88.1078 C   0  0  0  0  0  0  0  0  0  0  0  0
   69.1823   75.6131   92.9424 C   0  0  0  0  0  0  0  0  0  0  0  0
   70.1109   74.6148   93.3719 O   0  0  0  0  0  0  0  0  0  0  0  0
   70.0572   73.2483   93.0455 C   0  0  0  0  0  0  0  0  0  0  0  0
   69.5579   72.8930   91.7900 C   0  0  0  0  0  0  0  0  0  0  0  0
   69.4483   71.5516   91.4236 C   0  0  0  0  0  0  0  0  0  0  0  0
   69.8356   70.5378   92.3056 C   0  0  0  0  0  0  0  0  0  0  0  0
   69.6123   69.2145   91.9216 O   0  0  0  0  0  0  0  0  0  0  0  0
   70.3982   70.8795   93.5596 C   0  0  0  0  0  0  0  0  0  0  0  0
   70.4774   72.2351   93.9284 C   0  0  0  0  0  0  0  0  0  0  0  0
   69.2379   69.0267   91.0834 H   0  0  0  0  0  0  0  0  0  0  0  0
   70.9527   69.8587   94.4741 C   0  0  0  0  0  0  0  0  0  0  0  0
   71.7258   68.9692   94.0319 O   0  0  0  0  0  0  0  0  0  0  0  0
   70.5803   69.8362   95.8146 O   0  0  0  0  0  0  0  0  0  0  0  0
   70.0052   70.4944   96.1523 H   0  0  0  0  0  0  0  0  0  0  0  0
  1  2  2  0  0  0  0
  2  3  1  0  0  0  0
  3  4  2  0  0  0  0
  4  5  1  0  0  0  0
  5 23  1  0  0  0  0
  5  6  2  0  0  0  0
  6  1  1  0  0  0  0
  7  8  2  0  0  0  0
  8  9  1  0  0  0  0
  9 10  2  0  0  0  0
 10 11  1  0  0  0  0
 11  1  1  0  0  0  0
 11 12  2  0  0  0  0
 12  7  1  0  0  0  0
 13  7  1  0  0  0  0
 14 13  1  0  0  0  0
 15 16  2  0  0  0  0
 16 17  1  0  0  0  0
 17 18  2  0  0  0  0
 18 14  1  0  0  0  0
 18 19  1  0  0  0  0
 19 20  2  0  0  0  0
 20 15  1  0  0  0  0
 21 22  3  0  0  0  0
 22 15  1  0  0  0  0
 23 24  1  0  0  0  0
 24 25  1  0  0  0  0
 25 26  2  0  0  0  0
 26 27  1  0  0  0  0
 27 28  2  0  0  0  0
 28 29  1  0  0  0  0
 28 30  1  0  0  0  0
 29 32  1  0  0  0  0
 30 33  1  0  0  0  0
 30 31  2  0  0  0  0
 31 25  1  0  0  0  0
 33 34  2  0  0  0  0
 33 35  1  0  0  0  0
 35 36  1  0  0  0  0
M  END
>  <Activity>
23.7

>  <minimizedAffinity>
-9.45485

>  <RFScoreVS_v2>
5.98403959483

$$$$
HIPS7001
 OpenBabel05252300073D

 36 39  0  0  0  0  0  0  0  0999 V2000
   67.6654   75.3890   89.3056 C   0  0  0  0  0  0  0  0  0  0  0  0
   66.9913   74.3240   88.6847 C   0  0  0  0  0  0  0  0  0  0  0  0
   67.1725   73.0154   89.1345 C   0  0  0  0  0  0  0  0  0  0  0  0
   68.0339   72.7493   90.1987 C   0  0  0  0  0  0  0  0  0  0  0  0
   68.7140   73.8012   90.8439 C   0  0  0  0  0  0  0  0  0  0  0  0
   68.5152   75.1172   90.3941 C   0  0  0  0  0  0  0  0  0  0  0  0
   67.9359   79.1694   89.0149 C   0  0  0  0  0  0  0  0  0  0  0  0
   67.3521   79.3801   87.7521 C   0  0  0  0  0  0  0  0  0  0  0  0
   66.8626   78.3002   87.0151 C   0  0  0  0  0  0  0  0  0  0  0  0
   66.9462   77.0045   87.5275 C   0  0  0  0  0  0  0  0  0  0  0  0
   67.5244   76.7733   88.7881 C   0  0  0  0  0  0  0  0  0  0  0  0
   68.0063   77.8688   89.5307 C   0  0  0  0  0  0  0  0  0  0  0  0
   68.4587   80.2203   89.7850 O   0  0  0  0  0  0  0  0  0  0  0  0
   69.8160   80.3163   90.2207 C   0  0  0  0  0  0  0  0  0  0  0  0
   71.5334   83.9981   88.7796 C   0  0  0  0  0  0  0  0  0  0  0  0
   72.3080   83.1253   89.5570 C   0  0  0  0  0  0  0  0  0  0  0  0
   71.7612   81.9197   90.0073 C   0  0  0  0  0  0  0  0  0  0  0  0
   70.4388   81.5731   89.6793 C   0  0  0  0  0  0  0  0  0  0  0  0
   69.6672   82.4541   88.9047 C   0  0  0  0  0  0  0  0  0  0  0  0
   70.2157   83.6573   88.4504 C   0  0  0  0  0  0  0  0  0  0  0  0
   72.5413   86.2411   87.9478 N   0  0  0  0  0  0  0  0  0  0  0  0
   72.0914   85.2408   88.3172 C   0  0  0  0  0  0  0  0  0  0  0  0
   69.6711   73.5717   91.9923 C   0  0  0  0  0  0  0  0  0  0  0  0
   69.0170   73.1796   93.2013 O   0  0  0  0  0  0  0  0  0  0  0  0
   68.0947   73.9555   93.9252 C   0  0  0  0  0  0  0  0  0  0  0  0
   67.7047   73.5023   95.1878 C   0  0  0  0  0  0  0  0  0  0  0  0
   66.7667   74.2116   95.9378 C   0  0  0  0  0  0  0  0  0  0  0  0
   66.1991   75.3890   95.4402 C   0  0  0  0  0  0  0  0  0  0  0  0
   65.1959   76.0018   96.1928 O   0  0  0  0  0  0  0  0  0  0  0  0
   66.6249   75.8952   94.1879 C   0  0  0  0  0  0  0  0  0  0  0  0
   67.5508   75.1557   93.4290 C   0  0  0  0  0  0  0  0  0  0  0  0
   64.9404   75.6378   97.0175 H   0  0  0  0  0  0  0  0  0  0  0  0
   66.1657   77.2032   93.6741 C   0  0  0  0  0  0  0  0  0  0  0  0
   66.8199   77.7921   92.7743 O   0  0  0  0  0  0  0  0  0  0  0  0
   65.0442   77.8206   94.2192 O   0  0  0  0  0  0  0  0  0  0  0  0
   64.5513   77.3894   94.8895 H   0  0  0  0  0  0  0  0  0  0  0  0
  1  2  2  0  0  0  0
  2  3  1  0  0  0  0
  3  4  2  0  0  0  0
  4  5  1  0  0  0  0
  5 23  1  0  0  0  0
  5  6  2  0  0  0  0
  6  1  1  0  0  0  0
  7  8  2  0  0  0  0
  8  9  1  0  0  0  0
  9 10  2  0  0  0  0
 10 11  1  0  0  0  0
 11  1  1  0  0  0  0
 11 12  2  0  0  0  0
 12  7  1  0  0  0  0
 13  7  1  0  0  0  0
 14 13  1  0  0  0  0
 15 16  2  0  0  0  0
 16 17  1  0  0  0  0
 17 18  2  0  0  0  0
 18 14  1  0  0  0  0
 18 19  1  0  0  0  0
 19 20  2  0  0  0  0
 20 15  1  0  0  0  0
 21 22  3  0  0  0  0
 22 15  1  0  0  0  0
 23 24  1  0  0  0  0
 24 25  1  0  0  0  0
 25 26  2  0  0  0  0
 26 27  1  0  0  0  0
 27 28  2  0  0  0  0
 28 29  1  0  0  0  0
 28 30  1  0  0  0  0
 29 32  1  0  0  0  0
 30 33  1  0  0  0  0
 30 31  2  0  0  0  0
 31 25  1  0  0  0  0
 33 34  2  0  0  0  0
 33 35  1  0  0  0  0
 35 36  1  0  0  0  0
M  END
>  <Activity>
23.7

>  <minimizedAffinity>
-9.11421

>  <RFScoreVS_v2>
6.00289022016

$$$$
HIPS7001
 OpenBabel05252300073D

 36 39  0  0  0  0  0  0  0  0999 V2000
   67.5124   76.6265   88.7868 C   0  0  0  0  0  0  0  0  0  0  0  0
   66.9834   76.7822   87.4944 C   0  0  0  0  0  0  0  0  0  0  0  0
   66.7060   78.0549   86.9935 C   0  0  0  0  0  0  0  0  0  0  0  0
   66.9405   79.1860   87.7752 C   0  0  0  0  0  0  0  0  0  0  0  0
   67.4793   79.0565   89.0707 C   0  0  0  0  0  0  0  0  0  0  0  0
   67.7690   77.7727   89.5621 C   0  0  0  0  0  0  0  0  0  0  0  0
   68.7814   73.8219   91.0168 C   0  0  0  0  0  0  0  0  0  0  0  0
   68.1027   72.7188   90.4668 C   0  0  0  0  0  0  0  0  0  0  0  0
   67.2547   72.8904   89.3712 C   0  0  0  0  0  0  0  0  0  0  0  0
   67.0771   74.1569   88.8119 C   0  0  0  0  0  0  0  0  0  0  0  0
   67.7478   75.2714   89.3458 C   0  0  0  0  0  0  0  0  0  0  0  0
   68.6101   75.0890   90.4443 C   0  0  0  0  0  0  0  0  0  0  0  0
   69.6297   73.7029   92.1291 O   0  0  0  0  0  0  0  0  0  0  0  0
   69.2098   73.8069   93.4908 C   0  0  0  0  0  0  0  0  0  0  0  0
   66.4320   77.0914   93.7703 C   0  0  0  0  0  0  0  0  0  0  0  0
   65.9603   75.7724   93.8344 C   0  0  0  0  0  0  0  0  0  0  0  0
   66.8609   74.7049   93.7666 C   0  0  0  0  0  0  0  0  0  0  0  0
   68.2402   74.9461   93.6410 C   0  0  0  0  0  0  0  0  0  0  0  0
   68.7052   76.2692   93.5722 C   0  0  0  0  0  0  0  0  0  0  0  0
   67.8051   77.3365   93.6449 C   0  0  0  0  0  0  0  0  0  0  0  0
   64.7674   79.0796   93.8897 N   0  0  0  0  0  0  0  0  0  0  0  0
   65.5084   78.1921   93.8364 C   0  0  0  0  0  0  0  0  0  0  0  0
   67.7407   80.2450   89.9688 C   0  0  0  0  0  0  0  0  0  0  0  0
   68.1542   81.4117   89.2538 O   0  0  0  0  0  0  0  0  0  0  0  0
   69.4445   81.9698   89.2686 C   0  0  0  0  0  0  0  0  0  0  0  0
   70.4179   81.3507   90.0566 C   0  0  0  0  0  0  0  0  0  0  0  0
   71.7063   81.8788   90.1383 C   0  0  0  0  0  0  0  0  0  0  0  0
   72.0477   83.0374   89.4334 C   0  0  0  0  0  0  0  0  0  0  0  0
   73.3218   83.5727   89.6303 O   0  0  0  0  0  0  0  0  0  0  0  0
   71.0918   83.6459   88.5838 C   0  0  0  0  0  0  0  0  0  0  0  0
   69.7878   83.1197   88.5320 C   0  0  0  0  0  0  0  0  0  0  0  0
   73.9280   83.1419   90.2003 H   0  0  0  0  0  0  0  0  0  0  0  0
   71.4346   84.7876   87.7093 C   0  0  0  0  0  0  0  0  0  0  0  0
   72.3381   85.5947   88.0513 O   0  0  0  0  0  0  0  0  0  0  0  0
   70.7249   85.0136   86.5340 O   0  0  0  0  0  0  0  0  0  0  0  0
   70.0508   84.4179   86.2719 H   0  0  0  0  0  0  0  0  0  0  0  0
  1  2  2  0  0  0  0
  2  3  1  0  0  0  0
  3  4  2  0  0  0  0
  4  5  1  0  0  0  0
  5 23  1  0  0  0  0
  5  6  2  0  0  0  0
  6  1  1  0  0  0  0
  7  8  2  0  0  0  0
  8  9  1  0  0  0  0
  9 10  2  0  0  0  0
 10 11  1  0  0  0  0
 11  1  1  0  0  0  0
 11 12  2  0  0  0  0
 12  7  1  0  0  0  0
 13  7  1  0  0  0  0
 14 13  1  0  0  0  0
 15 16  2  0  0  0  0
 16 17  1  0  0  0  0
 17 18  2  0  0  0  0
 18 14  1  0  0  0  0
 18 19  1  0  0  0  0
 19 20  2  0  0  0  0
 20 15  1  0  0  0  0
 21 22  3  0  0  0  0
 22 15  1  0  0  0  0
 23 24  1  0  0  0  0
 24 25  1  0  0  0  0
 25 26  2  0  0  0  0
 26 27  1  0  0  0  0
 27 28  2  0  0  0  0
 28 29  1  0  0  0  0
 28 30  1  0  0  0  0
 29 32  1  0  0  0  0
 30 33  1  0  0  0  0
 30 31  2  0  0  0  0
 31 25  1  0  0  0  0
 33 34  2  0  0  0  0
 33 35  1  0  0  0  0
 35 36  1  0  0  0  0
M  END
>  <Activity>
23.7

>  <minimizedAffinity>
-9.07384

>  <RFScoreVS_v2>
6.05011268941

$$$$
HIPS7001
 OpenBabel05252300073D

 36 39  0  0  0  0  0  0  0  0999 V2000
   70.3658   80.6738   90.0108 C   0  0  0  0  0  0  0  0  0  0  0  0
   68.9610   80.6668   90.0373 C   0  0  0  0  0  0  0  0  0  0  0  0
   68.2677   79.5194   90.4253 C   0  0  0  0  0  0  0  0  0  0  0  0
   68.9621   78.3631   90.7805 C   0  0  0  0  0  0  0  0  0  0  0  0
   70.3711   78.3481   90.7711 C   0  0  0  0  0  0  0  0  0  0  0  0
   71.0616   79.5115   90.3928 C   0  0  0  0  0  0  0  0  0  0  0  0
   71.2214   83.8677   88.1358 C   0  0  0  0  0  0  0  0  0  0  0  0
   72.4569   84.1966   88.7234 C   0  0  0  0  0  0  0  0  0  0  0  0
   73.0080   83.3743   89.7077 C   0  0  0  0  0  0  0  0  0  0  0  0
   72.3387   82.2185   90.1132 C   0  0  0  0  0  0  0  0  0  0  0  0
   71.1040   81.8715   89.5369 C   0  0  0  0  0  0  0  0  0  0  0  0
   70.5592   82.7001   88.5367 C   0  0  0  0  0  0  0  0  0  0  0  0
   70.6182   84.6723   87.1561 O   0  0  0  0  0  0  0  0  0  0  0  0
   69.3429   85.3025   87.2891 C   0  0  0  0  0  0  0  0  0  0  0  0
   69.0471   87.5537   90.9533 C   0  0  0  0  0  0  0  0  0  0  0  0
   68.4653   86.2807   90.8688 C   0  0  0  0  0  0  0  0  0  0  0  0
   68.5786   85.5384   89.6892 C   0  0  0  0  0  0  0  0  0  0  0  0
   69.2794   86.0587   88.5871 C   0  0  0  0  0  0  0  0  0  0  0  0
   69.8552   87.3362   88.6769 C   0  0  0  0  0  0  0  0  0  0  0  0
   69.7460   88.0762   89.8581 C   0  0  0  0  0  0  0  0  0  0  0  0
   68.8383   88.9399   93.1381 N   0  0  0  0  0  0  0  0  0  0  0  0
   68.9298   88.3218   92.1639 C   0  0  0  0  0  0  0  0  0  0  0  0
   71.1769   77.1200   91.1317 C   0  0  0  0  0  0  0  0  0  0  0  0
   70.7090   76.4658   92.3135 O   0  0  0  0  0  0  0  0  0  0  0  0
   69.7674   75.4227   92.3568 C   0  0  0  0  0  0  0  0  0  0  0  0
   69.6005   74.6417   91.2105 C   0  0  0  0  0  0  0  0  0  0  0  0
   68.6569   73.6150   91.1825 C   0  0  0  0  0  0  0  0  0  0  0  0
   67.8602   73.3484   92.3006 C   0  0  0  0  0  0  0  0  0  0  0  0
   66.8678   72.3741   92.1807 O   0  0  0  0  0  0  0  0  0  0  0  0
   68.0551   74.0908   93.4908 C   0  0  0  0  0  0  0  0  0  0  0  0
   68.9905   75.1420   93.4971 C   0  0  0  0  0  0  0  0  0  0  0  0
   66.7686   71.9028   91.3770 H   0  0  0  0  0  0  0  0  0  0  0  0
   67.3426   73.7636   94.7442 C   0  0  0  0  0  0  0  0  0  0  0  0
   66.0905   73.8775   94.8058 O   0  0  0  0  0  0  0  0  0  0  0  0
   68.0515   73.3854   95.8802 O   0  0  0  0  0  0  0  0  0  0  0  0
   68.9837   73.2982   95.8432 H   0  0  0  0  0  0  0  0  0  0  0  0
  1  2  2  0  0  0  0
  2  3  1  0  0  0  0
  3  4  2  0  0  0  0
  4  5  1  0  0  0  0
  5 23  1  0  0  0  0
  5  6  2  0  0  0  0
  6  1  1  0  0  0  0
  7  8  2  0  0  0  0
  8  9  1  0  0  0  0
  9 10  2  0  0  0  0
 10 11  1  0  0  0  0
 11  1  1  0  0  0  0
 11 12  2  0  0  0  0
 12  7  1  0  0  0  0
 13  7  1  0  0  0  0
 14 13  1  0  0  0  0
 15 16  2  0  0  0  0
 16 17  1  0  0  0  0
 17 18  2  0  0  0  0
 18 14  1  0  0  0  0
 18 19  1  0  0  0  0
 19 20  2  0  0  0  0
 20 15  1  0  0  0  0
 21 22  3  0  0  0  0
 22 15  1  0  0  0  0
 23 24  1  0  0  0  0
 24 25  1  0  0  0  0
 25 26  2  0  0  0  0
 26 27  1  0  0  0  0
 27 28  2  0  0  0  0
 28 29  1  0  0  0  0
 28 30  1  0  0  0  0
 29 32  1  0  0  0  0
 30 33  1  0  0  0  0
 30 31  2  0  0  0  0
 31 25  1  0  0  0  0
 33 34  2  0  0  0  0
 33 35  1  0  0  0  0
 35 36  1  0  0  0  0
M  END
>  <Activity>
23.7

>  <minimizedAffinity>
-9.06060

>  <RFScoreVS_v2>
6.0024078401

$$$$
HIPS7001
 OpenBabel05252300073D

 36 39  0  0  0  0  0  0  0  0999 V2000
   68.4739   77.8261   89.1354 C   0  0  0  0  0  0  0  0  0  0  0  0
   67.8744   76.7152   88.5185 C   0  0  0  0  0  0  0  0  0  0  0  0
   66.8010   76.8873   87.6433 C   0  0  0  0  0  0  0  0  0  0  0  0
   66.3043   78.1639   87.3803 C   0  0  0  0  0  0  0  0  0  0  0  0
   66.8945   79.2944   87.9793 C   0  0  0  0  0  0  0  0  0  0  0  0
   67.9837   79.1138   88.8480 C   0  0  0  0  0  0  0  0  0  0  0  0
   70.4246   76.6482   92.1778 C   0  0  0  0  0  0  0  0  0  0  0  0
   71.6900   77.2033   91.9120 C   0  0  0  0  0  0  0  0  0  0  0  0
   71.8952   77.9657   90.7607 C   0  0  0  0  0  0  0  0  0  0  0  0
   70.8455   78.1852   89.8672 C   0  0  0  0  0  0  0  0  0  0  0  0
   69.5732   77.6407   90.1158 C   0  0  0  0  0  0  0  0  0  0  0  0
   69.3708   76.8817   91.2849 C   0  0  0  0  0  0  0  0  0  0  0  0
   70.1741   75.8595   93.3119 O   0  0  0  0  0  0  0  0  0  0  0  0
   69.0253   75.0292   93.4912 C   0  0  0  0  0  0  0  0  0  0  0  0
   69.9371   71.1336   91.8865 C   0  0  0  0  0  0  0  0  0  0  0  0
   70.3837   71.4806   93.1697 C   0  0  0  0  0  0  0  0  0  0  0  0
   70.0706   72.7351   93.7021 C   0  0  0  0  0  0  0  0  0  0  0  0
   69.3035   73.6503   92.9603 C   0  0  0  0  0  0  0  0  0  0  0  0
   68.8639   73.2983   91.6741 C   0  0  0  0  0  0  0  0  0  0  0  0
   69.1729   72.0420   91.1437 C   0  0  0  0  0  0  0  0  0  0  0  0
   70.5220   68.8099   90.8882 N   0  0  0  0  0  0  0  0  0  0  0  0
   70.2600   69.8453   91.3340 C   0  0  0  0  0  0  0  0  0  0  0  0
   66.3897   80.7005   87.7434 C   0  0  0  0  0  0  0  0  0  0  0  0
   67.0778   81.6841   88.5196 O   0  0  0  0  0  0  0  0  0  0  0  0
   67.9516   82.6638   88.0162 C   0  0  0  0  0  0  0  0  0  0  0  0
   67.4521   83.5667   87.0744 C   0  0  0  0  0  0  0  0  0  0  0  0
   68.2808   84.5385   86.5138 C   0  0  0  0  0  0  0  0  0  0  0  0
   69.6266   84.6272   86.8836 C   0  0  0  0  0  0  0  0  0  0  0  0
   70.4292   85.5555   86.2182 O   0  0  0  0  0  0  0  0  0  0  0  0
   70.1366   83.7588   87.8793 C   0  0  0  0  0  0  0  0  0  0  0  0
   69.2978   82.7648   88.4165 C   0  0  0  0  0  0  0  0  0  0  0  0
   70.0563   86.1139   85.5647 H   0  0  0  0  0  0  0  0  0  0  0  0
   71.5096   83.8957   88.4103 C   0  0  0  0  0  0  0  0  0  0  0  0
   71.7738   83.5151   89.5807 O   0  0  0  0  0  0  0  0  0  0  0  0
   72.5043   84.4979   87.6462 O   0  0  0  0  0  0  0  0  0  0  0  0
   72.3164   84.7842   86.7740 H   0  0  0  0  0  0  0  0  0  0  0  0
  1  2  2  0  0  0  0
  2  3  1  0  0  0  0
  3  4  2  0  0  0  0
  4  5  1  0  0  0  0
  5 23  1  0  0  0  0
  5  6  2  0  0  0  0
  6  1  1  0  0  0  0
  7  8  2  0  0  0  0
  8  9  1  0  0  0  0
  9 10  2  0  0  0  0
 10 11  1  0  0  0  0
 11  1  1  0  0  0  0
 11 12  2  0  0  0  0
 12  7  1  0  0  0  0
 13  7  1  0  0  0  0
 14 13  1  0  0  0  0
 15 16  2  0  0  0  0
 16 17  1  0  0  0  0
 17 18  2  0  0  0  0
 18 14  1  0  0  0  0
 18 19  1  0  0  0  0
 19 20  2  0  0  0  0
 20 15  1  0  0  0  0
 21 22  3  0  0  0  0
 22 15  1  0  0  0  0
 23 24  1  0  0  0  0
 24 25  1  0  0  0  0
 25 26  2  0  0  0  0
 26 27  1  0  0  0  0
 27 28  2  0  0  0  0
 28 29  1  0  0  0  0
 28 30  1  0  0  0  0
 29 32  1  0  0  0  0
 30 33  1  0  0  0  0
 30 31  2  0  0  0  0
 31 25  1  0  0  0  0
 33 34  2  0  0  0  0
 33 35  1  0  0  0  0
 35 36  1  0  0  0  0
M  END
>  <Activity>
23.7

>  <minimizedAffinity>
-9.03574

>  <RFScoreVS_v2>
5.9603725729

$$$$
HIPS7001
 OpenBabel05252300073D

 36 39  0  0  0  0  0  0  0  0999 V2000
   68.7967   78.9528   89.4310 C   0  0  0  0  0  0  0  0  0  0  0  0
   68.0361   78.2658   88.4699 C   0  0  0  0  0  0  0  0  0  0  0  0
   66.9560   78.8911   87.8453 C   0  0  0  0  0  0  0  0  0  0  0  0
   66.6130   80.2018   88.1768 C   0  0  0  0  0  0  0  0  0  0  0  0
   67.3662   80.9150   89.1306 C   0  0  0  0  0  0  0  0  0  0  0  0
   68.4605   80.2830   89.7443 C   0  0  0  0  0  0  0  0  0  0  0  0
   70.7151   76.4231   91.5213 C   0  0  0  0  0  0  0  0  0  0  0  0
   72.0264   76.9181   91.3981 C   0  0  0  0  0  0  0  0  0  0  0  0
   72.2746   78.0731   90.6543 C   0  0  0  0  0  0  0  0  0  0  0  0
   71.2230   78.7464   90.0305 C   0  0  0  0  0  0  0  0  0  0  0  0
   69.9054   78.2688   90.1432 C   0  0  0  0  0  0  0  0  0  0  0  0
   69.6611   77.1091   90.9042 C   0  0  0  0  0  0  0  0  0  0  0  0
   70.4180   75.2559   92.2427 O   0  0  0  0  0  0  0  0  0  0  0  0
   69.1007   74.8191   92.5821 C   0  0  0  0  0  0  0  0  0  0  0  0
   67.2548   73.2782   89.0044 C   0  0  0  0  0  0  0  0  0  0  0  0
   67.9648   72.4138   89.8500 C   0  0  0  0  0  0  0  0  0  0  0  0
   68.5458   72.9059   91.0228 C   0  0  0  0  0  0  0  0  0  0  0  0
   68.4167   74.2636   91.3639 C   0  0  0  0  0  0  0  0  0  0  0  0
   67.7087   75.1247   90.5101 C   0  0  0  0  0  0  0  0  0  0  0  0
   67.1237   74.6315   89.3399 C   0  0  0  0  0  0  0  0  0  0  0  0
   66.1809   72.3709   86.8222 N   0  0  0  0  0  0  0  0  0  0  0  0
   66.6586   72.7764   87.7953 C   0  0  0  0  0  0  0  0  0  0  0  0
   67.0327   82.3321   89.5406 C   0  0  0  0  0  0  0  0  0  0  0  0
   68.0438   82.9376   90.3495 O   0  0  0  0  0  0  0  0  0  0  0  0
   69.3517   83.2454   89.9357 C   0  0  0  0  0  0  0  0  0  0  0  0
   70.4099   82.5724   90.5513 C   0  0  0  0  0  0  0  0  0  0  0  0
   71.7304   82.8606   90.2069 C   0  0  0  0  0  0  0  0  0  0  0  0
   72.0199   83.8283   89.2397 C   0  0  0  0  0  0  0  0  0  0  0  0
   73.3600   84.1421   89.0072 O   0  0  0  0  0  0  0  0  0  0  0  0
   70.9596   84.4793   88.5632 C   0  0  0  0  0  0  0  0  0  0  0  0
   69.6328   84.1999   88.9395 C   0  0  0  0  0  0  0  0  0  0  0  0
   74.0349   83.6898   89.4741 H   0  0  0  0  0  0  0  0  0  0  0  0
   71.2005   85.4070   87.4375 C   0  0  0  0  0  0  0  0  0  0  0  0
   72.1798   86.1972   87.4702 O   0  0  0  0  0  0  0  0  0  0  0  0
   70.3175   85.4566   86.3632 O   0  0  0  0  0  0  0  0  0  0  0  0
   69.5859   84.8721   86.3308 H   0  0  0  0  0  0  0  0  0  0  0  0
  1  2  2  0  0  0  0
  2  3  1  0  0  0  0
  3  4  2  0  0  0  0
  4  5  1  0  0  0  0
  5 23  1  0  0  0  0
  5  6  2  0  0  0  0
  6  1  1  0  0  0  0
  7  8  2  0  0  0  0
  8  9  1  0  0  0  0
  9 10  2  0  0  0  0
 10 11  1  0  0  0  0
 11  1  1  0  0  0  0
 11 12  2  0  0  0  0
 12  7  1  0  0  0  0
 13  7  1  0  0  0  0
 14 13  1  0  0  0  0
 15 16  2  0  0  0  0
 16 17  1  0  0  0  0
 17 18  2  0  0  0  0
 18 14  1  0  0  0  0
 18 19  1  0  0  0  0
 19 20  2  0  0  0  0
 20 15  1  0  0  0  0
 21 22  3  0  0  0  0
 22 15  1  0  0  0  0
 23 24  1  0  0  0  0
 24 25  1  0  0  0  0
 25 26  2  0  0  0  0
 26 27  1  0  0  0  0
 27 28  2  0  0  0  0
 28 29  1  0  0  0  0
 28 30  1  0  0  0  0
 29 32  1  0  0  0  0
 30 33  1  0  0  0  0
 30 31  2  0  0  0  0
 31 25  1  0  0  0  0
 33 34  2  0  0  0  0
 33 35  1  0  0  0  0
 35 36  1  0  0  0  0
M  END
>  <Activity>
23.7

>  <minimizedAffinity>
-8.95059

>  <RFScoreVS_v2>
6.00704507798

$$$$
HIPS7001
 OpenBabel05252300073D

 36 39  0  0  0  0  0  0  0  0999 V2000
   69.6469   81.2472   90.1916 C   0  0  0  0  0  0  0  0  0  0  0  0
   68.5383   81.7682   90.8798 C   0  0  0  0  0  0  0  0  0  0  0  0
   67.5344   80.9189   91.3473 C   0  0  0  0  0  0  0  0  0  0  0  0
   67.6153   79.5441   91.1263 C   0  0  0  0  0  0  0  0  0  0  0  0
   68.7217   78.9965   90.4470 C   0  0  0  0  0  0  0  0  0  0  0  0
   69.7349   79.8568   89.9921 C   0  0  0  0  0  0  0  0  0  0  0  0
   71.3728   83.8297   88.0005 C   0  0  0  0  0  0  0  0  0  0  0  0
   72.6108   83.9501   88.6584 C   0  0  0  0  0  0  0  0  0  0  0  0
   72.8808   83.1836   89.7935 C   0  0  0  0  0  0  0  0  0  0  0  0
   71.9256   82.2904   90.2815 C   0  0  0  0  0  0  0  0  0  0  0  0
   70.6833   82.1543   89.6373 C   0  0  0  0  0  0  0  0  0  0  0  0
   70.4220   82.9228   88.4863 C   0  0  0  0  0  0  0  0  0  0  0  0
   71.0478   84.5919   86.8671 O   0  0  0  0  0  0  0  0  0  0  0  0
   70.2251   85.7600   86.8773 C   0  0  0  0  0  0  0  0  0  0  0  0
   67.5424   85.4572   90.2379 C   0  0  0  0  0  0  0  0  0  0  0  0
   68.7256   86.2004   90.3556 C   0  0  0  0  0  0  0  0  0  0  0  0
   69.5871   86.3192   89.2606 C   0  0  0  0  0  0  0  0  0  0  0  0
   69.2706   85.7026   88.0376 C   0  0  0  0  0  0  0  0  0  0  0  0
   68.0866   84.9556   87.9281 C   0  0  0  0  0  0  0  0  0  0  0  0
   67.2229   84.8409   89.0216 C   0  0  0  0  0  0  0  0  0  0  0  0
   65.9436   85.2272   92.2700 N   0  0  0  0  0  0  0  0  0  0  0  0
   66.6552   85.3298   91.3630 C   0  0  0  0  0  0  0  0  0  0  0  0
   68.8563   77.5166   90.1655 C   0  0  0  0  0  0  0  0  0  0  0  0
   67.8829   76.7223   90.8475 O   0  0  0  0  0  0  0  0  0  0  0  0
   68.1569   75.6220   91.6787 C   0  0  0  0  0  0  0  0  0  0  0  0
   69.3381   74.9099   91.4562 C   0  0  0  0  0  0  0  0  0  0  0  0
   69.6466   73.7887   92.2262 C   0  0  0  0  0  0  0  0  0  0  0  0
   68.7798   73.3562   93.2350 C   0  0  0  0  0  0  0  0  0  0  0  0
   69.0940   72.1735   93.9064 O   0  0  0  0  0  0  0  0  0  0  0  0
   67.6066   74.0988   93.5142 C   0  0  0  0  0  0  0  0  0  0  0  0
   67.2928   75.2115   92.7119 C   0  0  0  0  0  0  0  0  0  0  0  0
   69.8797   71.7090   93.6945 H   0  0  0  0  0  0  0  0  0  0  0  0
   66.7255   73.7724   94.6556 C   0  0  0  0  0  0  0  0  0  0  0  0
   67.2233   73.3955   95.7487 O   0  0  0  0  0  0  0  0  0  0  0  0
   65.3421   73.8214   94.5151 O   0  0  0  0  0  0  0  0  0  0  0  0
   64.9631   74.1007   93.7049 H   0  0  0  0  0  0  0  0  0  0  0  0
  1  2  2  0  0  0  0
  2  3  1  0  0  0  0
  3  4  2  0  0  0  0
  4  5  1  0  0  0  0
  5 23  1  0  0  0  0
  5  6  2  0  0  0  0
  6  1  1  0  0  0  0
  7  8  2  0  0  0  0
  8  9  1  0  0  0  0
  9 10  2  0  0  0  0
 10 11  1  0  0  0  0
 11  1  1  0  0  0  0
 11 12  2  0  0  0  0
 12  7  1  0  0  0  0
 13  7  1  0  0  0  0
 14 13  1  0  0  0  0
 15 16  2  0  0  0  0
 16 17  1  0  0  0  0
 17 18  2  0  0  0  0
 18 14  1  0  0  0  0
 18 19  1  0  0  0  0
 19 20  2  0  0  0  0
 20 15  1  0  0  0  0
 21 22  3  0  0  0  0
 22 15  1  0  0  0  0
 23 24  1  0  0  0  0
 24 25  1  0  0  0  0
 25 26  2  0  0  0  0
 26 27  1  0  0  0  0
 27 28  2  0  0  0  0
 28 29  1  0  0  0  0
 28 30  1  0  0  0  0
 29 32  1  0  0  0  0
 30 33  1  0  0  0  0
 30 31  2  0  0  0  0
 31 25  1  0  0  0  0
 33 34  2  0  0  0  0
 33 35  1  0  0  0  0
 35 36  1  0  0  0  0
M  END
>  <Activity>
23.7

>  <minimizedAffinity>
-8.95003

>  <RFScoreVS_v2>
5.9754727642

$$$$
HIPS7001
 OpenBabel05252300073D

 36 39  0  0  0  0  0  0  0  0999 V2000
   68.2062   73.3255   90.1218 C   0  0  0  0  0  0  0  0  0  0  0  0
   67.4361   72.6278   89.1761 C   0  0  0  0  0  0  0  0  0  0  0  0
   66.6654   73.3220   88.2424 C   0  0  0  0  0  0  0  0  0  0  0  0
   66.6426   74.7166   88.2452 C   0  0  0  0  0  0  0  0  0  0  0  0
   67.4136   75.4390   89.1775 C   0  0  0  0  0  0  0  0  0  0  0  0
   68.1977   74.7328   90.1049 C   0  0  0  0  0  0  0  0  0  0  0  0
   70.0019   72.5069   93.3706 C   0  0  0  0  0  0  0  0  0  0  0  0
   70.3367   71.1573   93.1550 C   0  0  0  0  0  0  0  0  0  0  0  0
   69.9929   70.5308   91.9558 C   0  0  0  0  0  0  0  0  0  0  0  0
   69.3176   71.2401   90.9612 C   0  0  0  0  0  0  0  0  0  0  0  0
   68.9757   72.5898   91.1566 C   0  0  0  0  0  0  0  0  0  0  0  0
   69.3354   73.2184   92.3646 C   0  0  0  0  0  0  0  0  0  0  0  0
   70.3095   73.1749   94.5664 O   0  0  0  0  0  0  0  0  0  0  0  0
   69.3449   73.6540   95.5053 C   0  0  0  0  0  0  0  0  0  0  0  0
   67.2875   76.9926   93.7157 C   0  0  0  0  0  0  0  0  0  0  0  0
   66.5567   75.8831   94.1645 C   0  0  0  0  0  0  0  0  0  0  0  0
   67.2187   74.8082   94.7658 C   0  0  0  0  0  0  0  0  0  0  0  0
   68.6146   74.8355   94.9297 C   0  0  0  0  0  0  0  0  0  0  0  0
   69.3407   75.9473   94.4735 C   0  0  0  0  0  0  0  0  0  0  0  0
   68.6782   77.0242   93.8766 C   0  0  0  0  0  0  0  0  0  0  0  0
   66.0655   78.9901   92.5956 N   0  0  0  0  0  0  0  0  0  0  0  0
   66.6105   78.0989   93.0936 C   0  0  0  0  0  0  0  0  0  0  0  0
   67.4171   76.9503   89.2376 C   0  0  0  0  0  0  0  0  0  0  0  0
   68.2275   77.4705   90.2940 O   0  0  0  0  0  0  0  0  0  0  0  0
   69.0918   78.5753   90.1983 C   0  0  0  0  0  0  0  0  0  0  0  0
   70.4642   78.3474   90.3258 C   0  0  0  0  0  0  0  0  0  0  0  0
   71.3677   79.4088   90.2743 C   0  0  0  0  0  0  0  0  0  0  0  0
   70.9169   80.7204   90.0943 C   0  0  0  0  0  0  0  0  0  0  0  0
   71.8580   81.7499   90.1482 O   0  0  0  0  0  0  0  0  0  0  0  0
   69.5349   80.9647   89.9048 C   0  0  0  0  0  0  0  0  0  0  0  0
   68.6313   79.8891   89.9869 C   0  0  0  0  0  0  0  0  0  0  0  0
   72.7646   81.5498   90.2751 H   0  0  0  0  0  0  0  0  0  0  0  0
   69.0148   82.3082   89.5724 C   0  0  0  0  0  0  0  0  0  0  0  0
   69.6963   83.0892   88.8583 O   0  0  0  0  0  0  0  0  0  0  0  0
   67.7992   82.7422   90.0922 O   0  0  0  0  0  0  0  0  0  0  0  0
   67.2854   82.1674   90.6248 H   0  0  0  0  0  0  0  0  0  0  0  0
  1  2  2  0  0  0  0
  2  3  1  0  0  0  0
  3  4  2  0  0  0  0
  4  5  1  0  0  0  0
  5 23  1  0  0  0  0
  5  6  2  0  0  0  0
  6  1  1  0  0  0  0
  7  8  2  0  0  0  0
  8  9  1  0  0  0  0
  9 10  2  0  0  0  0
 10 11  1  0  0  0  0
 11  1  1  0  0  0  0
 11 12  2  0  0  0  0
 12  7  1  0  0  0  0
 13  7  1  0  0  0  0
 14 13  1  0  0  0  0
 15 16  2  0  0  0  0
 16 17  1  0  0  0  0
 17 18  2  0  0  0  0
 18 14  1  0  0  0  0
 18 19  1  0  0  0  0
 19 20  2  0  0  0  0
 20 15  1  0  0  0  0
 21 22  3  0  0  0  0
 22 15  1  0  0  0  0
 23 24  1  0  0  0  0
 24 25  1  0  0  0  0
 25 26  2  0  0  0  0
 26 27  1  0  0  0  0
 27 28  2  0  0  0  0
 28 29  1  0  0  0  0
 28 30  1  0  0  0  0
 29 32  1  0  0  0  0
 30 33  1  0  0  0  0
 30 31  2  0  0  0  0
 31 25  1  0  0  0  0
 33 34  2  0  0  0  0
 33 35  1  0  0  0  0
 35 36  1  0  0  0  0
M  END
>  <Activity>
23.7

>  <minimizedAffinity>
-8.92633

>  <RFScoreVS_v2>
6.01076178102

$$$$
HIPS7001
 OpenBabel05252300073D

 36 39  0  0  0  0  0  0  0  0999 V2000
   70.3284   79.4716   90.3311 C   0  0  0  0  0  0  0  0  0  0  0  0
   71.4710   78.6747   90.5144 C   0  0  0  0  0  0  0  0  0  0  0  0
   71.3449   77.3266   90.8526 C   0  0  0  0  0  0  0  0  0  0  0  0
   70.0827   76.7583   91.0234 C   0  0  0  0  0  0  0  0  0  0  0  0
   68.9216   77.5343   90.8359 C   0  0  0  0  0  0  0  0  0  0  0  0
   69.0570   78.8869   90.4817 C   0  0  0  0  0  0  0  0  0  0  0  0
   69.4352   83.0905   89.5865 C   0  0  0  0  0  0  0  0  0  0  0  0
   70.7116   83.6828   89.5834 C   0  0  0  0  0  0  0  0  0  0  0  0
   71.8484   82.9038   89.8059 C   0  0  0  0  0  0  0  0  0  0  0  0
   71.7267   81.5313   90.0297 C   0  0  0  0  0  0  0  0  0  0  0  0
   70.4604   80.9203   90.0349 C   0  0  0  0  0  0  0  0  0  0  0  0
   69.3188   81.7107   89.7989 C   0  0  0  0  0  0  0  0  0  0  0  0
   68.2618   83.8348   89.3862 O   0  0  0  0  0  0  0  0  0  0  0  0
   67.2005   83.9567   90.3350 C   0  0  0  0  0  0  0  0  0  0  0  0
   68.7014   84.6928   94.3084 C   0  0  0  0  0  0  0  0  0  0  0  0
   68.0843   83.4689   94.0122 C   0  0  0  0  0  0  0  0  0  0  0  0
   67.6164   83.2182   92.7186 C   0  0  0  0  0  0  0  0  0  0  0  0
   67.7670   84.1847   91.7089 C   0  0  0  0  0  0  0  0  0  0  0  0
   68.3813   85.4100   92.0136 C   0  0  0  0  0  0  0  0  0  0  0  0
   68.8535   85.6587   93.3059 C   0  0  0  0  0  0  0  0  0  0  0  0
   69.5661   85.1701   96.7089 N   0  0  0  0  0  0  0  0  0  0  0  0
   69.1811   84.9558   95.6388 C   0  0  0  0  0  0  0  0  0  0  0  0
   67.5281   76.9766   91.0215 C   0  0  0  0  0  0  0  0  0  0  0  0
   67.0500   77.0895   92.3640 O   0  0  0  0  0  0  0  0  0  0  0  0
   67.0719   76.0704   93.3321 C   0  0  0  0  0  0  0  0  0  0  0  0
   65.9003   75.8245   94.0523 C   0  0  0  0  0  0  0  0  0  0  0  0
   65.8715   74.8496   95.0494 C   0  0  0  0  0  0  0  0  0  0  0  0
   67.0143   74.1004   95.3470 C   0  0  0  0  0  0  0  0  0  0  0  0
   66.9523   73.2084   96.4189 O   0  0  0  0  0  0  0  0  0  0  0  0
   68.1945   74.2947   94.5886 C   0  0  0  0  0  0  0  0  0  0  0  0
   68.2188   75.3003   93.6046 C   0  0  0  0  0  0  0  0  0  0  0  0
   66.1535   73.1064   96.8978 H   0  0  0  0  0  0  0  0  0  0  0  0
   69.3877   73.4393   94.7627 C   0  0  0  0  0  0  0  0  0  0  0  0
   69.5590   72.8073   95.8378 O   0  0  0  0  0  0  0  0  0  0  0  0
   70.3580   73.3715   93.7677 O   0  0  0  0  0  0  0  0  0  0  0  0
   70.2387   73.8387   92.9643 H   0  0  0  0  0  0  0  0  0  0  0  0
  1  2  2  0  0  0  0
  2  3  1  0  0  0  0
  3  4  2  0  0  0  0
  4  5  1  0  0  0  0
  5 23  1  0  0  0  0
  5  6  2  0  0  0  0
  6  1  1  0  0  0  0
  7  8  2  0  0  0  0
  8  9  1  0  0  0  0
  9 10  2  0  0  0  0
 10 11  1  0  0  0  0
 11  1  1  0  0  0  0
 11 12  2  0  0  0  0
 12  7  1  0  0  0  0
 13  7  1  0  0  0  0
 14 13  1  0  0  0  0
 15 16  2  0  0  0  0
 16 17  1  0  0  0  0
 17 18  2  0  0  0  0
 18 14  1  0  0  0  0
 18 19  1  0  0  0  0
 19 20  2  0  0  0  0
 20 15  1  0  0  0  0
 21 22  3  0  0  0  0
 22 15  1  0  0  0  0
 23 24  1  0  0  0  0
 24 25  1  0  0  0  0
 25 26  2  0  0  0  0
 26 27  1  0  0  0  0
 27 28  2  0  0  0  0
 28 29  1  0  0  0  0
 28 30  1  0  0  0  0
 29 32  1  0  0  0  0
 30 33  1  0  0  0  0
 30 31  2  0  0  0  0
 31 25  1  0  0  0  0
 33 34  2  0  0  0  0
 33 35  1  0  0  0  0
 35 36  1  0  0  0  0
M  END
>  <Activity>
23.7

>  <minimizedAffinity>
-8.82170

>  <RFScoreVS_v2>
6.01155846778

$$$$
HIPS7001
 OpenBabel05252300073D

 36 39  0  0  0  0  0  0  0  0999 V2000
   68.0115   73.2353   89.8779 C   0  0  0  0  0  0  0  0  0  0  0  0
   67.4265   72.3664   88.9414 C   0  0  0  0  0  0  0  0  0  0  0  0
   66.6172   72.8687   87.9214 C   0  0  0  0  0  0  0  0  0  0  0  0
   66.3711   74.2383   87.8274 C   0  0  0  0  0  0  0  0  0  0  0  0
   66.9538   75.1310   88.7488 C   0  0  0  0  0  0  0  0  0  0  0  0
   67.7787   74.6187   89.7641 C   0  0  0  0  0  0  0  0  0  0  0  0
   69.7673   72.9514   93.2373 C   0  0  0  0  0  0  0  0  0  0  0  0
   70.2577   71.6343   93.1691 C   0  0  0  0  0  0  0  0  0  0  0  0
   70.0296   70.8575   92.0318 C   0  0  0  0  0  0  0  0  0  0  0  0
   69.3164   71.3835   90.9533 C   0  0  0  0  0  0  0  0  0  0  0  0
   68.8197   72.6979   91.0013 C   0  0  0  0  0  0  0  0  0  0  0  0
   69.0630   73.4795   92.1475 C   0  0  0  0  0  0  0  0  0  0  0  0
   69.9548   73.7648   94.3661 O   0  0  0  0  0  0  0  0  0  0  0  0
   68.9213   74.1543   95.2724 C   0  0  0  0  0  0  0  0  0  0  0  0
   66.8348   77.5170   93.5634 C   0  0  0  0  0  0  0  0  0  0  0  0
   66.1081   76.4277   94.0650 C   0  0  0  0  0  0  0  0  0  0  0  0
   66.7808   75.3452   94.6403 C   0  0  0  0  0  0  0  0  0  0  0  0
   68.1840   75.3450   94.7255 C   0  0  0  0  0  0  0  0  0  0  0  0
   68.9058   76.4367   94.2167 C   0  0  0  0  0  0  0  0  0  0  0  0
   68.2327   77.5211   93.6459 C   0  0  0  0  0  0  0  0  0  0  0  0
   65.5928   79.5284   92.4911 N   0  0  0  0  0  0  0  0  0  0  0  0
   66.1466   78.6309   92.9678 C   0  0  0  0  0  0  0  0  0  0  0  0
   66.7111   76.6232   88.7053 C   0  0  0  0  0  0  0  0  0  0  0  0
   67.1540   77.3009   89.8834 O   0  0  0  0  0  0  0  0  0  0  0  0
   68.3174   78.0826   89.9930 C   0  0  0  0  0  0  0  0  0  0  0  0
   68.1788   79.4724   89.9647 C   0  0  0  0  0  0  0  0  0  0  0  0
   69.3001   80.2990   90.0345 C   0  0  0  0  0  0  0  0  0  0  0  0
   70.5836   79.7523   90.1340 C   0  0  0  0  0  0  0  0  0  0  0  0
   71.6720   80.6257   90.1024 O   0  0  0  0  0  0  0  0  0  0  0  0
   70.7399   78.3476   90.2229 C   0  0  0  0  0  0  0  0  0  0  0  0
   69.6034   77.5240   90.1231 C   0  0  0  0  0  0  0  0  0  0  0  0
   71.5296   81.5499   90.0431 H   0  0  0  0  0  0  0  0  0  0  0  0
   72.0556   77.7194   90.4686 C   0  0  0  0  0  0  0  0  0  0  0  0
   72.9544   77.7741   89.5890 O   0  0  0  0  0  0  0  0  0  0  0  0
   72.2917   77.0142   91.6446 O   0  0  0  0  0  0  0  0  0  0  0  0
   71.6282   76.9684   92.3046 H   0  0  0  0  0  0  0  0  0  0  0  0
  1  2  2  0  0  0  0
  2  3  1  0  0  0  0
  3  4  2  0  0  0  0
  4  5  1  0  0  0  0
  5 23  1  0  0  0  0
  5  6  2  0  0  0  0
  6  1  1  0  0  0  0
  7  8  2  0  0  0  0
  8  9  1  0  0  0  0
  9 10  2  0  0  0  0
 10 11  1  0  0  0  0
 11  1  1  0  0  0  0
 11 12  2  0  0  0  0
 12  7  1  0  0  0  0
 13  7  1  0  0  0  0
 14 13  1  0  0  0  0
 15 16  2  0  0  0  0
 16 17  1  0  0  0  0
 17 18  2  0  0  0  0
 18 14  1  0  0  0  0
 18 19  1  0  0  0  0
 19 20  2  0  0  0  0
 20 15  1  0  0  0  0
 21 22  3  0  0  0  0
 22 15  1  0  0  0  0
 23 24  1  0  0  0  0
 24 25  1  0  0  0  0
 25 26  2  0  0  0  0
 26 27  1  0  0  0  0
 27 28  2  0  0  0  0
 28 29  1  0  0  0  0
 28 30  1  0  0  0  0
 29 32  1  0  0  0  0
 30 33  1  0  0  0  0
 30 31  2  0  0  0  0
 31 25  1  0  0  0  0
 33 34  2  0  0  0  0
 33 35  1  0  0  0  0
 35 36  1  0  0  0  0
M  END
>  <Activity>
23.7

>  <minimizedAffinity>
-8.80658

>  <RFScoreVS_v2>
6.00470347857

$$$$
HIPS7784
 OpenBabel05252300073D

 38 41  0  0  0  0  0  0  0  0999 V2000
   67.1477   79.5398   88.1639 C   0  0  0  0  0  0  0  0  0  0  0  0
   67.3775   79.3187   89.5258 C   0  0  0  0  0  0  0  0  0  0  0  0
   67.6197   78.0614   89.9795 N   0  0  0  0  0  0  0  0  0  0  0  0
   67.6578   76.9964   89.1318 C   0  0  0  0  0  0  0  0  0  0  0  0
   67.4543   77.1980   87.8012 N   0  0  0  0  0  0  0  0  0  0  0  0
   67.2074   78.4376   87.3035 C   0  0  0  0  0  0  0  0  0  0  0  0
   67.9155   75.6308   89.6529 C   0  0  0  0  0  0  0  0  0  0  0  0
   67.2418   74.5198   89.1135 C   0  0  0  0  0  0  0  0  0  0  0  0
   67.4941   73.2348   89.5982 C   0  0  0  0  0  0  0  0  0  0  0  0
   68.4264   73.0378   90.6167 C   0  0  0  0  0  0  0  0  0  0  0  0
   69.1202   74.1303   91.1614 C   0  0  0  0  0  0  0  0  0  0  0  0
   68.8470   75.4225   90.6873 C   0  0  0  0  0  0  0  0  0  0  0  0
   70.1117   73.9523   92.1847 N   0  0  0  0  0  0  0  0  0  0  0  0
   71.0062   74.3387   92.0446 H   0  0  0  0  0  0  0  0  0  0  0  0
   69.8043   73.0863   93.6582 S   0  0  0  0  0  0  0  0  0  0  0  0
   71.0516   72.3747   94.1013 O   0  0  0  0  0  0  0  0  0  0  0  0
   68.7298   72.0650   93.4081 O   0  0  0  0  0  0  0  0  0  0  0  0
   69.2491   74.2005   94.9432 C   0  0  0  0  0  0  0  0  0  0  0  0
   68.2924   75.2196   94.3890 C   0  0  0  0  0  0  0  0  0  0  0  0
   66.9619   74.8633   94.1109 C   0  0  0  0  0  0  0  0  0  0  0  0
   66.0778   75.8024   93.5694 C   0  0  0  0  0  0  0  0  0  0  0  0
   66.5167   77.1010   93.2937 C   0  0  0  0  0  0  0  0  0  0  0  0
   67.8394   77.4629   93.5655 C   0  0  0  0  0  0  0  0  0  0  0  0
   68.7249   76.5282   94.1114 C   0  0  0  0  0  0  0  0  0  0  0  0
   66.8830   80.9257   87.6382 C   0  0  0  0  0  0  0  0  0  0  0  0
   67.4523   81.9156   88.4959 O   0  0  0  0  0  0  0  0  0  0  0  0
   71.0318   82.8916   89.0681 C   0  0  0  0  0  0  0  0  0  0  0  0
   69.7661   82.3014   89.2668 C   0  0  0  0  0  0  0  0  0  0  0  0
   68.7245   82.4936   88.3398 C   0  0  0  0  0  0  0  0  0  0  0  0
   68.9512   83.2912   87.2161 C   0  0  0  0  0  0  0  0  0  0  0  0
   70.1954   83.8848   87.0066 C   0  0  0  0  0  0  0  0  0  0  0  0
   71.2400   83.6904   87.9204 C   0  0  0  0  0  0  0  0  0  0  0  0
   72.4771   84.2897   87.6805 O   0  0  0  0  0  0  0  0  0  0  0  0
   72.6020   84.8168   86.9160 H   0  0  0  0  0  0  0  0  0  0  0  0
   71.8500   82.1167   91.1702 O   0  0  0  0  0  0  0  0  0  0  0  0
   72.1123   82.6609   90.0633 C   0  0  0  0  0  0  0  0  0  0  0  0
   73.4270   83.0371   89.7939 O   0  0  0  0  0  0  0  0  0  0  0  0
   73.6401   83.4427   88.9765 H   0  0  0  0  0  0  0  0  0  0  0  0
  1  2  2  0  0  0  0
  2  3  2  0  0  0  0
  3  4  2  0  0  0  0
  4  7  1  0  0  0  0
  4  5  2  0  0  0  0
  5  6  2  0  0  0  0
  6  1  1  0  0  0  0
  7  8  2  0  0  0  0
  8  9  1  0  0  0  0
  9 10  2  0  0  0  0
 10 11  1  0  0  0  0
 11 13  1  0  0  0  0
 11 12  2  0  0  0  0
 12  7  1  0  0  0  0
 13 15  1  0  0  0  0
 13 14  1  0  0  0  0
 15 16  2  0  0  0  0
 15 17  2  0  0  0  0
 15 18  1  0  0  0  0
 18 19  1  0  0  0  0
 19 20  2  0  0  0  0
 20 21  1  0  0  0  0
 21 22  2  0  0  0  0
 22 23  1  0  0  0  0
 23 24  2  0  0  0  0
 24 19  1  0  0  0  0
 25  1  1  0  0  0  0
 26 25  1  0  0  0  0
 27 28  2  0  0  0  0
 28 29  1  0  0  0  0
 29 26  1  0  0  0  0
 29 30  2  0  0  0  0
 30 31  1  0  0  0  0
 31 32  2  0  0  0  0
 32 33  1  0  0  0  0
 32 27  1  0  0  0  0
 33 34  1  0  0  0  0
 35 36  2  0  0  0  0
 36 37  1  0  0  0  0
 36 27  1  0  0  0  0
 37 38  1  0  0  0  0
M  END
>  <Activity>
29.3

>  <minimizedAffinity>
-9.60613

>  <RFScoreVS_v2>
5.9675657328

$$$$
HIPS7784
 OpenBabel05252300073D

 38 41  0  0  0  0  0  0  0  0999 V2000
   66.9275   79.3691   88.1842 C   0  0  0  0  0  0  0  0  0  0  0  0
   67.5713   78.4246   87.3780 C   0  0  0  0  0  0  0  0  0  0  0  0
   67.8416   77.1856   87.8651 N   0  0  0  0  0  0  0  0  0  0  0  0
   67.4873   76.8279   89.1303 C   0  0  0  0  0  0  0  0  0  0  0  0
   66.8438   77.7299   89.9208 N   0  0  0  0  0  0  0  0  0  0  0  0
   66.5546   78.9804   89.4759 C   0  0  0  0  0  0  0  0  0  0  0  0
   67.8017   75.4710   89.6428 C   0  0  0  0  0  0  0  0  0  0  0  0
   67.1599   74.3381   89.1102 C   0  0  0  0  0  0  0  0  0  0  0  0
   67.4654   73.0616   89.5866 C   0  0  0  0  0  0  0  0  0  0  0  0
   68.4199   72.8953   90.5900 C   0  0  0  0  0  0  0  0  0  0  0  0
   69.0825   74.0104   91.1276 C   0  0  0  0  0  0  0  0  0  0  0  0
   68.7559   75.2933   90.6622 C   0  0  0  0  0  0  0  0  0  0  0  0
   70.0954   73.8651   92.1349 N   0  0  0  0  0  0  0  0  0  0  0  0
   70.9893   74.2388   91.9599 H   0  0  0  0  0  0  0  0  0  0  0  0
   69.8152   73.0603   93.6480 S   0  0  0  0  0  0  0  0  0  0  0  0
   71.0648   72.3502   94.0871 O   0  0  0  0  0  0  0  0  0  0  0  0
   68.7226   72.0442   93.4645 O   0  0  0  0  0  0  0  0  0  0  0  0
   69.3062   74.2300   94.9024 C   0  0  0  0  0  0  0  0  0  0  0  0
   68.3058   75.2058   94.3474 C   0  0  0  0  0  0  0  0  0  0  0  0
   68.6927   76.5234   94.0494 C   0  0  0  0  0  0  0  0  0  0  0  0
   67.7570   77.4404   93.5591 C   0  0  0  0  0  0  0  0  0  0  0  0
   66.4271   77.0520   93.3704 C   0  0  0  0  0  0  0  0  0  0  0  0
   66.0336   75.7437   93.6664 C   0  0  0  0  0  0  0  0  0  0  0  0
   66.9673   74.8227   94.1522 C   0  0  0  0  0  0  0  0  0  0  0  0
   66.6130   80.7463   87.6631 C   0  0  0  0  0  0  0  0  0  0  0  0
   67.0834   81.7527   88.5606 O   0  0  0  0  0  0  0  0  0  0  0  0
   70.1657   83.7968   87.9172 C   0  0  0  0  0  0  0  0  0  0  0  0
   68.8389   83.3265   87.8269 C   0  0  0  0  0  0  0  0  0  0  0  0
   68.3992   82.2454   88.6137 C   0  0  0  0  0  0  0  0  0  0  0  0
   69.2984   81.6269   89.4850 C   0  0  0  0  0  0  0  0  0  0  0  0
   70.6144   82.0771   89.5838 C   0  0  0  0  0  0  0  0  0  0  0  0
   71.0568   83.1589   88.8103 C   0  0  0  0  0  0  0  0  0  0  0  0
   72.3768   83.5935   88.9364 O   0  0  0  0  0  0  0  0  0  0  0  0
   72.9573   83.1620   89.5321 H   0  0  0  0  0  0  0  0  0  0  0  0
   71.5380   85.6924   87.4564 O   0  0  0  0  0  0  0  0  0  0  0  0
   70.5944   84.9465   87.0774 C   0  0  0  0  0  0  0  0  0  0  0  0
   69.9677   85.2198   85.8628 O   0  0  0  0  0  0  0  0  0  0  0  0
   69.2649   84.6762   85.5655 H   0  0  0  0  0  0  0  0  0  0  0  0
  1  2  2  0  0  0  0
  2  3  2  0  0  0  0
  3  4  2  0  0  0  0
  4  7  1  0  0  0  0
  4  5  2  0  0  0  0
  5  6  2  0  0  0  0
  6  1  1  0  0  0  0
  7  8  2  0  0  0  0
  8  9  1  0  0  0  0
  9 10  2  0  0  0  0
 10 11  1  0  0  0  0
 11 13  1  0  0  0  0
 11 12  2  0  0  0  0
 12  7  1  0  0  0  0
 13 15  1  0  0  0  0
 13 14  1  0  0  0  0
 15 16  2  0  0  0  0
 15 17  2  0  0  0  0
 15 18  1  0  0  0  0
 18 19  1  0  0  0  0
 19 20  2  0  0  0  0
 20 21  1  0  0  0  0
 21 22  2  0  0  0  0
 22 23  1  0  0  0  0
 23 24  2  0  0  0  0
 24 19  1  0  0  0  0
 25  1  1  0  0  0  0
 26 25  1  0  0  0  0
 27 28  2  0  0  0  0
 28 29  1  0  0  0  0
 29 26  1  0  0  0  0
 29 30  2  0  0  0  0
 30 31  1  0  0  0  0
 31 32  2  0  0  0  0
 32 33  1  0  0  0  0
 32 27  1  0  0  0  0
 33 34  1  0  0  0  0
 35 36  2  0  0  0  0
 36 37  1  0  0  0  0
 36 27  1  0  0  0  0
 37 38  1  0  0  0  0
M  END
>  <Activity>
29.3

>  <minimizedAffinity>
-9.58942

>  <RFScoreVS_v2>
5.95614753582

$$$$
HIPS7784
 OpenBabel05252300073D

 38 41  0  0  0  0  0  0  0  0999 V2000
   68.9556   79.6617   90.1926 C   0  0  0  0  0  0  0  0  0  0  0  0
   69.9500   78.6787   90.2280 C   0  0  0  0  0  0  0  0  0  0  0  0
   69.6182   77.3698   90.0798 N   0  0  0  0  0  0  0  0  0  0  0  0
   68.3276   76.9830   89.8828 C   0  0  0  0  0  0  0  0  0  0  0  0
   67.3509   77.9293   89.8277 N   0  0  0  0  0  0  0  0  0  0  0  0
   67.6364   79.2495   89.9721 C   0  0  0  0  0  0  0  0  0  0  0  0
   67.9890   75.5457   89.7327 C   0  0  0  0  0  0  0  0  0  0  0  0
   67.0818   75.1234   88.7439 C   0  0  0  0  0  0  0  0  0  0  0  0
   66.7734   73.7695   88.5977 C   0  0  0  0  0  0  0  0  0  0  0  0
   67.3710   72.8187   89.4249 C   0  0  0  0  0  0  0  0  0  0  0  0
   68.2892   73.2156   90.4102 C   0  0  0  0  0  0  0  0  0  0  0  0
   68.5790   74.5795   90.5691 C   0  0  0  0  0  0  0  0  0  0  0  0
   68.9468   72.2551   91.2508 N   0  0  0  0  0  0  0  0  0  0  0  0
   69.2064   71.3891   90.8610 H   0  0  0  0  0  0  0  0  0  0  0  0
   69.3049   72.5516   92.9240 S   0  0  0  0  0  0  0  0  0  0  0  0
   70.4373   73.5332   93.0371 O   0  0  0  0  0  0  0  0  0  0  0  0
   69.7209   71.2594   93.5698 O   0  0  0  0  0  0  0  0  0  0  0  0
   67.8644   73.1821   93.7776 C   0  0  0  0  0  0  0  0  0  0  0  0
   67.7948   74.6804   93.6715 C   0  0  0  0  0  0  0  0  0  0  0  0
   68.8998   75.4677   94.0370 C   0  0  0  0  0  0  0  0  0  0  0  0
   68.8275   76.8628   93.9653 C   0  0  0  0  0  0  0  0  0  0  0  0
   67.6498   77.4828   93.5363 C   0  0  0  0  0  0  0  0  0  0  0  0
   66.5453   76.7068   93.1729 C   0  0  0  0  0  0  0  0  0  0  0  0
   66.6155   75.3115   93.2386 C   0  0  0  0  0  0  0  0  0  0  0  0
   69.3012   81.1189   90.3488 C   0  0  0  0  0  0  0  0  0  0  0  0
   70.6275   81.3822   89.8892 O   0  0  0  0  0  0  0  0  0  0  0  0
   70.7043   84.6125   87.9782 C   0  0  0  0  0  0  0  0  0  0  0  0
   70.2287   83.4044   88.5296 C   0  0  0  0  0  0  0  0  0  0  0  0
   71.0652   82.5882   89.3140 C   0  0  0  0  0  0  0  0  0  0  0  0
   72.3871   82.9807   89.5352 C   0  0  0  0  0  0  0  0  0  0  0  0
   72.8740   84.1702   88.9944 C   0  0  0  0  0  0  0  0  0  0  0  0
   72.0443   84.9925   88.2201 C   0  0  0  0  0  0  0  0  0  0  0  0
   72.5561   86.1815   87.6990 O   0  0  0  0  0  0  0  0  0  0  0  0
   73.4461   86.4218   87.8667 H   0  0  0  0  0  0  0  0  0  0  0  0
   69.1053   84.9365   86.2384 O   0  0  0  0  0  0  0  0  0  0  0  0
   69.7909   85.4547   87.1612 C   0  0  0  0  0  0  0  0  0  0  0  0
   69.6740   86.8232   87.3984 O   0  0  0  0  0  0  0  0  0  0  0  0
   70.1758   87.2252   88.0800 H   0  0  0  0  0  0  0  0  0  0  0  0
  1  2  2  0  0  0  0
  2  3  2  0  0  0  0
  3  4  2  0  0  0  0
  4  7  1  0  0  0  0
  4  5  2  0  0  0  0
  5  6  2  0  0  0  0
  6  1  1  0  0  0  0
  7  8  2  0  0  0  0
  8  9  1  0  0  0  0
  9 10  2  0  0  0  0
 10 11  1  0  0  0  0
 11 13  1  0  0  0  0
 11 12  2  0  0  0  0
 12  7  1  0  0  0  0
 13 15  1  0  0  0  0
 13 14  1  0  0  0  0
 15 16  2  0  0  0  0
 15 17  2  0  0  0  0
 15 18  1  0  0  0  0
 18 19  1  0  0  0  0
 19 20  2  0  0  0  0
 20 21  1  0  0  0  0
 21 22  2  0  0  0  0
 22 23  1  0  0  0  0
 23 24  2  0  0  0  0
 24 19  1  0  0  0  0
 25  1  1  0  0  0  0
 26 25  1  0  0  0  0
 27 28  2  0  0  0  0
 28 29  1  0  0  0  0
 29 26  1  0  0  0  0
 29 30  2  0  0  0  0
 30 31  1  0  0  0  0
 31 32  2  0  0  0  0
 32 33  1  0  0  0  0
 32 27  1  0  0  0  0
 33 34  1  0  0  0  0
 35 36  2  0  0  0  0
 36 37  1  0  0  0  0
 36 27  1  0  0  0  0
 37 38  1  0  0  0  0
M  END
>  <Activity>
29.3

>  <minimizedAffinity>
-9.40985

>  <RFScoreVS_v2>
5.95174781748

$$$$
HIPS7784
 OpenBabel05252300073D

 38 41  0  0  0  0  0  0  0  0999 V2000
   66.8665   79.2570   88.0928 C   0  0  0  0  0  0  0  0  0  0  0  0
   66.8627   79.0050   89.4686 C   0  0  0  0  0  0  0  0  0  0  0  0
   67.1578   77.7631   89.9335 N   0  0  0  0  0  0  0  0  0  0  0  0
   67.4737   76.7450   89.0862 C   0  0  0  0  0  0  0  0  0  0  0  0
   67.4995   76.9793   87.7457 N   0  0  0  0  0  0  0  0  0  0  0  0
   67.2100   78.2048   87.2364 C   0  0  0  0  0  0  0  0  0  0  0  0
   67.7836   75.3944   89.6180 C   0  0  0  0  0  0  0  0  0  0  0  0
   67.1197   74.2589   89.1191 C   0  0  0  0  0  0  0  0  0  0  0  0
   67.4209   72.9883   89.6134 C   0  0  0  0  0  0  0  0  0  0  0  0
   68.3929   72.8302   90.6012 C   0  0  0  0  0  0  0  0  0  0  0  0
   69.0776   73.9477   91.1049 C   0  0  0  0  0  0  0  0  0  0  0  0
   68.7556   75.2253   90.6219 C   0  0  0  0  0  0  0  0  0  0  0  0
   70.1083   73.8101   92.0951 N   0  0  0  0  0  0  0  0  0  0  0  0
   70.9955   74.1927   91.9062 H   0  0  0  0  0  0  0  0  0  0  0  0
   69.8607   72.9994   93.6108 S   0  0  0  0  0  0  0  0  0  0  0  0
   71.1314   72.3212   94.0399 O   0  0  0  0  0  0  0  0  0  0  0  0
   68.7926   71.9560   93.4365 O   0  0  0  0  0  0  0  0  0  0  0  0
   69.3327   74.1567   94.8688 C   0  0  0  0  0  0  0  0  0  0  0  0
   68.3161   75.1173   94.3170 C   0  0  0  0  0  0  0  0  0  0  0  0
   68.6841   76.4386   94.0110 C   0  0  0  0  0  0  0  0  0  0  0  0
   67.7335   77.3415   93.5237 C   0  0  0  0  0  0  0  0  0  0  0  0
   66.4073   76.9356   93.3458 C   0  0  0  0  0  0  0  0  0  0  0  0
   66.0325   75.6236   93.6497 C   0  0  0  0  0  0  0  0  0  0  0  0
   66.9812   74.7165   94.1326 C   0  0  0  0  0  0  0  0  0  0  0  0
   66.5482   80.6272   87.5557 C   0  0  0  0  0  0  0  0  0  0  0  0
   66.9409   81.6429   88.4797 O   0  0  0  0  0  0  0  0  0  0  0  0
   68.4909   85.0543   88.7087 C   0  0  0  0  0  0  0  0  0  0  0  0
   67.8729   83.8458   89.0925 C   0  0  0  0  0  0  0  0  0  0  0  0
   67.5482   82.8639   88.1376 C   0  0  0  0  0  0  0  0  0  0  0  0
   67.8340   83.1020   86.7915 C   0  0  0  0  0  0  0  0  0  0  0  0
   68.4414   84.2928   86.3949 C   0  0  0  0  0  0  0  0  0  0  0  0
   68.7760   85.2710   87.3411 C   0  0  0  0  0  0  0  0  0  0  0  0
   69.3911   86.4494   86.9164 O   0  0  0  0  0  0  0  0  0  0  0  0
   69.5746   86.5806   86.0069 H   0  0  0  0  0  0  0  0  0  0  0  0
   68.0690   86.2347   90.7378 O   0  0  0  0  0  0  0  0  0  0  0  0
   68.8277   86.0663   89.7447 C   0  0  0  0  0  0  0  0  0  0  0  0
   69.9810   86.8421   89.6405 O   0  0  0  0  0  0  0  0  0  0  0  0
   70.5563   86.7304   88.9094 H   0  0  0  0  0  0  0  0  0  0  0  0
  1  2  2  0  0  0  0
  2  3  2  0  0  0  0
  3  4  2  0  0  0  0
  4  7  1  0  0  0  0
  4  5  2  0  0  0  0
  5  6  2  0  0  0  0
  6  1  1  0  0  0  0
  7  8  2  0  0  0  0
  8  9  1  0  0  0  0
  9 10  2  0  0  0  0
 10 11  1  0  0  0  0
 11 13  1  0  0  0  0
 11 12  2  0  0  0  0
 12  7  1  0  0  0  0
 13 15  1  0  0  0  0
 13 14  1  0  0  0  0
 15 16  2  0  0  0  0
 15 17  2  0  0  0  0
 15 18  1  0  0  0  0
 18 19  1  0  0  0  0
 19 20  2  0  0  0  0
 20 21  1  0  0  0  0
 21 22  2  0  0  0  0
 22 23  1  0  0  0  0
 23 24  2  0  0  0  0
 24 19  1  0  0  0  0
 25  1  1  0  0  0  0
 26 25  1  0  0  0  0
 27 28  2  0  0  0  0
 28 29  1  0  0  0  0
 29 26  1  0  0  0  0
 29 30  2  0  0  0  0
 30 31  1  0  0  0  0
 31 32  2  0  0  0  0
 32 33  1  0  0  0  0
 32 27  1  0  0  0  0
 33 34  1  0  0  0  0
 35 36  2  0  0  0  0
 36 37  1  0  0  0  0
 36 27  1  0  0  0  0
 37 38  1  0  0  0  0
M  END
>  <Activity>
29.3

>  <minimizedAffinity>
-9.13733

>  <RFScoreVS_v2>
5.95342348506

$$$$
HIPS7784
 OpenBabel05252300073D

 38 41  0  0  0  0  0  0  0  0999 V2000
   67.2994   79.5245   88.5499 C   0  0  0  0  0  0  0  0  0  0  0  0
   67.3586   79.1642   89.9002 C   0  0  0  0  0  0  0  0  0  0  0  0
   67.5555   77.8665   90.2500 N   0  0  0  0  0  0  0  0  0  0  0  0
   67.7115   76.8941   89.3096 C   0  0  0  0  0  0  0  0  0  0  0  0
   67.6748   77.2317   87.9916 N   0  0  0  0  0  0  0  0  0  0  0  0
   67.4788   78.5163   87.5959 C   0  0  0  0  0  0  0  0  0  0  0  0
   67.9164   75.4816   89.7168 C   0  0  0  0  0  0  0  0  0  0  0  0
   67.2040   74.4445   89.0876 C   0  0  0  0  0  0  0  0  0  0  0  0
   67.4067   73.1156   89.4651 C   0  0  0  0  0  0  0  0  0  0  0  0
   68.3274   72.8011   90.4645 C   0  0  0  0  0  0  0  0  0  0  0  0
   69.0592   73.8185   91.0975 C   0  0  0  0  0  0  0  0  0  0  0  0
   68.8358   75.1546   90.7312 C   0  0  0  0  0  0  0  0  0  0  0  0
   70.0397   73.5202   92.1033 N   0  0  0  0  0  0  0  0  0  0  0  0
   70.9870   73.4789   91.8384 H   0  0  0  0  0  0  0  0  0  0  0  0
   69.6302   73.2292   93.7656 S   0  0  0  0  0  0  0  0  0  0  0  0
   68.1779   72.8589   93.8758 O   0  0  0  0  0  0  0  0  0  0  0  0
   69.8680   74.4871   94.5535 O   0  0  0  0  0  0  0  0  0  0  0  0
   70.6454   71.9238   94.4484 C   0  0  0  0  0  0  0  0  0  0  0  0
   71.0211   70.9289   93.3853 C   0  0  0  0  0  0  0  0  0  0  0  0
   70.0229   70.2283   92.6873 C   0  0  0  0  0  0  0  0  0  0  0  0
   70.3709   69.2822   91.7175 C   0  0  0  0  0  0  0  0  0  0  0  0
   71.7171   69.0223   91.4428 C   0  0  0  0  0  0  0  0  0  0  0  0
   72.7163   69.7135   92.1342 C   0  0  0  0  0  0  0  0  0  0  0  0
   72.3722   70.6636   93.1011 C   0  0  0  0  0  0  0  0  0  0  0  0
   67.0879   80.9576   88.1394 C   0  0  0  0  0  0  0  0  0  0  0  0
   67.6616   81.8530   89.0926 O   0  0  0  0  0  0  0  0  0  0  0  0
   70.6680   83.9064   88.1774 C   0  0  0  0  0  0  0  0  0  0  0  0
   69.3454   83.4163   88.1882 C   0  0  0  0  0  0  0  0  0  0  0  0
   68.9707   82.3637   89.0444 C   0  0  0  0  0  0  0  0  0  0  0  0
   69.9305   81.7936   89.8835 C   0  0  0  0  0  0  0  0  0  0  0  0
   71.2432   82.2639   89.8825 C   0  0  0  0  0  0  0  0  0  0  0  0
   71.6213   83.3177   89.0395 C   0  0  0  0  0  0  0  0  0  0  0  0
   72.9399   83.7736   89.0662 O   0  0  0  0  0  0  0  0  0  0  0  0
   73.5620   83.3747   89.6422 H   0  0  0  0  0  0  0  0  0  0  0  0
   70.4371   85.1572   86.1598 O   0  0  0  0  0  0  0  0  0  0  0  0
   71.0275   85.0252   87.2662 C   0  0  0  0  0  0  0  0  0  0  0  0
   72.0156   85.9443   87.6150 O   0  0  0  0  0  0  0  0  0  0  0  0
   72.4646   85.8615   88.4332 H   0  0  0  0  0  0  0  0  0  0  0  0
  1  2  2  0  0  0  0
  2  3  2  0  0  0  0
  3  4  2  0  0  0  0
  4  7  1  0  0  0  0
  4  5  2  0  0  0  0
  5  6  2  0  0  0  0
  6  1  1  0  0  0  0
  7  8  2  0  0  0  0
  8  9  1  0  0  0  0
  9 10  2  0  0  0  0
 10 11  1  0  0  0  0
 11 13  1  0  0  0  0
 11 12  2  0  0  0  0
 12  7  1  0  0  0  0
 13 15  1  0  0  0  0
 13 14  1  0  0  0  0
 15 16  2  0  0  0  0
 15 17  2  0  0  0  0
 15 18  1  0  0  0  0
 18 19  1  0  0  0  0
 19 20  2  0  0  0  0
 20 21  1  0  0  0  0
 21 22  2  0  0  0  0
 22 23  1  0  0  0  0
 23 24  2  0  0  0  0
 24 19  1  0  0  0  0
 25  1  1  0  0  0  0
 26 25  1  0  0  0  0
 27 28  2  0  0  0  0
 28 29  1  0  0  0  0
 29 26  1  0  0  0  0
 29 30  2  0  0  0  0
 30 31  1  0  0  0  0
 31 32  2  0  0  0  0
 32 33  1  0  0  0  0
 32 27  1  0  0  0  0
 33 34  1  0  0  0  0
 35 36  2  0  0  0  0
 36 37  1  0  0  0  0
 36 27  1  0  0  0  0
 37 38  1  0  0  0  0
M  END
>  <Activity>
29.3

>  <minimizedAffinity>
-9.05670

>  <RFScoreVS_v2>
5.96406381566

$$$$
HIPS7784
 OpenBabel05252300073D

 38 41  0  0  0  0  0  0  0  0999 V2000
   66.9612   80.1380   91.4928 C   0  0  0  0  0  0  0  0  0  0  0  0
   66.9618   78.8912   90.8588 C   0  0  0  0  0  0  0  0  0  0  0  0
   66.8183   77.7558   91.5906 N   0  0  0  0  0  0  0  0  0  0  0  0
   66.6594   77.7984   92.9423 C   0  0  0  0  0  0  0  0  0  0  0  0
   66.6384   79.0050   93.5717 N   0  0  0  0  0  0  0  0  0  0  0  0
   66.7796   80.1657   92.8802 C   0  0  0  0  0  0  0  0  0  0  0  0
   66.5136   76.5434   93.7212 C   0  0  0  0  0  0  0  0  0  0  0  0
   65.7073   76.5053   94.8733 C   0  0  0  0  0  0  0  0  0  0  0  0
   65.5632   75.3206   95.5980 C   0  0  0  0  0  0  0  0  0  0  0  0
   66.2098   74.1575   95.1802 C   0  0  0  0  0  0  0  0  0  0  0  0
   67.0095   74.1686   94.0261 C   0  0  0  0  0  0  0  0  0  0  0  0
   67.1701   75.3669   93.3136 C   0  0  0  0  0  0  0  0  0  0  0  0
   67.6567   72.9775   93.5527 N   0  0  0  0  0  0  0  0  0  0  0  0
   67.0964   72.2262   93.2514 H   0  0  0  0  0  0  0  0  0  0  0  0
   69.3832   72.8022   93.4876 S   0  0  0  0  0  0  0  0  0  0  0  0
   69.7510   71.3466   93.5554 O   0  0  0  0  0  0  0  0  0  0  0  0
   69.9896   73.5080   94.6683 O   0  0  0  0  0  0  0  0  0  0  0  0
   70.0370   73.5267   91.9881 C   0  0  0  0  0  0  0  0  0  0  0  0
   68.9685   73.6284   90.9350 C   0  0  0  0  0  0  0  0  0  0  0  0
   68.3847   72.4653   90.4047 C   0  0  0  0  0  0  0  0  0  0  0  0
   67.4104   72.5569   89.4052 C   0  0  0  0  0  0  0  0  0  0  0  0
   67.0174   73.8087   88.9217 C   0  0  0  0  0  0  0  0  0  0  0  0
   67.5947   74.9704   89.4425 C   0  0  0  0  0  0  0  0  0  0  0  0
   68.5656   74.8831   90.4453 C   0  0  0  0  0  0  0  0  0  0  0  0
   67.1128   81.4096   90.7008 C   0  0  0  0  0  0  0  0  0  0  0  0
   68.0620   81.2455   89.6464 O   0  0  0  0  0  0  0  0  0  0  0  0
   71.0362   83.4709   89.1043 C   0  0  0  0  0  0  0  0  0  0  0  0
   69.7089   82.9943   89.0754 C   0  0  0  0  0  0  0  0  0  0  0  0
   69.3736   81.7519   89.6458 C   0  0  0  0  0  0  0  0  0  0  0  0
   70.3768   80.9803   90.2361 C   0  0  0  0  0  0  0  0  0  0  0  0
   71.6945   81.4352   90.2699 C   0  0  0  0  0  0  0  0  0  0  0  0
   72.0342   82.6753   89.7123 C   0  0  0  0  0  0  0  0  0  0  0  0
   73.3594   83.1090   89.7685 O   0  0  0  0  0  0  0  0  0  0  0  0
   74.0112   82.5721   90.1744 H   0  0  0  0  0  0  0  0  0  0  0  0
   72.4400   84.9622   87.8818 O   0  0  0  0  0  0  0  0  0  0  0  0
   71.3539   84.7917   88.4996 C   0  0  0  0  0  0  0  0  0  0  0  0
   70.4634   85.8592   88.6012 O   0  0  0  0  0  0  0  0  0  0  0  0
   69.6518   85.7505   89.0566 H   0  0  0  0  0  0  0  0  0  0  0  0
  1  2  2  0  0  0  0
  2  3  2  0  0  0  0
  3  4  2  0  0  0  0
  4  7  1  0  0  0  0
  4  5  2  0  0  0  0
  5  6  2  0  0  0  0
  6  1  1  0  0  0  0
  7  8  2  0  0  0  0
  8  9  1  0  0  0  0
  9 10  2  0  0  0  0
 10 11  1  0  0  0  0
 11 13  1  0  0  0  0
 11 12  2  0  0  0  0
 12  7  1  0  0  0  0
 13 15  1  0  0  0  0
 13 14  1  0  0  0  0
 15 16  2  0  0  0  0
 15 17  2  0  0  0  0
 15 18  1  0  0  0  0
 18 19  1  0  0  0  0
 19 20  2  0  0  0  0
 20 21  1  0  0  0  0
 21 22  2  0  0  0  0
 22 23  1  0  0  0  0
 23 24  2  0  0  0  0
 24 19  1  0  0  0  0
 25  1  1  0  0  0  0
 26 25  1  0  0  0  0
 27 28  2  0  0  0  0
 28 29  1  0  0  0  0
 29 26  1  0  0  0  0
 29 30  2  0  0  0  0
 30 31  1  0  0  0  0
 31 32  2  0  0  0  0
 32 33  1  0  0  0  0
 32 27  1  0  0  0  0
 33 34  1  0  0  0  0
 35 36  2  0  0  0  0
 36 37  1  0  0  0  0
 36 27  1  0  0  0  0
 37 38  1  0  0  0  0
M  END
>  <Activity>
29.3

>  <minimizedAffinity>
-9.03533

>  <RFScoreVS_v2>
5.95

$$$$
HIPS7784
 OpenBabel05252300073D

 38 41  0  0  0  0  0  0  0  0999 V2000
   66.3088   79.8948   91.6651 C   0  0  0  0  0  0  0  0  0  0  0  0
   66.9480   78.7385   91.2061 C   0  0  0  0  0  0  0  0  0  0  0  0
   66.9526   77.6150   91.9697 N   0  0  0  0  0  0  0  0  0  0  0  0
   66.3329   77.5786   93.1817 C   0  0  0  0  0  0  0  0  0  0  0  0
   65.6909   78.6902   93.6340 N   0  0  0  0  0  0  0  0  0  0  0  0
   65.6620   79.8359   92.9048 C   0  0  0  0  0  0  0  0  0  0  0  0
   66.3595   76.3417   94.0018 C   0  0  0  0  0  0  0  0  0  0  0  0
   65.6349   76.2648   95.2051 C   0  0  0  0  0  0  0  0  0  0  0  0
   65.6529   75.0963   95.9691 C   0  0  0  0  0  0  0  0  0  0  0  0
   66.3822   73.9872   95.5409 C   0  0  0  0  0  0  0  0  0  0  0  0
   67.1027   74.0365   94.3367 C   0  0  0  0  0  0  0  0  0  0  0  0
   67.1006   75.2205   93.5834 C   0  0  0  0  0  0  0  0  0  0  0  0
   67.8319   72.8978   93.8538 N   0  0  0  0  0  0  0  0  0  0  0  0
   67.3254   72.1225   93.5198 H   0  0  0  0  0  0  0  0  0  0  0  0
   69.5669   72.8263   93.8320 S   0  0  0  0  0  0  0  0  0  0  0  0
   70.0414   71.6906   94.6944 O   0  0  0  0  0  0  0  0  0  0  0  0
   70.1147   74.1125   94.3846 O   0  0  0  0  0  0  0  0  0  0  0  0
   70.1709   72.6162   92.1611 C   0  0  0  0  0  0  0  0  0  0  0  0
   69.2404   73.2624   91.1724 C   0  0  0  0  0  0  0  0  0  0  0  0
   69.2372   74.6584   91.0117 C   0  0  0  0  0  0  0  0  0  0  0  0
   68.3530   75.2637   90.1126 C   0  0  0  0  0  0  0  0  0  0  0  0
   67.4601   74.4817   89.3733 C   0  0  0  0  0  0  0  0  0  0  0  0
   67.4555   73.0925   89.5288 C   0  0  0  0  0  0  0  0  0  0  0  0
   68.3414   72.4832   90.4232 C   0  0  0  0  0  0  0  0  0  0  0  0
   66.2863   81.1495   90.8329 C   0  0  0  0  0  0  0  0  0  0  0  0
   67.5781   81.4270   90.2907 O   0  0  0  0  0  0  0  0  0  0  0  0
   68.5762   84.4406   88.2870 C   0  0  0  0  0  0  0  0  0  0  0  0
   68.3163   83.6060   89.3941 C   0  0  0  0  0  0  0  0  0  0  0  0
   67.8403   82.2935   89.2149 C   0  0  0  0  0  0  0  0  0  0  0  0
   67.6129   81.8221   87.9201 C   0  0  0  0  0  0  0  0  0  0  0  0
   67.8613   82.6355   86.8151 C   0  0  0  0  0  0  0  0  0  0  0  0
   68.3441   83.9401   86.9854 C   0  0  0  0  0  0  0  0  0  0  0  0
   68.5920   84.7283   85.8609 O   0  0  0  0  0  0  0  0  0  0  0  0
   68.4340   84.3846   85.0036 H   0  0  0  0  0  0  0  0  0  0  0  0
   69.4544   86.5270   87.5357 O   0  0  0  0  0  0  0  0  0  0  0  0
   69.0865   85.8189   88.5122 C   0  0  0  0  0  0  0  0  0  0  0  0
   69.1661   86.3526   89.7974 O   0  0  0  0  0  0  0  0  0  0  0  0
   68.8970   85.8407   90.5347 H   0  0  0  0  0  0  0  0  0  0  0  0
  1  2  2  0  0  0  0
  2  3  2  0  0  0  0
  3  4  2  0  0  0  0
  4  7  1  0  0  0  0
  4  5  2  0  0  0  0
  5  6  2  0  0  0  0
  6  1  1  0  0  0  0
  7  8  2  0  0  0  0
  8  9  1  0  0  0  0
  9 10  2  0  0  0  0
 10 11  1  0  0  0  0
 11 13  1  0  0  0  0
 11 12  2  0  0  0  0
 12  7  1  0  0  0  0
 13 15  1  0  0  0  0
 13 14  1  0  0  0  0
 15 16  2  0  0  0  0
 15 17  2  0  0  0  0
 15 18  1  0  0  0  0
 18 19  1  0  0  0  0
 19 20  2  0  0  0  0
 20 21  1  0  0  0  0
 21 22  2  0  0  0  0
 22 23  1  0  0  0  0
 23 24  2  0  0  0  0
 24 19  1  0  0  0  0
 25  1  1  0  0  0  0
 26 25  1  0  0  0  0
 27 28  2  0  0  0  0
 28 29  1  0  0  0  0
 29 26  1  0  0  0  0
 29 30  2  0  0  0  0
 30 31  1  0  0  0  0
 31 32  2  0  0  0  0
 32 33  1  0  0  0  0
 32 27  1  0  0  0  0
 33 34  1  0  0  0  0
 35 36  2  0  0  0  0
 36 37  1  0  0  0  0
 36 27  1  0  0  0  0
 37 38  1  0  0  0  0
M  END
>  <Activity>
29.3

>  <minimizedAffinity>
-8.79820

>  <RFScoreVS_v2>
5.9599495564

$$$$
HIPS7784
 OpenBabel05252300073D

 38 41  0  0  0  0  0  0  0  0999 V2000
   68.2136   76.2474   90.1681 C   0  0  0  0  0  0  0  0  0  0  0  0
   69.0588   76.7391   91.1682 C   0  0  0  0  0  0  0  0  0  0  0  0
   69.5710   77.9934   91.0700 N   0  0  0  0  0  0  0  0  0  0  0  0
   69.2707   78.8018   90.0162 C   0  0  0  0  0  0  0  0  0  0  0  0
   68.4351   78.3443   89.0442 N   0  0  0  0  0  0  0  0  0  0  0  0
   67.9009   77.0966   89.1005 C   0  0  0  0  0  0  0  0  0  0  0  0
   69.8502   80.1654   89.9268 C   0  0  0  0  0  0  0  0  0  0  0  0
   71.2023   80.3908   90.2430 C   0  0  0  0  0  0  0  0  0  0  0  0
   71.7477   81.6726   90.1476 C   0  0  0  0  0  0  0  0  0  0  0  0
   70.9588   82.7430   89.7265 C   0  0  0  0  0  0  0  0  0  0  0  0
   69.6101   82.5394   89.3932 C   0  0  0  0  0  0  0  0  0  0  0  0
   69.0599   81.2540   89.5125 C   0  0  0  0  0  0  0  0  0  0  0  0
   68.7850   83.6158   88.9218 N   0  0  0  0  0  0  0  0  0  0  0  0
   68.4725   84.2873   89.5705 H   0  0  0  0  0  0  0  0  0  0  0  0
   68.3133   83.7870   87.2593 S   0  0  0  0  0  0  0  0  0  0  0  0
   67.0064   84.5241   87.1732 O   0  0  0  0  0  0  0  0  0  0  0  0
   68.1359   82.4198   86.6599 O   0  0  0  0  0  0  0  0  0  0  0  0
   69.5686   84.6618   86.3320 C   0  0  0  0  0  0  0  0  0  0  0  0
   70.2182   85.7197   87.1803 C   0  0  0  0  0  0  0  0  0  0  0  0
   71.5876   85.6399   87.4854 C   0  0  0  0  0  0  0  0  0  0  0  0
   72.1878   86.6080   88.2973 C   0  0  0  0  0  0  0  0  0  0  0  0
   71.4248   87.6581   88.8173 C   0  0  0  0  0  0  0  0  0  0  0  0
   70.0615   87.7436   88.5202 C   0  0  0  0  0  0  0  0  0  0  0  0
   69.4589   86.7803   87.7049 C   0  0  0  0  0  0  0  0  0  0  0  0
   67.6299   74.8624   90.2593 C   0  0  0  0  0  0  0  0  0  0  0  0
   68.6561   73.8704   90.2102 O   0  0  0  0  0  0  0  0  0  0  0  0
   69.6139   72.7602   93.6660 C   0  0  0  0  0  0  0  0  0  0  0  0
   69.1956   73.5878   92.6031 C   0  0  0  0  0  0  0  0  0  0  0  0
   69.0784   73.0817   91.2948 C   0  0  0  0  0  0  0  0  0  0  0  0
   69.3942   71.7433   91.0514 C   0  0  0  0  0  0  0  0  0  0  0  0
   69.8126   70.9127   92.0902 C   0  0  0  0  0  0  0  0  0  0  0  0
   69.9227   71.4071   93.3969 C   0  0  0  0  0  0  0  0  0  0  0  0
   70.3355   70.5506   94.4183 O   0  0  0  0  0  0  0  0  0  0  0  0
   70.5372   69.6559   94.2266 H   0  0  0  0  0  0  0  0  0  0  0  0
   70.0882   74.5195   95.2051 O   0  0  0  0  0  0  0  0  0  0  0  0
   69.7187   73.3255   95.0373 C   0  0  0  0  0  0  0  0  0  0  0  0
   69.4113   72.5533   96.1562 O   0  0  0  0  0  0  0  0  0  0  0  0
   69.1351   71.6642   96.0504 H   0  0  0  0  0  0  0  0  0  0  0  0
  1  2  2  0  0  0  0
  2  3  2  0  0  0  0
  3  4  2  0  0  0  0
  4  7  1  0  0  0  0
  4  5  2  0  0  0  0
  5  6  2  0  0  0  0
  6  1  1  0  0  0  0
  7  8  2  0  0  0  0
  8  9  1  0  0  0  0
  9 10  2  0  0  0  0
 10 11  1  0  0  0  0
 11 13  1  0  0  0  0
 11 12  2  0  0  0  0
 12  7  1  0  0  0  0
 13 15  1  0  0  0  0
 13 14  1  0  0  0  0
 15 16  2  0  0  0  0
 15 17  2  0  0  0  0
 15 18  1  0  0  0  0
 18 19  1  0  0  0  0
 19 20  2  0  0  0  0
 20 21  1  0  0  0  0
 21 22  2  0  0  0  0
 22 23  1  0  0  0  0
 23 24  2  0  0  0  0
 24 19  1  0  0  0  0
 25  1  1  0  0  0  0
 26 25  1  0  0  0  0
 27 28  2  0  0  0  0
 28 29  1  0  0  0  0
 29 26  1  0  0  0  0
 29 30  2  0  0  0  0
 30 31  1  0  0  0  0
 31 32  2  0  0  0  0
 32 33  1  0  0  0  0
 32 27  1  0  0  0  0
 33 34  1  0  0  0  0
 35 36  2  0  0  0  0
 36 37  1  0  0  0  0
 36 27  1  0  0  0  0
 37 38  1  0  0  0  0
M  END
>  <Activity>
29.3

>  <minimizedAffinity>
-8.78374

>  <RFScoreVS_v2>
5.96005387616

$$$$
HIPS7784
 OpenBabel05252300073D

 38 41  0  0  0  0  0  0  0  0999 V2000
   66.6042   78.1074   89.3802 C   0  0  0  0  0  0  0  0  0  0  0  0
   66.3847   78.4705   90.7130 C   0  0  0  0  0  0  0  0  0  0  0  0
   66.6250   79.7442   91.1195 N   0  0  0  0  0  0  0  0  0  0  0  0
   67.0684   80.6944   90.2507 C   0  0  0  0  0  0  0  0  0  0  0  0
   67.2693   80.3611   88.9465 N   0  0  0  0  0  0  0  0  0  0  0  0
   67.0434   79.0995   88.4962 C   0  0  0  0  0  0  0  0  0  0  0  0
   67.3324   82.0772   90.7209 C   0  0  0  0  0  0  0  0  0  0  0  0
   67.0822   82.4390   92.0571 C   0  0  0  0  0  0  0  0  0  0  0  0
   67.3417   83.7377   92.4996 C   0  0  0  0  0  0  0  0  0  0  0  0
   67.8629   84.6886   91.6224 C   0  0  0  0  0  0  0  0  0  0  0  0
   68.1327   84.3466   90.2875 C   0  0  0  0  0  0  0  0  0  0  0  0
   67.8489   83.0468   89.8410 C   0  0  0  0  0  0  0  0  0  0  0  0
   68.7035   85.2948   89.3728 N   0  0  0  0  0  0  0  0  0  0  0  0
   69.0946   86.1218   89.7364 H   0  0  0  0  0  0  0  0  0  0  0  0
   68.7353   85.0488   87.6540 S   0  0  0  0  0  0  0  0  0  0  0  0
   69.2806   86.2728   86.9735 O   0  0  0  0  0  0  0  0  0  0  0  0
   67.3320   84.8128   87.1694 O   0  0  0  0  0  0  0  0  0  0  0  0
   69.7337   83.6239   87.2369 C   0  0  0  0  0  0  0  0  0  0  0  0
   70.9350   83.5325   88.1366 C   0  0  0  0  0  0  0  0  0  0  0  0
   72.0080   84.4259   87.9772 C   0  0  0  0  0  0  0  0  0  0  0  0
   73.1384   84.3249   88.7949 C   0  0  0  0  0  0  0  0  0  0  0  0
   73.2102   83.3271   89.7719 C   0  0  0  0  0  0  0  0  0  0  0  0
   72.1480   82.4331   89.9355 C   0  0  0  0  0  0  0  0  0  0  0  0
   71.0140   82.5340   89.1231 C   0  0  0  0  0  0  0  0  0  0  0  0
   66.3390   76.7030   88.9065 C   0  0  0  0  0  0  0  0  0  0  0  0
   67.5540   75.9592   88.8051 O   0  0  0  0  0  0  0  0  0  0  0  0
   69.6894   75.5536   91.8658 C   0  0  0  0  0  0  0  0  0  0  0  0
   69.0096   76.1609   90.7893 C   0  0  0  0  0  0  0  0  0  0  0  0
   68.2536   75.3919   89.8847 C   0  0  0  0  0  0  0  0  0  0  0  0
   68.1902   74.0072   90.0548 C   0  0  0  0  0  0  0  0  0  0  0  0
   68.8592   73.3908   91.1116 C   0  0  0  0  0  0  0  0  0  0  0  0
   69.6063   74.1510   92.0216 C   0  0  0  0  0  0  0  0  0  0  0  0
   70.2581   73.5081   93.0747 O   0  0  0  0  0  0  0  0  0  0  0  0
   70.1950   72.5777   93.1667 H   0  0  0  0  0  0  0  0  0  0  0  0
   70.0930   76.5338   94.0025 O   0  0  0  0  0  0  0  0  0  0  0  0
   70.4722   76.3971   92.8076 C   0  0  0  0  0  0  0  0  0  0  0  0
   71.6329   77.0473   92.3920 O   0  0  0  0  0  0  0  0  0  0  0  0
   71.9294   76.9570   91.5078 H   0  0  0  0  0  0  0  0  0  0  0  0
  1  2  2  0  0  0  0
  2  3  2  0  0  0  0
  3  4  2  0  0  0  0
  4  7  1  0  0  0  0
  4  5  2  0  0  0  0
  5  6  2  0  0  0  0
  6  1  1  0  0  0  0
  7  8  2  0  0  0  0
  8  9  1  0  0  0  0
  9 10  2  0  0  0  0
 10 11  1  0  0  0  0
 11 13  1  0  0  0  0
 11 12  2  0  0  0  0
 12  7  1  0  0  0  0
 13 15  1  0  0  0  0
 13 14  1  0  0  0  0
 15 16  2  0  0  0  0
 15 17  2  0  0  0  0
 15 18  1  0  0  0  0
 18 19  1  0  0  0  0
 19 20  2  0  0  0  0
 20 21  1  0  0  0  0
 21 22  2  0  0  0  0
 22 23  1  0  0  0  0
 23 24  2  0  0  0  0
 24 19  1  0  0  0  0
 25  1  1  0  0  0  0
 26 25  1  0  0  0  0
 27 28  2  0  0  0  0
 28 29  1  0  0  0  0
 29 26  1  0  0  0  0
 29 30  2  0  0  0  0
 30 31  1  0  0  0  0
 31 32  2  0  0  0  0
 32 33  1  0  0  0  0
 32 27  1  0  0  0  0
 33 34  1  0  0  0  0
 35 36  2  0  0  0  0
 36 37  1  0  0  0  0
 36 27  1  0  0  0  0
 37 38  1  0  0  0  0
M  END
>  <Activity>
29.3

>  <minimizedAffinity>
-8.67382

>  <RFScoreVS_v2>
5.9786036755

$$$$
HIPS7784
 OpenBabel05252300073D

 38 41  0  0  0  0  0  0  0  0999 V2000
   67.2653   80.2882   90.2081 C   0  0  0  0  0  0  0  0  0  0  0  0
   66.2621   79.3467   89.9558 C   0  0  0  0  0  0  0  0  0  0  0  0
   66.5404   78.0192   90.0317 N   0  0  0  0  0  0  0  0  0  0  0  0
   67.7833   77.5728   90.3632 C   0  0  0  0  0  0  0  0  0  0  0  0
   68.7654   78.4767   90.6295 N   0  0  0  0  0  0  0  0  0  0  0  0
   68.5327   79.8134   90.5644 C   0  0  0  0  0  0  0  0  0  0  0  0
   68.0651   76.1171   90.4308 C   0  0  0  0  0  0  0  0  0  0  0  0
   67.4522   75.2268   89.5304 C   0  0  0  0  0  0  0  0  0  0  0  0
   67.7274   73.8591   89.5891 C   0  0  0  0  0  0  0  0  0  0  0  0
   68.6228   73.3619   90.5360 C   0  0  0  0  0  0  0  0  0  0  0  0
   69.2561   74.2333   91.4365 C   0  0  0  0  0  0  0  0  0  0  0  0
   68.9594   75.6041   91.3891 C   0  0  0  0  0  0  0  0  0  0  0  0
   70.2097   73.7537   92.3969 N   0  0  0  0  0  0  0  0  0  0  0  0
   71.1611   73.7334   92.1447 H   0  0  0  0  0  0  0  0  0  0  0  0
   69.7608   73.2078   93.9831 S   0  0  0  0  0  0  0  0  0  0  0  0
   68.2966   72.8703   94.0109 O   0  0  0  0  0  0  0  0  0  0  0  0
   70.0197   74.3119   94.9699 O   0  0  0  0  0  0  0  0  0  0  0  0
   70.7251   71.7771   94.4566 C   0  0  0  0  0  0  0  0  0  0  0  0
   70.9387   70.8648   93.2806 C   0  0  0  0  0  0  0  0  0  0  0  0
   69.8469   70.4500   92.4993 C   0  0  0  0  0  0  0  0  0  0  0  0
   70.0400   69.5793   91.4216 C   0  0  0  0  0  0  0  0  0  0  0  0
   71.3222   69.1097   91.1207 C   0  0  0  0  0  0  0  0  0  0  0  0
   72.4134   69.5159   91.8943 C   0  0  0  0  0  0  0  0  0  0  0  0
   72.2250   70.3902   92.9695 C   0  0  0  0  0  0  0  0  0  0  0  0
   66.9779   81.7644   90.1354 C   0  0  0  0  0  0  0  0  0  0  0  0
   68.1858   82.5243   90.1914 O   0  0  0  0  0  0  0  0  0  0  0  0
   70.5799   84.4378   88.0235 C   0  0  0  0  0  0  0  0  0  0  0  0
   70.0687   83.7041   89.1145 C   0  0  0  0  0  0  0  0  0  0  0  0
   68.7312   83.2656   89.1284 C   0  0  0  0  0  0  0  0  0  0  0  0
   67.9013   83.5756   88.0488 C   0  0  0  0  0  0  0  0  0  0  0  0
   68.3900   84.3031   86.9643 C   0  0  0  0  0  0  0  0  0  0  0  0
   69.7230   84.7350   86.9391 C   0  0  0  0  0  0  0  0  0  0  0  0
   70.1869   85.4537   85.8366 O   0  0  0  0  0  0  0  0  0  0  0  0
   69.6086   85.6441   85.1244 H   0  0  0  0  0  0  0  0  0  0  0  0
   72.9164   84.0574   88.3146 O   0  0  0  0  0  0  0  0  0  0  0  0
   72.0000   84.8783   88.0378 C   0  0  0  0  0  0  0  0  0  0  0  0
   72.3443   86.1970   87.7461 O   0  0  0  0  0  0  0  0  0  0  0  0
   71.6765   86.8205   87.5382 H   0  0  0  0  0  0  0  0  0  0  0  0
  1  2  2  0  0  0  0
  2  3  2  0  0  0  0
  3  4  2  0  0  0  0
  4  7  1  0  0  0  0
  4  5  2  0  0  0  0
  5  6  2  0  0  0  0
  6  1  1  0  0  0  0
  7  8  2  0  0  0  0
  8  9  1  0  0  0  0
  9 10  2  0  0  0  0
 10 11  1  0  0  0  0
 11 13  1  0  0  0  0
 11 12  2  0  0  0  0
 12  7  1  0  0  0  0
 13 15  1  0  0  0  0
 13 14  1  0  0  0  0
 15 16  2  0  0  0  0
 15 17  2  0  0  0  0
 15 18  1  0  0  0  0
 18 19  1  0  0  0  0
 19 20  2  0  0  0  0
 20 21  1  0  0  0  0
 21 22  2  0  0  0  0
 22 23  1  0  0  0  0
 23 24  2  0  0  0  0
 24 19  1  0  0  0  0
 25  1  1  0  0  0  0
 26 25  1  0  0  0  0
 27 28  2  0  0  0  0
 28 29  1  0  0  0  0
 29 26  1  0  0  0  0
 29 30  2  0  0  0  0
 30 31  1  0  0  0  0
 31 32  2  0  0  0  0
 32 33  1  0  0  0  0
 32 27  1  0  0  0  0
 33 34  1  0  0  0  0
 35 36  2  0  0  0  0
 36 37  1  0  0  0  0
 36 27  1  0  0  0  0
 37 38  1  0  0  0  0
M  END
>  <Activity>
29.3

>  <minimizedAffinity>
-8.67220

>  <RFScoreVS_v2>
5.95955777357

$$$$
HIPS6986
 OpenBabel05252300073D

 30 32  0  0  0  0  0  0  0  0999 V2000
   68.6709   76.9153   90.1854 C   0  0  0  0  0  0  0  0  0  0  0  0
   67.4759   77.5141   89.7471 C   0  0  0  0  0  0  0  0  0  0  0  0
   67.4321   78.8805   89.4602 C   0  0  0  0  0  0  0  0  0  0  0  0
   68.5746   79.6679   89.6142 C   0  0  0  0  0  0  0  0  0  0  0  0
   69.7744   79.0934   90.0612 C   0  0  0  0  0  0  0  0  0  0  0  0
   69.8210   77.7146   90.3265 C   0  0  0  0  0  0  0  0  0  0  0  0
   69.6483   73.6095   91.7976 C   0  0  0  0  0  0  0  0  0  0  0  0
   68.8117   72.7173   91.1003 C   0  0  0  0  0  0  0  0  0  0  0  0
   67.9416   73.1925   90.1174 C   0  0  0  0  0  0  0  0  0  0  0  0
   67.8926   74.5559   89.8197 C   0  0  0  0  0  0  0  0  0  0  0  0
   68.7153   75.4650   90.5082 C   0  0  0  0  0  0  0  0  0  0  0  0
   69.5878   74.9769   91.4991 C   0  0  0  0  0  0  0  0  0  0  0  0
   70.5449   73.1904   92.7952 O   0  0  0  0  0  0  0  0  0  0  0  0
   71.4633   71.3777   94.1293 C   0  0  0  0  0  0  0  0  0  0  0  0
   70.2516   72.2733   93.8515 C   0  0  0  0  0  0  0  0  0  0  0  0
   69.8866   73.0694   95.1024 C   0  0  0  0  0  0  0  0  0  0  0  0
   71.0111   79.9337   90.2179 C   0  0  0  0  0  0  0  0  0  0  0  0
   70.6420   81.2907   90.4543 O   0  0  0  0  0  0  0  0  0  0  0  0
   71.1441   82.3896   89.7416 C   0  0  0  0  0  0  0  0  0  0  0  0
   72.4762   82.8207   89.8601 C   0  0  0  0  0  0  0  0  0  0  0  0
   72.9301   83.9092   89.1133 C   0  0  0  0  0  0  0  0  0  0  0  0
   72.0645   84.5914   88.2471 C   0  0  0  0  0  0  0  0  0  0  0  0
   72.5488   85.6736   87.5114 O   0  0  0  0  0  0  0  0  0  0  0  0
   70.7182   84.1768   88.1251 C   0  0  0  0  0  0  0  0  0  0  0  0
   70.2777   83.0711   88.8801 C   0  0  0  0  0  0  0  0  0  0  0  0
   73.4431   85.9385   87.6012 H   0  0  0  0  0  0  0  0  0  0  0  0
   69.7643   84.8735   87.2226 C   0  0  0  0  0  0  0  0  0  0  0  0
   68.5617   85.0299   87.5688 O   0  0  0  0  0  0  0  0  0  0  0  0
   70.1768   85.3615   85.9860 O   0  0  0  0  0  0  0  0  0  0  0  0
   71.0667   85.2540   85.7131 H   0  0  0  0  0  0  0  0  0  0  0  0
  1  2  2  0  0  0  0
  2  3  1  0  0  0  0
  3  4  2  0  0  0  0
  4  5  1  0  0  0  0
  5 17  1  0  0  0  0
  5  6  2  0  0  0  0
  6  1  1  0  0  0  0
  7  8  2  0  0  0  0
  8  9  1  0  0  0  0
  9 10  2  0  0  0  0
 10 11  1  0  0  0  0
 11  1  1  0  0  0  0
 11 12  2  0  0  0  0
 12  7  1  0  0  0  0
 13  7  1  0  0  0  0
 14 15  1  0  0  0  0
 15 16  1  0  0  0  0
 15 13  1  0  0  0  0
 17 18  1  0  0  0  0
 18 19  1  0  0  0  0
 19 20  2  0  0  0  0
 20 21  1  0  0  0  0
 21 22  2  0  0  0  0
 22 23  1  0  0  0  0
 22 24  1  0  0  0  0
 23 26  1  0  0  0  0
 24 27  1  0  0  0  0
 24 25  2  0  0  0  0
 25 19  1  0  0  0  0
 27 28  2  0  0  0  0
 27 29  1  0  0  0  0
 29 30  1  0  0  0  0
M  END
>  <Activity>
32.3

>  <minimizedAffinity>
-8.85334

>  <RFScoreVS_v2>
5.99296913388

$$$$
HIPS6986
 OpenBabel05252300073D

 30 32  0  0  0  0  0  0  0  0999 V2000
   69.7086   76.3688   91.0654 C   0  0  0  0  0  0  0  0  0  0  0  0
   71.0756   76.4305   91.3917 C   0  0  0  0  0  0  0  0  0  0  0  0
   71.8174   77.5824   91.1198 C   0  0  0  0  0  0  0  0  0  0  0  0
   71.2095   78.6828   90.5125 C   0  0  0  0  0  0  0  0  0  0  0  0
   69.8498   78.6387   90.1680 C   0  0  0  0  0  0  0  0  0  0  0  0
   69.1012   77.4873   90.4641 C   0  0  0  0  0  0  0  0  0  0  0  0
   67.8822   73.5956   92.9244 C   0  0  0  0  0  0  0  0  0  0  0  0
   67.4511   72.7955   91.8492 C   0  0  0  0  0  0  0  0  0  0  0  0
   67.7548   73.1598   90.5362 C   0  0  0  0  0  0  0  0  0  0  0  0
   68.4863   74.3211   90.2789 C   0  0  0  0  0  0  0  0  0  0  0  0
   68.9215   75.1377   91.3377 C   0  0  0  0  0  0  0  0  0  0  0  0
   68.6087   74.7634   92.6580 C   0  0  0  0  0  0  0  0  0  0  0  0
   67.6086   73.2797   94.2660 O   0  0  0  0  0  0  0  0  0  0  0  0
   65.4886   74.3497   94.7858 C   0  0  0  0  0  0  0  0  0  0  0  0
   66.9450   74.1274   95.2063 C   0  0  0  0  0  0  0  0  0  0  0  0
   67.0017   73.4686   96.5828 C   0  0  0  0  0  0  0  0  0  0  0  0
   69.1866   79.8245   89.5245 C   0  0  0  0  0  0  0  0  0  0  0  0
   69.5682   81.0166   90.2077 O   0  0  0  0  0  0  0  0  0  0  0  0
   70.2967   82.0678   89.6315 C   0  0  0  0  0  0  0  0  0  0  0  0
   71.6470   82.3068   89.9381 C   0  0  0  0  0  0  0  0  0  0  0  0
   72.3311   83.3558   89.3217 C   0  0  0  0  0  0  0  0  0  0  0  0
   71.6807   84.1886   88.4007 C   0  0  0  0  0  0  0  0  0  0  0  0
   72.3924   85.2268   87.7985 O   0  0  0  0  0  0  0  0  0  0  0  0
   70.3190   83.9682   88.0898 C   0  0  0  0  0  0  0  0  0  0  0  0
   69.6448   82.8999   88.7150 C   0  0  0  0  0  0  0  0  0  0  0  0
   73.2944   85.3625   88.0130 H   0  0  0  0  0  0  0  0  0  0  0  0
   69.5884   84.8292   87.1231 C   0  0  0  0  0  0  0  0  0  0  0  0
   68.3959   85.1700   87.3517 O   0  0  0  0  0  0  0  0  0  0  0  0
   70.2016   85.2710   85.9542 O   0  0  0  0  0  0  0  0  0  0  0  0
   71.0870   85.0271   85.7686 H   0  0  0  0  0  0  0  0  0  0  0  0
  1  2  2  0  0  0  0
  2  3  1  0  0  0  0
  3  4  2  0  0  0  0
  4  5  1  0  0  0  0
  5 17  1  0  0  0  0
  5  6  2  0  0  0  0
  6  1  1  0  0  0  0
  7  8  2  0  0  0  0
  8  9  1  0  0  0  0
  9 10  2  0  0  0  0
 10 11  1  0  0  0  0
 11  1  1  0  0  0  0
 11 12  2  0  0  0  0
 12  7  1  0  0  0  0
 13  7  1  0  0  0  0
 14 15  1  0  0  0  0
 15 16  1  0  0  0  0
 15 13  1  0  0  0  0
 17 18  1  0  0  0  0
 18 19  1  0  0  0  0
 19 20  2  0  0  0  0
 20 21  1  0  0  0  0
 21 22  2  0  0  0  0
 22 23  1  0  0  0  0
 22 24  1  0  0  0  0
 23 26  1  0  0  0  0
 24 27  1  0  0  0  0
 24 25  2  0  0  0  0
 25 19  1  0  0  0  0
 27 28  2  0  0  0  0
 27 29  1  0  0  0  0
 29 30  1  0  0  0  0
M  END
>  <Activity>
32.3

>  <minimizedAffinity>
-8.77540

>  <RFScoreVS_v2>
5.98308937467

$$$$
HIPS6986
 OpenBabel05252300073D

 30 32  0  0  0  0  0  0  0  0999 V2000
   69.4062   76.3850   90.9797 C   0  0  0  0  0  0  0  0  0  0  0  0
   70.7686   76.5927   91.2616 C   0  0  0  0  0  0  0  0  0  0  0  0
   71.3843   77.8018   90.9294 C   0  0  0  0  0  0  0  0  0  0  0  0
   70.6535   78.8145   90.3055 C   0  0  0  0  0  0  0  0  0  0  0  0
   69.2960   78.6243   90.0045 C   0  0  0  0  0  0  0  0  0  0  0  0
   68.6742   77.4161   90.3610 C   0  0  0  0  0  0  0  0  0  0  0  0
   67.8577   73.5420   92.9801 C   0  0  0  0  0  0  0  0  0  0  0  0
   67.5383   72.6369   91.9501 C   0  0  0  0  0  0  0  0  0  0  0  0
   67.8265   72.9541   90.6215 C   0  0  0  0  0  0  0  0  0  0  0  0
   68.4315   74.1717   90.3034 C   0  0  0  0  0  0  0  0  0  0  0  0
   68.7534   75.0927   91.3161 C   0  0  0  0  0  0  0  0  0  0  0  0
   68.4571   74.7651   92.6526 C   0  0  0  0  0  0  0  0  0  0  0  0
   67.5935   73.2779   94.3347 O   0  0  0  0  0  0  0  0  0  0  0  0
   66.7895   74.1584   96.4531 C   0  0  0  0  0  0  0  0  0  0  0  0
   66.4190   73.6687   95.0494 C   0  0  0  0  0  0  0  0  0  0  0  0
   65.7205   74.7809   94.2703 C   0  0  0  0  0  0  0  0  0  0  0  0
   68.5007   79.7153   89.3433 C   0  0  0  0  0  0  0  0  0  0  0  0
   69.0459   80.9857   89.6932 O   0  0  0  0  0  0  0  0  0  0  0  0
   69.2261   82.0504   88.7980 C   0  0  0  0  0  0  0  0  0  0  0  0
   68.2576   82.4060   87.8441 C   0  0  0  0  0  0  0  0  0  0  0  0
   68.4792   83.4869   86.9890 C   0  0  0  0  0  0  0  0  0  0  0  0
   69.6703   84.2224   87.0620 C   0  0  0  0  0  0  0  0  0  0  0  0
   69.8610   85.2997   86.1959 O   0  0  0  0  0  0  0  0  0  0  0  0
   70.6595   83.8701   88.0089 C   0  0  0  0  0  0  0  0  0  0  0  0
   70.4170   82.7811   88.8703 C   0  0  0  0  0  0  0  0  0  0  0  0
   69.1978   85.5230   85.5728 H   0  0  0  0  0  0  0  0  0  0  0  0
   71.9390   84.6189   88.1182 C   0  0  0  0  0  0  0  0  0  0  0  0
   72.9962   84.0226   88.4609 O   0  0  0  0  0  0  0  0  0  0  0  0
   71.9940   85.9832   87.8483 O   0  0  0  0  0  0  0  0  0  0  0  0
   71.2181   86.4419   87.5924 H   0  0  0  0  0  0  0  0  0  0  0  0
  1  2  2  0  0  0  0
  2  3  1  0  0  0  0
  3  4  2  0  0  0  0
  4  5  1  0  0  0  0
  5 17  1  0  0  0  0
  5  6  2  0  0  0  0
  6  1  1  0  0  0  0
  7  8  2  0  0  0  0
  8  9  1  0  0  0  0
  9 10  2  0  0  0  0
 10 11  1  0  0  0  0
 11  1  1  0  0  0  0
 11 12  2  0  0  0  0
 12  7  1  0  0  0  0
 13  7  1  0  0  0  0
 14 15  1  0  0  0  0
 15 16  1  0  0  0  0
 15 13  1  0  0  0  0
 17 18  1  0  0  0  0
 18 19  1  0  0  0  0
 19 20  2  0  0  0  0
 20 21  1  0  0  0  0
 21 22  2  0  0  0  0
 22 23  1  0  0  0  0
 22 24  1  0  0  0  0
 23 26  1  0  0  0  0
 24 27  1  0  0  0  0
 24 25  2  0  0  0  0
 25 19  1  0  0  0  0
 27 28  2  0  0  0  0
 27 29  1  0  0  0  0
 29 30  1  0  0  0  0
M  END
>  <Activity>
32.3

>  <minimizedAffinity>
-8.64855

>  <RFScoreVS_v2>
5.99030752102

$$$$
HIPS6986
 OpenBabel05252300073D

 30 32  0  0  0  0  0  0  0  0999 V2000
   70.3644   80.6089   90.0434 C   0  0  0  0  0  0  0  0  0  0  0  0
   68.9584   80.5697   90.0611 C   0  0  0  0  0  0  0  0  0  0  0  0
   68.2871   79.4091   90.4532 C   0  0  0  0  0  0  0  0  0  0  0  0
   69.0072   78.2719   90.8239 C   0  0  0  0  0  0  0  0  0  0  0  0
   70.4103   78.2853   90.8025 C   0  0  0  0  0  0  0  0  0  0  0  0
   71.0824   79.4614   90.4300 C   0  0  0  0  0  0  0  0  0  0  0  0
   71.1771   83.8624   88.2442 C   0  0  0  0  0  0  0  0  0  0  0  0
   72.4493   84.1479   88.7752 C   0  0  0  0  0  0  0  0  0  0  0  0
   73.0308   83.2872   89.7079 C   0  0  0  0  0  0  0  0  0  0  0  0
   72.3549   82.1380   90.1229 C   0  0  0  0  0  0  0  0  0  0  0  0
   71.0807   81.8370   89.6096 C   0  0  0  0  0  0  0  0  0  0  0  0
   70.5015   82.7119   88.6713 C   0  0  0  0  0  0  0  0  0  0  0  0
   70.5421   84.6895   87.3022 O   0  0  0  0  0  0  0  0  0  0  0  0
   68.1237   84.8668   87.4725 C   0  0  0  0  0  0  0  0  0  0  0  0
   69.4687   85.5938   87.5722 C   0  0  0  0  0  0  0  0  0  0  0  0
   69.6549   86.1682   88.9748 C   0  0  0  0  0  0  0  0  0  0  0  0
   71.1915   77.0678   91.2116 C   0  0  0  0  0  0  0  0  0  0  0  0
   70.5857   76.4717   92.3568 O   0  0  0  0  0  0  0  0  0  0  0  0
   69.6552   75.4231   92.3120 C   0  0  0  0  0  0  0  0  0  0  0  0
   69.5271   74.5752   91.1988 C   0  0  0  0  0  0  0  0  0  0  0  0
   68.5974   73.5341   91.2135 C   0  0  0  0  0  0  0  0  0  0  0  0
   67.7745   73.3276   92.3294 C   0  0  0  0  0  0  0  0  0  0  0  0
   66.8572   72.2763   92.3153 O   0  0  0  0  0  0  0  0  0  0  0  0
   67.8834   74.1791   93.4530 C   0  0  0  0  0  0  0  0  0  0  0  0
   68.8326   75.2207   93.4254 C   0  0  0  0  0  0  0  0  0  0  0  0
   66.7946   71.7191   91.5646 H   0  0  0  0  0  0  0  0  0  0  0  0
   67.0281   73.9999   94.6555 C   0  0  0  0  0  0  0  0  0  0  0  0
   67.4342   73.3034   95.6253 O   0  0  0  0  0  0  0  0  0  0  0  0
   65.7706   74.5917   94.7329 O   0  0  0  0  0  0  0  0  0  0  0  0
   65.4533   75.1124   94.0214 H   0  0  0  0  0  0  0  0  0  0  0  0
  1  2  2  0  0  0  0
  2  3  1  0  0  0  0
  3  4  2  0  0  0  0
  4  5  1  0  0  0  0
  5 17  1  0  0  0  0
  5  6  2  0  0  0  0
  6  1  1  0  0  0  0
  7  8  2  0  0  0  0
  8  9  1  0  0  0  0
  9 10  2  0  0  0  0
 10 11  1  0  0  0  0
 11  1  1  0  0  0  0
 11 12  2  0  0  0  0
 12  7  1  0  0  0  0
 13  7  1  0  0  0  0
 14 15  1  0  0  0  0
 15 16  1  0  0  0  0
 15 13  1  0  0  0  0
 17 18  1  0  0  0  0
 18 19  1  0  0  0  0
 19 20  2  0  0  0  0
 20 21  1  0  0  0  0
 21 22  2  0  0  0  0
 22 23  1  0  0  0  0
 22 24  1  0  0  0  0
 23 26  1  0  0  0  0
 24 27  1  0  0  0  0
 24 25  2  0  0  0  0
 25 19  1  0  0  0  0
 27 28  2  0  0  0  0
 27 29  1  0  0  0  0
 29 30  1  0  0  0  0
M  END
>  <Activity>
32.3

>  <minimizedAffinity>
-8.60561

>  <RFScoreVS_v2>
6.00385052781

$$$$
HIPS6986
 OpenBabel05252300073D

 30 32  0  0  0  0  0  0  0  0999 V2000
   67.6279   76.6052   89.0016 C   0  0  0  0  0  0  0  0  0  0  0  0
   67.0373   76.5331   87.7270 C   0  0  0  0  0  0  0  0  0  0  0  0
   66.7536   77.6984   87.0108 C   0  0  0  0  0  0  0  0  0  0  0  0
   67.0466   78.9488   87.5584 C   0  0  0  0  0  0  0  0  0  0  0  0
   67.6253   79.0443   88.8333 C   0  0  0  0  0  0  0  0  0  0  0  0
   67.9307   77.8698   89.5410 C   0  0  0  0  0  0  0  0  0  0  0  0
   68.8983   74.2648   91.7203 C   0  0  0  0  0  0  0  0  0  0  0  0
   68.4735   73.0202   91.2178 C   0  0  0  0  0  0  0  0  0  0  0  0
   67.7820   72.9500   90.0071 C   0  0  0  0  0  0  0  0  0  0  0  0
   67.5044   74.1133   89.2863 C   0  0  0  0  0  0  0  0  0  0  0  0
   67.9143   75.3673   89.7729 C   0  0  0  0  0  0  0  0  0  0  0  0
   68.6091   75.4283   90.9956 C   0  0  0  0  0  0  0  0  0  0  0  0
   69.5988   74.3981   92.9312 O   0  0  0  0  0  0  0  0  0  0  0  0
   69.5358   73.4898   95.1852 C   0  0  0  0  0  0  0  0  0  0  0  0
   69.0110   74.5612   94.2238 C   0  0  0  0  0  0  0  0  0  0  0  0
   69.3580   75.9537   94.7460 C   0  0  0  0  0  0  0  0  0  0  0  0
   67.9539   80.3873   89.4236 C   0  0  0  0  0  0  0  0  0  0  0  0
   67.3587   81.4161   88.6357 O   0  0  0  0  0  0  0  0  0  0  0  0
   68.0635   82.4699   88.0354 C   0  0  0  0  0  0  0  0  0  0  0  0
   67.4788   83.3236   87.0848 C   0  0  0  0  0  0  0  0  0  0  0  0
   68.2196   84.3695   86.5318 C   0  0  0  0  0  0  0  0  0  0  0  0
   69.5545   84.5750   86.9069 C   0  0  0  0  0  0  0  0  0  0  0  0
   70.2679   85.6313   86.3390 O   0  0  0  0  0  0  0  0  0  0  0  0
   70.1608   83.7177   87.8539 C   0  0  0  0  0  0  0  0  0  0  0  0
   69.3967   82.6713   88.4087 C   0  0  0  0  0  0  0  0  0  0  0  0
   69.8547   86.1923   85.7125 H   0  0  0  0  0  0  0  0  0  0  0  0
   71.5746   83.8956   88.2772 C   0  0  0  0  0  0  0  0  0  0  0  0
   72.4330   84.3249   87.4589 O   0  0  0  0  0  0  0  0  0  0  0  0
   71.9757   83.5921   89.5750 O   0  0  0  0  0  0  0  0  0  0  0  0
   71.3510   83.2722   90.1957 H   0  0  0  0  0  0  0  0  0  0  0  0
  1  2  2  0  0  0  0
  2  3  1  0  0  0  0
  3  4  2  0  0  0  0
  4  5  1  0  0  0  0
  5 17  1  0  0  0  0
  5  6  2  0  0  0  0
  6  1  1  0  0  0  0
  7  8  2  0  0  0  0
  8  9  1  0  0  0  0
  9 10  2  0  0  0  0
 10 11  1  0  0  0  0
 11  1  1  0  0  0  0
 11 12  2  0  0  0  0
 12  7  1  0  0  0  0
 13  7  1  0  0  0  0
 14 15  1  0  0  0  0
 15 16  1  0  0  0  0
 15 13  1  0  0  0  0
 17 18  1  0  0  0  0
 18 19  1  0  0  0  0
 19 20  2  0  0  0  0
 20 21  1  0  0  0  0
 21 22  2  0  0  0  0
 22 23  1  0  0  0  0
 22 24  1  0  0  0  0
 23 26  1  0  0  0  0
 24 27  1  0  0  0  0
 24 25  2  0  0  0  0
 25 19  1  0  0  0  0
 27 28  2  0  0  0  0
 27 29  1  0  0  0  0
 29 30  1  0  0  0  0
M  END
>  <Activity>
32.3

>  <minimizedAffinity>
-8.35387

>  <RFScoreVS_v2>
5.99779760413

$$$$
HIPS6986
 OpenBabel05252300073D

 30 32  0  0  0  0  0  0  0  0999 V2000
   69.9645   76.7543   91.9727 C   0  0  0  0  0  0  0  0  0  0  0  0
   71.2982   76.9175   91.5563 C   0  0  0  0  0  0  0  0  0  0  0  0
   71.6175   77.8215   90.5404 C   0  0  0  0  0  0  0  0  0  0  0  0
   70.6123   78.5671   89.9216 C   0  0  0  0  0  0  0  0  0  0  0  0
   69.2737   78.4117   90.3133 C   0  0  0  0  0  0  0  0  0  0  0  0
   68.9590   77.5187   91.3513 C   0  0  0  0  0  0  0  0  0  0  0  0
   69.2337   73.4769   93.7634 C   0  0  0  0  0  0  0  0  0  0  0  0
   68.9469   73.9423   95.0608 C   0  0  0  0  0  0  0  0  0  0  0  0
   68.9924   75.3087   95.3432 C   0  0  0  0  0  0  0  0  0  0  0  0
   69.3245   76.2240   94.3424 C   0  0  0  0  0  0  0  0  0  0  0  0
   69.6203   75.7801   93.0413 C   0  0  0  0  0  0  0  0  0  0  0  0
   69.5740   74.4004   92.7665 C   0  0  0  0  0  0  0  0  0  0  0  0
   69.2026   72.1148   93.4190 O   0  0  0  0  0  0  0  0  0  0  0  0
   71.3778   71.2643   94.0933 C   0  0  0  0  0  0  0  0  0  0  0  0
   70.3203   71.3358   92.9869 C   0  0  0  0  0  0  0  0  0  0  0  0
   69.8308   69.9330   92.6341 C   0  0  0  0  0  0  0  0  0  0  0  0
   68.1882   79.2199   89.6589 C   0  0  0  0  0  0  0  0  0  0  0  0
   67.0954   78.3691   89.3190 O   0  0  0  0  0  0  0  0  0  0  0  0
   67.1073   77.4347   88.2730 C   0  0  0  0  0  0  0  0  0  0  0  0
   67.3047   77.8058   86.9322 C   0  0  0  0  0  0  0  0  0  0  0  0
   67.3265   76.8331   85.9312 C   0  0  0  0  0  0  0  0  0  0  0  0
   67.1414   75.4799   86.2467 C   0  0  0  0  0  0  0  0  0  0  0  0
   67.1719   74.5307   85.2243 O   0  0  0  0  0  0  0  0  0  0  0  0
   66.9304   75.0914   87.5898 C   0  0  0  0  0  0  0  0  0  0  0  0
   66.9192   76.0850   88.5896 C   0  0  0  0  0  0  0  0  0  0  0  0
   67.3125   74.8009   84.3382 H   0  0  0  0  0  0  0  0  0  0  0  0
   66.7251   73.6689   87.9692 C   0  0  0  0  0  0  0  0  0  0  0  0
   67.0206   73.2724   89.1294 O   0  0  0  0  0  0  0  0  0  0  0  0
   66.2082   72.7533   87.0571 O   0  0  0  0  0  0  0  0  0  0  0  0
   65.9833   73.0310   86.1909 H   0  0  0  0  0  0  0  0  0  0  0  0
  1  2  2  0  0  0  0
  2  3  1  0  0  0  0
  3  4  2  0  0  0  0
  4  5  1  0  0  0  0
  5 17  1  0  0  0  0
  5  6  2  0  0  0  0
  6  1  1  0  0  0  0
  7  8  2  0  0  0  0
  8  9  1  0  0  0  0
  9 10  2  0  0  0  0
 10 11  1  0  0  0  0
 11  1  1  0  0  0  0
 11 12  2  0  0  0  0
 12  7  1  0  0  0  0
 13  7  1  0  0  0  0
 14 15  1  0  0  0  0
 15 16  1  0  0  0  0
 15 13  1  0  0  0  0
 17 18  1  0  0  0  0
 18 19  1  0  0  0  0
 19 20  2  0  0  0  0
 20 21  1  0  0  0  0
 21 22  2  0  0  0  0
 22 23  1  0  0  0  0
 22 24  1  0  0  0  0
 23 26  1  0  0  0  0
 24 27  1  0  0  0  0
 24 25  2  0  0  0  0
 25 19  1  0  0  0  0
 27 28  2  0  0  0  0
 27 29  1  0  0  0  0
 29 30  1  0  0  0  0
M  END
>  <Activity>
32.3

>  <minimizedAffinity>
-8.35265

>  <RFScoreVS_v2>
5.98105461501

$$$$
HIPS6986
 OpenBabel05252300073D

 30 32  0  0  0  0  0  0  0  0999 V2000
   69.3164   79.5815   89.9159 C   0  0  0  0  0  0  0  0  0  0  0  0
   70.6355   79.1760   90.1885 C   0  0  0  0  0  0  0  0  0  0  0  0
   70.8974   77.8868   90.6582 C   0  0  0  0  0  0  0  0  0  0  0  0
   69.8491   76.9894   90.8700 C   0  0  0  0  0  0  0  0  0  0  0  0
   68.5244   77.3768   90.6157 C   0  0  0  0  0  0  0  0  0  0  0  0
   68.2666   78.6663   90.1212 C   0  0  0  0  0  0  0  0  0  0  0  0
   69.7033   83.2968   89.1884 C   0  0  0  0  0  0  0  0  0  0  0  0
   68.4849   83.5673   88.5370 C   0  0  0  0  0  0  0  0  0  0  0  0
   67.5519   82.5477   88.3400 C   0  0  0  0  0  0  0  0  0  0  0  0
   67.8204   81.2517   88.7852 C   0  0  0  0  0  0  0  0  0  0  0  0
   69.0336   80.9585   89.4329 C   0  0  0  0  0  0  0  0  0  0  0  0
   69.9691   81.9925   89.6251 C   0  0  0  0  0  0  0  0  0  0  0  0
   70.6796   84.2814   89.4165 O   0  0  0  0  0  0  0  0  0  0  0  0
   73.0458   83.7953   89.1439 C   0  0  0  0  0  0  0  0  0  0  0  0
   71.8211   84.5337   88.5941 C   0  0  0  0  0  0  0  0  0  0  0  0
   71.5143   84.0618   87.1746 C   0  0  0  0  0  0  0  0  0  0  0  0
   67.3923   76.4114   90.8308 C   0  0  0  0  0  0  0  0  0  0  0  0
   66.7614   76.6828   92.0806 O   0  0  0  0  0  0  0  0  0  0  0  0
   66.8241   75.8455   93.2042 C   0  0  0  0  0  0  0  0  0  0  0  0
   65.8234   75.8306   94.1906 C   0  0  0  0  0  0  0  0  0  0  0  0
   65.9254   74.9637   95.2799 C   0  0  0  0  0  0  0  0  0  0  0  0
   67.0279   74.1079   95.4104 C   0  0  0  0  0  0  0  0  0  0  0  0
   67.0996   73.2504   96.5089 O   0  0  0  0  0  0  0  0  0  0  0  0
   68.0488   74.1190   94.4321 C   0  0  0  0  0  0  0  0  0  0  0  0
   67.9269   74.9945   93.3343 C   0  0  0  0  0  0  0  0  0  0  0  0
   66.4166   73.2526   97.1503 H   0  0  0  0  0  0  0  0  0  0  0  0
   69.2376   73.2323   94.5327 C   0  0  0  0  0  0  0  0  0  0  0  0
   70.1755   73.5155   95.3269 O   0  0  0  0  0  0  0  0  0  0  0  0
   69.3387   72.0815   93.7561 O   0  0  0  0  0  0  0  0  0  0  0  0
   68.6511   71.8561   93.1609 H   0  0  0  0  0  0  0  0  0  0  0  0
  1  2  2  0  0  0  0
  2  3  1  0  0  0  0
  3  4  2  0  0  0  0
  4  5  1  0  0  0  0
  5 17  1  0  0  0  0
  5  6  2  0  0  0  0
  6  1  1  0  0  0  0
  7  8  2  0  0  0  0
  8  9  1  0  0  0  0
  9 10  2  0  0  0  0
 10 11  1  0  0  0  0
 11  1  1  0  0  0  0
 11 12  2  0  0  0  0
 12  7  1  0  0  0  0
 13  7  1  0  0  0  0
 14 15  1  0  0  0  0
 15 16  1  0  0  0  0
 15 13  1  0  0  0  0
 17 18  1  0  0  0  0
 18 19  1  0  0  0  0
 19 20  2  0  0  0  0
 20 21  1  0  0  0  0
 21 22  2  0  0  0  0
 22 23  1  0  0  0  0
 22 24  1  0  0  0  0
 23 26  1  0  0  0  0
 24 27  1  0  0  0  0
 24 25  2  0  0  0  0
 25 19  1  0  0  0  0
 27 28  2  0  0  0  0
 27 29  1  0  0  0  0
 29 30  1  0  0  0  0
M  END
>  <Activity>
32.3

>  <minimizedAffinity>
-8.35177

>  <RFScoreVS_v2>
5.99683107303

$$$$
HIPS6986
 OpenBabel05252300073D

 30 32  0  0  0  0  0  0  0  0999 V2000
   66.9963   76.4601   88.8253 C   0  0  0  0  0  0  0  0  0  0  0  0
   66.8025   77.2531   87.6797 C   0  0  0  0  0  0  0  0  0  0  0  0
   66.7008   78.6420   87.7886 C   0  0  0  0  0  0  0  0  0  0  0  0
   66.7823   79.2568   89.0394 C   0  0  0  0  0  0  0  0  0  0  0  0
   66.9639   78.4839   90.1967 C   0  0  0  0  0  0  0  0  0  0  0  0
   67.0891   77.0894   90.0811 C   0  0  0  0  0  0  0  0  0  0  0  0
   66.7560   72.9292   87.4263 C   0  0  0  0  0  0  0  0  0  0  0  0
   67.2397   72.1795   88.5153 C   0  0  0  0  0  0  0  0  0  0  0  0
   67.6379   72.8218   89.6892 C   0  0  0  0  0  0  0  0  0  0  0  0
   67.5616   74.2123   89.7917 C   0  0  0  0  0  0  0  0  0  0  0  0
   67.0871   74.9807   88.7138 C   0  0  0  0  0  0  0  0  0  0  0  0
   66.6900   74.3244   87.5336 C   0  0  0  0  0  0  0  0  0  0  0  0
   66.3396   72.3391   86.2209 O   0  0  0  0  0  0  0  0  0  0  0  0
   66.4027   70.8542   84.2972 C   0  0  0  0  0  0  0  0  0  0  0  0
   67.1972   71.7813   85.2227 C   0  0  0  0  0  0  0  0  0  0  0  0
   67.8185   72.9219   84.4196 C   0  0  0  0  0  0  0  0  0  0  0  0
   67.0640   79.1408   91.5451 C   0  0  0  0  0  0  0  0  0  0  0  0
   66.5095   78.2819   92.5394 O   0  0  0  0  0  0  0  0  0  0  0  0
   67.2213   77.2792   93.2142 C   0  0  0  0  0  0  0  0  0  0  0  0
   68.6187   77.3128   93.3583 C   0  0  0  0  0  0  0  0  0  0  0  0
   69.2764   76.2984   94.0561 C   0  0  0  0  0  0  0  0  0  0  0  0
   68.5566   75.2310   94.6107 C   0  0  0  0  0  0  0  0  0  0  0  0
   69.2422   74.2339   95.3056 O   0  0  0  0  0  0  0  0  0  0  0  0
   67.1512   75.1768   94.4648 C   0  0  0  0  0  0  0  0  0  0  0  0
   66.5015   76.2130   93.7642 C   0  0  0  0  0  0  0  0  0  0  0  0
   70.1737   74.2813   95.3954 H   0  0  0  0  0  0  0  0  0  0  0  0
   66.3487   74.0616   95.0322 C   0  0  0  0  0  0  0  0  0  0  0  0
   66.7958   73.3851   95.9981 O   0  0  0  0  0  0  0  0  0  0  0  0
   65.0980   73.7436   94.5106 O   0  0  0  0  0  0  0  0  0  0  0  0
   64.7506   74.2359   93.7930 H   0  0  0  0  0  0  0  0  0  0  0  0
  1  2  2  0  0  0  0
  2  3  1  0  0  0  0
  3  4  2  0  0  0  0
  4  5  1  0  0  0  0
  5 17  1  0  0  0  0
  5  6  2  0  0  0  0
  6  1  1  0  0  0  0
  7  8  2  0  0  0  0
  8  9  1  0  0  0  0
  9 10  2  0  0  0  0
 10 11  1  0  0  0  0
 11  1  1  0  0  0  0
 11 12  2  0  0  0  0
 12  7  1  0  0  0  0
 13  7  1  0  0  0  0
 14 15  1  0  0  0  0
 15 16  1  0  0  0  0
 15 13  1  0  0  0  0
 17 18  1  0  0  0  0
 18 19  1  0  0  0  0
 19 20  2  0  0  0  0
 20 21  1  0  0  0  0
 21 22  2  0  0  0  0
 22 23  1  0  0  0  0
 22 24  1  0  0  0  0
 23 26  1  0  0  0  0
 24 27  1  0  0  0  0
 24 25  2  0  0  0  0
 25 19  1  0  0  0  0
 27 28  2  0  0  0  0
 27 29  1  0  0  0  0
 29 30  1  0  0  0  0
M  END
>  <Activity>
32.3

>  <minimizedAffinity>
-8.32817

>  <RFScoreVS_v2>
6.02035110838

$$$$
HIPS6986
 OpenBabel05252300073D

 30 32  0  0  0  0  0  0  0  0999 V2000
   68.5024   81.1364   90.3679 C   0  0  0  0  0  0  0  0  0  0  0  0
   67.2284   81.7186   90.4966 C   0  0  0  0  0  0  0  0  0  0  0  0
   66.1503   80.9664   90.9691 C   0  0  0  0  0  0  0  0  0  0  0  0
   66.3260   79.6242   91.3110 C   0  0  0  0  0  0  0  0  0  0  0  0
   67.5858   79.0201   91.1795 C   0  0  0  0  0  0  0  0  0  0  0  0
   68.6729   79.7857   90.7261 C   0  0  0  0  0  0  0  0  0  0  0  0
   70.6361   83.3307   88.1064 C   0  0  0  0  0  0  0  0  0  0  0  0
   71.8229   83.4120   88.8595 C   0  0  0  0  0  0  0  0  0  0  0  0
   71.9213   82.7575   90.0887 C   0  0  0  0  0  0  0  0  0  0  0  0
   70.8435   82.0193   90.5817 C   0  0  0  0  0  0  0  0  0  0  0  0
   69.6469   81.9299   89.8486 C   0  0  0  0  0  0  0  0  0  0  0  0
   69.5562   82.5949   88.6113 C   0  0  0  0  0  0  0  0  0  0  0  0
   70.4786   83.9660   86.8629 O   0  0  0  0  0  0  0  0  0  0  0  0
   68.1009   84.3969   86.5979 C   0  0  0  0  0  0  0  0  0  0  0  0
   69.5176   84.9789   86.5571 C   0  0  0  0  0  0  0  0  0  0  0  0
   69.6541   86.1061   87.5783 C   0  0  0  0  0  0  0  0  0  0  0  0
   67.7840   77.5785   91.5569 C   0  0  0  0  0  0  0  0  0  0  0  0
   66.6942   77.1402   92.3655 O   0  0  0  0  0  0  0  0  0  0  0  0
   66.7883   76.1679   93.3722 C   0  0  0  0  0  0  0  0  0  0  0  0
   65.7491   75.9255   94.2863 C   0  0  0  0  0  0  0  0  0  0  0  0
   65.8868   74.9325   95.2576 C   0  0  0  0  0  0  0  0  0  0  0  0
   67.0629   74.1742   95.3415 C   0  0  0  0  0  0  0  0  0  0  0  0
   67.1692   73.1863   96.3211 O   0  0  0  0  0  0  0  0  0  0  0  0
   68.1222   74.4136   94.4360 C   0  0  0  0  0  0  0  0  0  0  0  0
   67.9641   75.4145   93.4562 C   0  0  0  0  0  0  0  0  0  0  0  0
   66.4601   73.0374   96.9152 H   0  0  0  0  0  0  0  0  0  0  0  0
   69.3885   73.6371   94.4914 C   0  0  0  0  0  0  0  0  0  0  0  0
   70.2373   73.7399   93.5641 O   0  0  0  0  0  0  0  0  0  0  0  0
   69.6590   72.7860   95.5591 O   0  0  0  0  0  0  0  0  0  0  0  0
   69.0395   72.6977   96.2564 H   0  0  0  0  0  0  0  0  0  0  0  0
  1  2  2  0  0  0  0
  2  3  1  0  0  0  0
  3  4  2  0  0  0  0
  4  5  1  0  0  0  0
  5 17  1  0  0  0  0
  5  6  2  0  0  0  0
  6  1  1  0  0  0  0
  7  8  2  0  0  0  0
  8  9  1  0  0  0  0
  9 10  2  0  0  0  0
 10 11  1  0  0  0  0
 11  1  1  0  0  0  0
 11 12  2  0  0  0  0
 12  7  1  0  0  0  0
 13  7  1  0  0  0  0
 14 15  1  0  0  0  0
 15 16  1  0  0  0  0
 15 13  1  0  0  0  0
 17 18  1  0  0  0  0
 18 19  1  0  0  0  0
 19 20  2  0  0  0  0
 20 21  1  0  0  0  0
 21 22  2  0  0  0  0
 22 23  1  0  0  0  0
 22 24  1  0  0  0  0
 23 26  1  0  0  0  0
 24 27  1  0  0  0  0
 24 25  2  0  0  0  0
 25 19  1  0  0  0  0
 27 28  2  0  0  0  0
 27 29  1  0  0  0  0
 29 30  1  0  0  0  0
M  END
>  <Activity>
32.3

>  <minimizedAffinity>
-8.30403

>  <RFScoreVS_v2>
6.00366405825

$$$$
HIPS6986
 OpenBabel05252300073D

 30 32  0  0  0  0  0  0  0  0999 V2000
   68.6146   78.3092   89.1488 C   0  0  0  0  0  0  0  0  0  0  0  0
   67.8664   77.3726   88.4129 C   0  0  0  0  0  0  0  0  0  0  0  0
   66.8441   77.7956   87.5602 C   0  0  0  0  0  0  0  0  0  0  0  0
   66.5491   79.1545   87.4365 C   0  0  0  0  0  0  0  0  0  0  0  0
   67.2752   80.1053   88.1702 C   0  0  0  0  0  0  0  0  0  0  0  0
   68.3181   79.6783   89.0091 C   0  0  0  0  0  0  0  0  0  0  0  0
   70.4903   76.3481   91.8168 C   0  0  0  0  0  0  0  0  0  0  0  0
   71.7231   77.0281   91.8275 C   0  0  0  0  0  0  0  0  0  0  0  0
   71.9352   78.1121   90.9737 C   0  0  0  0  0  0  0  0  0  0  0  0
   70.9277   78.5290   90.1013 C   0  0  0  0  0  0  0  0  0  0  0  0
   69.6911   77.8602   90.0702 C   0  0  0  0  0  0  0  0  0  0  0  0
   69.4873   76.7671   90.9332 C   0  0  0  0  0  0  0  0  0  0  0  0
   70.2180   75.2523   92.6533 O   0  0  0  0  0  0  0  0  0  0  0  0
   69.2653   73.8635   94.4063 C   0  0  0  0  0  0  0  0  0  0  0  0
   69.2036   75.1996   93.6589 C   0  0  0  0  0  0  0  0  0  0  0  0
   69.4184   76.3577   94.6307 C   0  0  0  0  0  0  0  0  0  0  0  0
   66.9702   81.5709   88.0327 C   0  0  0  0  0  0  0  0  0  0  0  0
   67.8043   82.1421   87.0269 O   0  0  0  0  0  0  0  0  0  0  0  0
   68.7158   83.1857   87.2446 C   0  0  0  0  0  0  0  0  0  0  0  0
   68.5520   84.4609   86.6776 C   0  0  0  0  0  0  0  0  0  0  0  0
   69.4793   85.4704   86.9418 C   0  0  0  0  0  0  0  0  0  0  0  0
   70.5878   85.2240   87.7637 C   0  0  0  0  0  0  0  0  0  0  0  0
   71.4954   86.2544   88.0118 O   0  0  0  0  0  0  0  0  0  0  0  0
   70.7728   83.9429   88.3328 C   0  0  0  0  0  0  0  0  0  0  0  0
   69.8232   82.9369   88.0625 C   0  0  0  0  0  0  0  0  0  0  0  0
   71.3615   87.0990   87.6288 H   0  0  0  0  0  0  0  0  0  0  0  0
   71.9359   83.6360   89.2061 C   0  0  0  0  0  0  0  0  0  0  0  0
   73.0940   84.0112   88.8762 O   0  0  0  0  0  0  0  0  0  0  0  0
   71.7707   82.9317   90.3952 O   0  0  0  0  0  0  0  0  0  0  0  0
   70.9173   82.6454   90.6554 H   0  0  0  0  0  0  0  0  0  0  0  0
  1  2  2  0  0  0  0
  2  3  1  0  0  0  0
  3  4  2  0  0  0  0
  4  5  1  0  0  0  0
  5 17  1  0  0  0  0
  5  6  2  0  0  0  0
  6  1  1  0  0  0  0
  7  8  2  0  0  0  0
  8  9  1  0  0  0  0
  9 10  2  0  0  0  0
 10 11  1  0  0  0  0
 11  1  1  0  0  0  0
 11 12  2  0  0  0  0
 12  7  1  0  0  0  0
 13  7  1  0  0  0  0
 14 15  1  0  0  0  0
 15 16  1  0  0  0  0
 15 13  1  0  0  0  0
 17 18  1  0  0  0  0
 18 19  1  0  0  0  0
 19 20  2  0  0  0  0
 20 21  1  0  0  0  0
 21 22  2  0  0  0  0
 22 23  1  0  0  0  0
 22 24  1  0  0  0  0
 23 26  1  0  0  0  0
 24 27  1  0  0  0  0
 24 25  2  0  0  0  0
 25 19  1  0  0  0  0
 27 28  2  0  0  0  0
 27 29  1  0  0  0  0
 29 30  1  0  0  0  0
M  END
>  <Activity>
32.3

>  <minimizedAffinity>
-8.24757

>  <RFScoreVS_v2>
6.01317407671

$$$$
HIPS7781
 OpenBabel05252300073D

 41 44  0  0  0  0  0  0  0  0999 V2000
   67.8489   73.3365   90.4686 C   0  0  0  0  0  0  0  0  0  0  0  0
   67.1339   72.8421   89.3673 C   0  0  0  0  0  0  0  0  0  0  0  0
   66.7431   73.6973   88.3368 C   0  0  0  0  0  0  0  0  0  0  0  0
   67.0525   75.0571   88.3979 C   0  0  0  0  0  0  0  0  0  0  0  0
   67.7421   75.5849   89.5081 C   0  0  0  0  0  0  0  0  0  0  0  0
   68.1259   74.7142   90.5449 C   0  0  0  0  0  0  0  0  0  0  0  0
   68.0694   77.0300   89.5794 C   0  0  0  0  0  0  0  0  0  0  0  0
   69.2137   77.4459   90.1881 N   0  0  0  0  0  0  0  0  0  0  0  0
   69.5233   78.7634   90.2872 C   0  0  0  0  0  0  0  0  0  0  0  0
   68.6647   79.7285   89.7476 C   0  0  0  0  0  0  0  0  0  0  0  0
   67.4884   79.2865   89.1327 C   0  0  0  0  0  0  0  0  0  0  0  0
   67.2182   77.9566   89.0604 N   0  0  0  0  0  0  0  0  0  0  0  0
   68.9790   81.1942   89.8762 C   0  0  0  0  0  0  0  0  0  0  0  0
   70.3783   81.4206   89.7092 O   0  0  0  0  0  0  0  0  0  0  0  0
   70.9601   82.6149   89.2508 C   0  0  0  0  0  0  0  0  0  0  0  0
   72.3094   82.9404   89.4764 C   0  0  0  0  0  0  0  0  0  0  0  0
   72.8320   84.1355   88.9790 C   0  0  0  0  0  0  0  0  0  0  0  0
   72.0279   85.0372   88.2660 C   0  0  0  0  0  0  0  0  0  0  0  0
   72.6163   86.2416   87.8607 O   0  0  0  0  0  0  0  0  0  0  0  0
   70.6689   84.7110   88.0110 C   0  0  0  0  0  0  0  0  0  0  0  0
   70.1572   83.5016   88.5239 C   0  0  0  0  0  0  0  0  0  0  0  0
   73.5177   86.4106   88.0528 H   0  0  0  0  0  0  0  0  0  0  0  0
   69.7678   85.5607   87.1913 C   0  0  0  0  0  0  0  0  0  0  0  0
   69.6308   86.7926   87.4325 O   0  0  0  0  0  0  0  0  0  0  0  0
   69.1144   85.0086   86.0860 O   0  0  0  0  0  0  0  0  0  0  0  0
   69.2070   84.0960   85.8947 H   0  0  0  0  0  0  0  0  0  0  0  0
   70.3722   73.3518   91.8625 O   0  0  0  0  0  0  0  0  0  0  0  0
   69.5115   72.4855   92.1828 C   0  0  0  0  0  0  0  0  0  0  0  0
   68.2423   72.4339   91.5147 N   0  0  0  0  0  0  0  0  0  0  0  0
   67.6026   71.7380   91.7900 H   0  0  0  0  0  0  0  0  0  0  0  0
   69.8459   71.4762   93.2442 C   0  0  0  0  0  0  0  0  0  0  0  0
   70.6752   72.0921   94.3778 C   0  0  0  0  0  0  0  0  0  0  0  0
   69.8384   72.9558   95.3372 C   0  0  0  0  0  0  0  0  0  0  0  0
   68.5280   73.2095   94.8263 O   0  0  0  0  0  0  0  0  0  0  0  0
   68.0545   74.4551   94.3823 C   0  0  0  0  0  0  0  0  0  0  0  0
   68.9591   75.5225   94.3193 C   0  0  0  0  0  0  0  0  0  0  0  0
   68.5481   76.7719   93.8414 C   0  0  0  0  0  0  0  0  0  0  0  0
   67.2243   76.9643   93.4310 C   0  0  0  0  0  0  0  0  0  0  0  0
   66.7168   78.5255   92.8106 Cl  0  0  0  0  0  0  0  0  0  0  0  0
   66.3093   75.9131   93.5106 C   0  0  0  0  0  0  0  0  0  0  0  0
   66.7176   74.6633   93.9919 C   0  0  0  0  0  0  0  0  0  0  0  0
  1  2  2  0  0  0  0
  2  3  1  0  0  0  0
  3  4  2  0  0  0  0
  4  5  1  0  0  0  0
  5  7  1  0  0  0  0
  5  6  2  0  0  0  0
  6  1  1  0  0  0  0
  7  8  2  0  0  0  0
  8  9  2  0  0  0  0
  9 10  2  0  0  0  0
 10 13  1  0  0  0  0
 10 11  1  0  0  0  0
 11 12  2  0  0  0  0
 12  7  2  0  0  0  0
 13 14  1  0  0  0  0
 14 15  1  0  0  0  0
 15 16  2  0  0  0  0
 16 17  1  0  0  0  0
 17 18  2  0  0  0  0
 18 19  1  0  0  0  0
 18 20  1  0  0  0  0
 19 22  1  0  0  0  0
 20 23  1  0  0  0  0
 20 21  2  0  0  0  0
 21 15  1  0  0  0  0
 23 24  2  0  0  0  0
 23 25  1  0  0  0  0
 25 26  1  0  0  0  0
 27 28  2  0  0  0  0
 28 31  1  0  0  0  0
 28 29  1  0  0  0  0
 29  1  1  0  0  0  0
 29 30  1  0  0  0  0
 31 32  1  0  0  0  0
 32 33  1  0  0  0  0
 33 34  1  0  0  0  0
 34 35  1  0  0  0  0
 35 36  2  0  0  0  0
 36 37  1  0  0  0  0
 37 38  2  0  0  0  0
 38 39  1  0  0  0  0
 38 40  1  0  0  0  0
 40 41  2  0  0  0  0
 41 35  1  0  0  0  0
M  END
>  <Activity>
32.3

>  <minimizedAffinity>
-9.37748

>  <RFScoreVS_v2>
5.97458347205

$$$$
HIPS7781
 OpenBabel05252300073D

 41 44  0  0  0  0  0  0  0  0999 V2000
   67.8979   73.4269   90.3886 C   0  0  0  0  0  0  0  0  0  0  0  0
   67.2306   73.0030   89.2295 C   0  0  0  0  0  0  0  0  0  0  0  0
   66.8006   73.9320   88.2818 C   0  0  0  0  0  0  0  0  0  0  0  0
   67.0225   75.2952   88.4843 C   0  0  0  0  0  0  0  0  0  0  0  0
   67.6622   75.7498   89.6552 C   0  0  0  0  0  0  0  0  0  0  0  0
   68.0861   74.8044   90.6074 C   0  0  0  0  0  0  0  0  0  0  0  0
   67.8966   77.1978   89.8767 C   0  0  0  0  0  0  0  0  0  0  0  0
   69.1546   77.7107   89.7931 N   0  0  0  0  0  0  0  0  0  0  0  0
   69.3977   79.0272   90.0151 C   0  0  0  0  0  0  0  0  0  0  0  0
   68.3426   79.8928   90.3269 C   0  0  0  0  0  0  0  0  0  0  0  0
   67.0565   79.3497   90.4177 C   0  0  0  0  0  0  0  0  0  0  0  0
   66.8615   78.0241   90.1907 N   0  0  0  0  0  0  0  0  0  0  0  0
   68.6002   81.3486   90.6056 C   0  0  0  0  0  0  0  0  0  0  0  0
   67.8655   82.1680   89.6967 O   0  0  0  0  0  0  0  0  0  0  0  0
   68.4281   82.9887   88.7043 C   0  0  0  0  0  0  0  0  0  0  0  0
   67.7005   83.4457   87.5911 C   0  0  0  0  0  0  0  0  0  0  0  0
   68.3128   84.2739   86.6488 C   0  0  0  0  0  0  0  0  0  0  0  0
   69.6577   84.6506   86.7798 C   0  0  0  0  0  0  0  0  0  0  0  0
   70.2101   85.4288   85.7549 O   0  0  0  0  0  0  0  0  0  0  0  0
   70.3985   84.2150   87.9111 C   0  0  0  0  0  0  0  0  0  0  0  0
   69.7651   83.3764   88.8507 C   0  0  0  0  0  0  0  0  0  0  0  0
   69.6799   85.6915   85.0284 H   0  0  0  0  0  0  0  0  0  0  0  0
   71.7978   84.6350   88.1787 C   0  0  0  0  0  0  0  0  0  0  0  0
   72.1751   85.8228   87.9758 O   0  0  0  0  0  0  0  0  0  0  0  0
   72.6982   83.7223   88.7353 O   0  0  0  0  0  0  0  0  0  0  0  0
   72.4321   82.8376   88.8915 H   0  0  0  0  0  0  0  0  0  0  0  0
   70.3882   73.4662   91.8400 O   0  0  0  0  0  0  0  0  0  0  0  0
   69.5835   72.5162   92.0488 C   0  0  0  0  0  0  0  0  0  0  0  0
   68.3332   72.4495   91.3471 N   0  0  0  0  0  0  0  0  0  0  0  0
   67.7380   71.6879   91.5340 H   0  0  0  0  0  0  0  0  0  0  0  0
   69.9670   71.4273   93.0102 C   0  0  0  0  0  0  0  0  0  0  0  0
   70.8506   71.9542   94.1477 C   0  0  0  0  0  0  0  0  0  0  0  0
   70.0485   72.6420   95.2659 C   0  0  0  0  0  0  0  0  0  0  0  0
   70.1001   74.0666   95.1648 O   0  0  0  0  0  0  0  0  0  0  0  0
   69.0279   74.8959   94.7968 C   0  0  0  0  0  0  0  0  0  0  0  0
   69.3140   76.0788   94.1036 C   0  0  0  0  0  0  0  0  0  0  0  0
   68.2785   76.9168   93.6751 C   0  0  0  0  0  0  0  0  0  0  0  0
   66.9475   76.5806   93.9460 C   0  0  0  0  0  0  0  0  0  0  0  0
   65.6494   77.6214   93.3879 Cl  0  0  0  0  0  0  0  0  0  0  0  0
   66.6527   75.4152   94.6555 C   0  0  0  0  0  0  0  0  0  0  0  0
   67.6875   74.5772   95.0882 C   0  0  0  0  0  0  0  0  0  0  0  0
  1  2  2  0  0  0  0
  2  3  1  0  0  0  0
  3  4  2  0  0  0  0
  4  5  1  0  0  0  0
  5  7  1  0  0  0  0
  5  6  2  0  0  0  0
  6  1  1  0  0  0  0
  7  8  2  0  0  0  0
  8  9  2  0  0  0  0
  9 10  2  0  0  0  0
 10 13  1  0  0  0  0
 10 11  1  0  0  0  0
 11 12  2  0  0  0  0
 12  7  2  0  0  0  0
 13 14  1  0  0  0  0
 14 15  1  0  0  0  0
 15 16  2  0  0  0  0
 16 17  1  0  0  0  0
 17 18  2  0  0  0  0
 18 19  1  0  0  0  0
 18 20  1  0  0  0  0
 19 22  1  0  0  0  0
 20 23  1  0  0  0  0
 20 21  2  0  0  0  0
 21 15  1  0  0  0  0
 23 24  2  0  0  0  0
 23 25  1  0  0  0  0
 25 26  1  0  0  0  0
 27 28  2  0  0  0  0
 28 31  1  0  0  0  0
 28 29  1  0  0  0  0
 29  1  1  0  0  0  0
 29 30  1  0  0  0  0
 31 32  1  0  0  0  0
 32 33  1  0  0  0  0
 33 34  1  0  0  0  0
 34 35  1  0  0  0  0
 35 36  2  0  0  0  0
 36 37  1  0  0  0  0
 37 38  2  0  0  0  0
 38 39  1  0  0  0  0
 38 40  1  0  0  0  0
 40 41  2  0  0  0  0
 41 35  1  0  0  0  0
M  END
>  <Activity>
32.3

>  <minimizedAffinity>
-8.85038

>  <RFScoreVS_v2>
5.97429510423

$$$$
HIPS7781
 OpenBabel05252300073D

 41 44  0  0  0  0  0  0  0  0999 V2000
   68.2172   75.3902   90.2457 C   0  0  0  0  0  0  0  0  0  0  0  0
   67.4291   74.7997   89.2463 C   0  0  0  0  0  0  0  0  0  0  0  0
   67.2954   73.4127   89.1790 C   0  0  0  0  0  0  0  0  0  0  0  0
   67.9543   72.5986   90.1019 C   0  0  0  0  0  0  0  0  0  0  0  0
   68.7774   73.1649   91.0962 C   0  0  0  0  0  0  0  0  0  0  0  0
   68.9101   74.5648   91.1507 C   0  0  0  0  0  0  0  0  0  0  0  0
   69.4829   72.3035   92.0765 C   0  0  0  0  0  0  0  0  0  0  0  0
   69.3887   70.9481   91.9928 N   0  0  0  0  0  0  0  0  0  0  0  0
   70.0050   70.1396   92.8917 C   0  0  0  0  0  0  0  0  0  0  0  0
   70.7672   70.6939   93.9269 C   0  0  0  0  0  0  0  0  0  0  0  0
   70.8477   72.0883   94.0052 C   0  0  0  0  0  0  0  0  0  0  0  0
   70.2103   72.8581   93.0844 N   0  0  0  0  0  0  0  0  0  0  0  0
   71.4313   69.8117   94.9489 C   0  0  0  0  0  0  0  0  0  0  0  0
   72.2524   68.8363   94.3074 O   0  0  0  0  0  0  0  0  0  0  0  0
   73.3766   69.1157   93.5118 C   0  0  0  0  0  0  0  0  0  0  0  0
   73.4741   68.7211   92.1656 C   0  0  0  0  0  0  0  0  0  0  0  0
   74.6112   69.0452   91.4234 C   0  0  0  0  0  0  0  0  0  0  0  0
   75.6783   69.7484   92.0019 C   0  0  0  0  0  0  0  0  0  0  0  0
   76.8073   69.9736   91.2046 O   0  0  0  0  0  0  0  0  0  0  0  0
   75.5840   70.1732   93.3543 C   0  0  0  0  0  0  0  0  0  0  0  0
   74.4300   69.8340   94.0895 C   0  0  0  0  0  0  0  0  0  0  0  0
   76.8214   69.6737   90.3170 H   0  0  0  0  0  0  0  0  0  0  0  0
   76.6232   70.9971   94.0231 C   0  0  0  0  0  0  0  0  0  0  0  0
   77.0618   72.0553   93.4919 O   0  0  0  0  0  0  0  0  0  0  0  0
   77.0736   70.6397   95.2970 O   0  0  0  0  0  0  0  0  0  0  0  0
   76.7568   69.8572   95.7036 H   0  0  0  0  0  0  0  0  0  0  0  0
   66.3055   77.2868   89.2168 O   0  0  0  0  0  0  0  0  0  0  0  0
   67.3515   77.7253   89.7712 C   0  0  0  0  0  0  0  0  0  0  0  0
   68.3356   76.8210   90.2947 N   0  0  0  0  0  0  0  0  0  0  0  0
   69.1403   77.2045   90.7126 H   0  0  0  0  0  0  0  0  0  0  0  0
   67.5794   79.2087   89.8393 C   0  0  0  0  0  0  0  0  0  0  0  0
   66.4404   79.9289   90.5716 C   0  0  0  0  0  0  0  0  0  0  0  0
   66.0917   79.2863   91.9253 C   0  0  0  0  0  0  0  0  0  0  0  0
   67.2527   78.8054   92.6059 O   0  0  0  0  0  0  0  0  0  0  0  0
   67.3238   77.6204   93.3566 C   0  0  0  0  0  0  0  0  0  0  0  0
   66.1274   76.9632   93.6702 C   0  0  0  0  0  0  0  0  0  0  0  0
   66.1470   75.7557   94.3772 C   0  0  0  0  0  0  0  0  0  0  0  0
   67.3658   75.2014   94.7837 C   0  0  0  0  0  0  0  0  0  0  0  0
   67.3893   73.6755   95.6503 Cl  0  0  0  0  0  0  0  0  0  0  0  0
   68.5624   75.8598   94.4955 C   0  0  0  0  0  0  0  0  0  0  0  0
   68.5448   77.0698   93.7914 C   0  0  0  0  0  0  0  0  0  0  0  0
  1  2  2  0  0  0  0
  2  3  1  0  0  0  0
  3  4  2  0  0  0  0
  4  5  1  0  0  0  0
  5  7  1  0  0  0  0
  5  6  2  0  0  0  0
  6  1  1  0  0  0  0
  7  8  2  0  0  0  0
  8  9  2  0  0  0  0
  9 10  2  0  0  0  0
 10 13  1  0  0  0  0
 10 11  1  0  0  0  0
 11 12  2  0  0  0  0
 12  7  2  0  0  0  0
 13 14  1  0  0  0  0
 14 15  1  0  0  0  0
 15 16  2  0  0  0  0
 16 17  1  0  0  0  0
 17 18  2  0  0  0  0
 18 19  1  0  0  0  0
 18 20  1  0  0  0  0
 19 22  1  0  0  0  0
 20 23  1  0  0  0  0
 20 21  2  0  0  0  0
 21 15  1  0  0  0  0
 23 24  2  0  0  0  0
 23 25  1  0  0  0  0
 25 26  1  0  0  0  0
 27 28  2  0  0  0  0
 28 31  1  0  0  0  0
 28 29  1  0  0  0  0
 29  1  1  0  0  0  0
 29 30  1  0  0  0  0
 31 32  1  0  0  0  0
 32 33  1  0  0  0  0
 33 34  1  0  0  0  0
 34 35  1  0  0  0  0
 35 36  2  0  0  0  0
 36 37  1  0  0  0  0
 37 38  2  0  0  0  0
 38 39  1  0  0  0  0
 38 40  1  0  0  0  0
 40 41  2  0  0  0  0
 41 35  1  0  0  0  0
M  END
>  <Activity>
32.3

>  <minimizedAffinity>
-8.66432

>  <RFScoreVS_v2>
5.97077336658

$$$$
HIPS7781
 OpenBabel05252300073D

 41 44  0  0  0  0  0  0  0  0999 V2000
   67.7559   76.4719   89.2084 C   0  0  0  0  0  0  0  0  0  0  0  0
   66.9564   75.8102   88.2643 C   0  0  0  0  0  0  0  0  0  0  0  0
   66.7994   74.4250   88.3178 C   0  0  0  0  0  0  0  0  0  0  0  0
   67.4462   73.6831   89.3076 C   0  0  0  0  0  0  0  0  0  0  0  0
   68.2804   74.3197   90.2488 C   0  0  0  0  0  0  0  0  0  0  0  0
   68.4366   75.7166   90.1815 C   0  0  0  0  0  0  0  0  0  0  0  0
   68.9731   73.5349   91.2999 C   0  0  0  0  0  0  0  0  0  0  0  0
   69.2145   72.2076   91.1193 N   0  0  0  0  0  0  0  0  0  0  0  0
   69.8248   71.4633   92.0759 C   0  0  0  0  0  0  0  0  0  0  0  0
   70.2316   72.0592   93.2755 C   0  0  0  0  0  0  0  0  0  0  0  0
   69.9690   73.4222   93.4504 C   0  0  0  0  0  0  0  0  0  0  0  0
   69.3516   74.1266   92.4658 N   0  0  0  0  0  0  0  0  0  0  0  0
   70.8819   71.2411   94.3578 C   0  0  0  0  0  0  0  0  0  0  0  0
   71.3905   70.0198   93.8221 O   0  0  0  0  0  0  0  0  0  0  0  0
   72.6428   69.8617   93.2041 C   0  0  0  0  0  0  0  0  0  0  0  0
   72.8054   69.2118   91.9678 C   0  0  0  0  0  0  0  0  0  0  0  0
   74.0751   69.1031   91.3977 C   0  0  0  0  0  0  0  0  0  0  0  0
   75.2074   69.6181   92.0461 C   0  0  0  0  0  0  0  0  0  0  0  0
   76.4497   69.4070   91.4352 O   0  0  0  0  0  0  0  0  0  0  0  0
   75.0552   70.2971   93.2847 C   0  0  0  0  0  0  0  0  0  0  0  0
   73.7662   70.3944   93.8472 C   0  0  0  0  0  0  0  0  0  0  0  0
   76.4983   68.9529   90.6170 H   0  0  0  0  0  0  0  0  0  0  0  0
   76.1817   70.9507   93.9986 C   0  0  0  0  0  0  0  0  0  0  0  0
   77.1370   71.4822   93.3667 O   0  0  0  0  0  0  0  0  0  0  0  0
   76.1526   71.0476   95.3926 O   0  0  0  0  0  0  0  0  0  0  0  0
   75.4498   70.6581   95.8747 H   0  0  0  0  0  0  0  0  0  0  0  0
   66.7303   78.3818   91.1085 O   0  0  0  0  0  0  0  0  0  0  0  0
   67.3721   78.8103   90.1094 C   0  0  0  0  0  0  0  0  0  0  0  0
   67.8983   77.8994   89.1329 N   0  0  0  0  0  0  0  0  0  0  0  0
   68.3863   78.2756   88.3651 H   0  0  0  0  0  0  0  0  0  0  0  0
   67.5433   80.2917   89.9272 C   0  0  0  0  0  0  0  0  0  0  0  0
   67.7933   80.6621   88.4601 C   0  0  0  0  0  0  0  0  0  0  0  0
   67.3871   82.1076   88.1249 C   0  0  0  0  0  0  0  0  0  0  0  0
   68.2047   82.6699   87.0964 O   0  0  0  0  0  0  0  0  0  0  0  0
   69.2170   83.6238   87.2916 C   0  0  0  0  0  0  0  0  0  0  0  0
   68.8851   84.9777   87.1560 C   0  0  0  0  0  0  0  0  0  0  0  0
   69.8463   85.9689   87.3843 C   0  0  0  0  0  0  0  0  0  0  0  0
   71.1509   85.6107   87.7415 C   0  0  0  0  0  0  0  0  0  0  0  0
   72.3487   86.8558   88.0495 Cl  0  0  0  0  0  0  0  0  0  0  0  0
   71.4977   84.2636   87.8576 C   0  0  0  0  0  0  0  0  0  0  0  0
   70.5384   83.2703   87.6262 C   0  0  0  0  0  0  0  0  0  0  0  0
  1  2  2  0  0  0  0
  2  3  1  0  0  0  0
  3  4  2  0  0  0  0
  4  5  1  0  0  0  0
  5  7  1  0  0  0  0
  5  6  2  0  0  0  0
  6  1  1  0  0  0  0
  7  8  2  0  0  0  0
  8  9  2  0  0  0  0
  9 10  2  0  0  0  0
 10 13  1  0  0  0  0
 10 11  1  0  0  0  0
 11 12  2  0  0  0  0
 12  7  2  0  0  0  0
 13 14  1  0  0  0  0
 14 15  1  0  0  0  0
 15 16  2  0  0  0  0
 16 17  1  0  0  0  0
 17 18  2  0  0  0  0
 18 19  1  0  0  0  0
 18 20  1  0  0  0  0
 19 22  1  0  0  0  0
 20 23  1  0  0  0  0
 20 21  2  0  0  0  0
 21 15  1  0  0  0  0
 23 24  2  0  0  0  0
 23 25  1  0  0  0  0
 25 26  1  0  0  0  0
 27 28  2  0  0  0  0
 28 31  1  0  0  0  0
 28 29  1  0  0  0  0
 29  1  1  0  0  0  0
 29 30  1  0  0  0  0
 31 32  1  0  0  0  0
 32 33  1  0  0  0  0
 33 34  1  0  0  0  0
 34 35  1  0  0  0  0
 35 36  2  0  0  0  0
 36 37  1  0  0  0  0
 37 38  2  0  0  0  0
 38 39  1  0  0  0  0
 38 40  1  0  0  0  0
 40 41  2  0  0  0  0
 41 35  1  0  0  0  0
M  END
>  <Activity>
32.3

>  <minimizedAffinity>
-8.53059

>  <RFScoreVS_v2>
5.96542833103

$$$$
HIPS7781
 OpenBabel05252300073D

 41 44  0  0  0  0  0  0  0  0999 V2000
   68.0579   74.4847   90.0803 C   0  0  0  0  0  0  0  0  0  0  0  0
   67.3801   73.9774   88.9616 C   0  0  0  0  0  0  0  0  0  0  0  0
   66.6615   74.8305   88.1238 C   0  0  0  0  0  0  0  0  0  0  0  0
   66.6027   76.1979   88.3982 C   0  0  0  0  0  0  0  0  0  0  0  0
   67.2483   76.7285   89.5333 C   0  0  0  0  0  0  0  0  0  0  0  0
   67.9650   75.8577   90.3750 C   0  0  0  0  0  0  0  0  0  0  0  0
   67.1851   78.1803   89.8312 C   0  0  0  0  0  0  0  0  0  0  0  0
   67.8611   78.6932   90.8956 N   0  0  0  0  0  0  0  0  0  0  0  0
   67.7996   80.0136   91.2027 C   0  0  0  0  0  0  0  0  0  0  0  0
   67.0388   80.8831   90.4123 C   0  0  0  0  0  0  0  0  0  0  0  0
   66.3428   80.3402   89.3270 C   0  0  0  0  0  0  0  0  0  0  0  0
   66.4312   79.0106   89.0600 N   0  0  0  0  0  0  0  0  0  0  0  0
   66.9363   82.3439   90.7577 C   0  0  0  0  0  0  0  0  0  0  0  0
   68.1995   82.9862   90.5878 O   0  0  0  0  0  0  0  0  0  0  0  0
   68.6525   83.5894   89.4021 C   0  0  0  0  0  0  0  0  0  0  0  0
   67.7911   83.9324   88.3448 C   0  0  0  0  0  0  0  0  0  0  0  0
   68.3012   84.5463   87.1995 C   0  0  0  0  0  0  0  0  0  0  0  0
   69.6719   84.8160   87.0710 C   0  0  0  0  0  0  0  0  0  0  0  0
   70.1068   85.3733   85.8621 O   0  0  0  0  0  0  0  0  0  0  0  0
   70.5505   84.4957   88.1404 C   0  0  0  0  0  0  0  0  0  0  0  0
   70.0184   83.8730   89.2879 C   0  0  0  0  0  0  0  0  0  0  0  0
   69.4878   85.5671   85.1860 H   0  0  0  0  0  0  0  0  0  0  0  0
   71.9989   84.8242   88.1302 C   0  0  0  0  0  0  0  0  0  0  0  0
   72.8658   83.9731   88.4744 O   0  0  0  0  0  0  0  0  0  0  0  0
   72.4208   86.0715   87.6613 O   0  0  0  0  0  0  0  0  0  0  0  0
   71.7888   86.7130   87.4024 H   0  0  0  0  0  0  0  0  0  0  0  0
   66.9252   72.5027   91.8407 O   0  0  0  0  0  0  0  0  0  0  0  0
   68.1818   72.6100   91.7825 C   0  0  0  0  0  0  0  0  0  0  0  0
   68.7934   73.5850   90.9250 N   0  0  0  0  0  0  0  0  0  0  0  0
   69.7763   73.6407   90.9152 H   0  0  0  0  0  0  0  0  0  0  0  0
   69.0344   71.7340   92.6558 C   0  0  0  0  0  0  0  0  0  0  0  0
   70.2491   72.4886   93.2102 C   0  0  0  0  0  0  0  0  0  0  0  0
   70.2942   72.5130   94.7477 C   0  0  0  0  0  0  0  0  0  0  0  0
   70.0570   73.8217   95.2707 O   0  0  0  0  0  0  0  0  0  0  0  0
   69.0105   74.6752   94.8846 C   0  0  0  0  0  0  0  0  0  0  0  0
   69.3405   75.8980   94.2867 C   0  0  0  0  0  0  0  0  0  0  0  0
   68.3345   76.7639   93.8433 C   0  0  0  0  0  0  0  0  0  0  0  0
   66.9889   76.4153   94.0040 C   0  0  0  0  0  0  0  0  0  0  0  0
   65.7293   77.4923   93.4268 Cl  0  0  0  0  0  0  0  0  0  0  0  0
   66.6493   75.2090   94.6188 C   0  0  0  0  0  0  0  0  0  0  0  0
   67.6542   74.3428   95.0663 C   0  0  0  0  0  0  0  0  0  0  0  0
  1  2  2  0  0  0  0
  2  3  1  0  0  0  0
  3  4  2  0  0  0  0
  4  5  1  0  0  0  0
  5  7  1  0  0  0  0
  5  6  2  0  0  0  0
  6  1  1  0  0  0  0
  7  8  2  0  0  0  0
  8  9  2  0  0  0  0
  9 10  2  0  0  0  0
 10 13  1  0  0  0  0
 10 11  1  0  0  0  0
 11 12  2  0  0  0  0
 12  7  2  0  0  0  0
 13 14  1  0  0  0  0
 14 15  1  0  0  0  0
 15 16  2  0  0  0  0
 16 17  1  0  0  0  0
 17 18  2  0  0  0  0
 18 19  1  0  0  0  0
 18 20  1  0  0  0  0
 19 22  1  0  0  0  0
 20 23  1  0  0  0  0
 20 21  2  0  0  0  0
 21 15  1  0  0  0  0
 23 24  2  0  0  0  0
 23 25  1  0  0  0  0
 25 26  1  0  0  0  0
 27 28  2  0  0  0  0
 28 31  1  0  0  0  0
 28 29  1  0  0  0  0
 29  1  1  0  0  0  0
 29 30  1  0  0  0  0
 31 32  1  0  0  0  0
 32 33  1  0  0  0  0
 33 34  1  0  0  0  0
 34 35  1  0  0  0  0
 35 36  2  0  0  0  0
 36 37  1  0  0  0  0
 37 38  2  0  0  0  0
 38 39  1  0  0  0  0
 38 40  1  0  0  0  0
 40 41  2  0  0  0  0
 41 35  1  0  0  0  0
M  END
>  <Activity>
32.3

>  <minimizedAffinity>
-8.40980

>  <RFScoreVS_v2>
5.97042237746

$$$$
HIPS7781
 OpenBabel05252300073D

 41 44  0  0  0  0  0  0  0  0999 V2000
   68.1124   73.4781   89.9969 C   0  0  0  0  0  0  0  0  0  0  0  0
   67.4360   72.5721   89.1663 C   0  0  0  0  0  0  0  0  0  0  0  0
   66.6228   73.0338   88.1311 C   0  0  0  0  0  0  0  0  0  0  0  0
   66.4672   74.4047   87.9190 C   0  0  0  0  0  0  0  0  0  0  0  0
   67.1104   75.3363   88.7589 C   0  0  0  0  0  0  0  0  0  0  0  0
   67.9232   74.8593   89.8039 C   0  0  0  0  0  0  0  0  0  0  0  0
   66.9447   76.7941   88.5400 C   0  0  0  0  0  0  0  0  0  0  0  0
   67.5812   77.4101   87.5064 N   0  0  0  0  0  0  0  0  0  0  0  0
   67.4646   78.7463   87.2998 C   0  0  0  0  0  0  0  0  0  0  0  0
   66.6680   79.5211   88.1512 C   0  0  0  0  0  0  0  0  0  0  0  0
   66.0271   78.8756   89.2140 C   0  0  0  0  0  0  0  0  0  0  0  0
   66.1761   77.5355   89.3839 N   0  0  0  0  0  0  0  0  0  0  0  0
   66.5532   81.0081   87.9533 C   0  0  0  0  0  0  0  0  0  0  0  0
   67.5667   81.4723   87.0620 O   0  0  0  0  0  0  0  0  0  0  0  0
   68.2271   82.7094   87.1546 C   0  0  0  0  0  0  0  0  0  0  0  0
   67.6403   83.9187   86.7416 C   0  0  0  0  0  0  0  0  0  0  0  0
   68.3427   85.1176   86.8766 C   0  0  0  0  0  0  0  0  0  0  0  0
   69.6421   85.1410   87.4048 C   0  0  0  0  0  0  0  0  0  0  0  0
   70.2983   86.3776   87.4431 O   0  0  0  0  0  0  0  0  0  0  0  0
   70.2386   83.9299   87.8471 C   0  0  0  0  0  0  0  0  0  0  0  0
   69.5161   82.7284   87.6999 C   0  0  0  0  0  0  0  0  0  0  0  0
   69.8619   87.1491   87.1395 H   0  0  0  0  0  0  0  0  0  0  0  0
   71.5716   83.8699   88.4995 C   0  0  0  0  0  0  0  0  0  0  0  0
   71.7402   83.2543   89.5889 O   0  0  0  0  0  0  0  0  0  0  0  0
   72.6780   84.4399   87.8634 O   0  0  0  0  0  0  0  0  0  0  0  0
   72.5679   84.8997   87.0544 H   0  0  0  0  0  0  0  0  0  0  0  0
   67.2083   72.5136   92.5587 O   0  0  0  0  0  0  0  0  0  0  0  0
   68.4465   72.5019   92.3126 C   0  0  0  0  0  0  0  0  0  0  0  0
   68.9463   72.9764   91.0536 N   0  0  0  0  0  0  0  0  0  0  0  0
   69.9194   72.9568   90.9052 H   0  0  0  0  0  0  0  0  0  0  0  0
   69.4006   72.0258   93.3709 C   0  0  0  0  0  0  0  0  0  0  0  0
   69.6961   73.1174   94.4069 C   0  0  0  0  0  0  0  0  0  0  0  0
   69.3209   74.5280   93.9212 C   0  0  0  0  0  0  0  0  0  0  0  0
   70.2648   75.0394   92.9778 O   0  0  0  0  0  0  0  0  0  0  0  0
   70.1315   76.2408   92.2626 C   0  0  0  0  0  0  0  0  0  0  0  0
   71.2449   76.7200   91.5609 C   0  0  0  0  0  0  0  0  0  0  0  0
   71.1513   77.8885   90.7965 C   0  0  0  0  0  0  0  0  0  0  0  0
   69.9430   78.5915   90.7364 C   0  0  0  0  0  0  0  0  0  0  0  0
   69.8214   80.0440   89.7590 Cl  0  0  0  0  0  0  0  0  0  0  0  0
   68.8336   78.1345   91.4498 C   0  0  0  0  0  0  0  0  0  0  0  0
   68.9262   76.9676   92.2180 C   0  0  0  0  0  0  0  0  0  0  0  0
  1  2  2  0  0  0  0
  2  3  1  0  0  0  0
  3  4  2  0  0  0  0
  4  5  1  0  0  0  0
  5  7  1  0  0  0  0
  5  6  2  0  0  0  0
  6  1  1  0  0  0  0
  7  8  2  0  0  0  0
  8  9  2  0  0  0  0
  9 10  2  0  0  0  0
 10 13  1  0  0  0  0
 10 11  1  0  0  0  0
 11 12  2  0  0  0  0
 12  7  2  0  0  0  0
 13 14  1  0  0  0  0
 14 15  1  0  0  0  0
 15 16  2  0  0  0  0
 16 17  1  0  0  0  0
 17 18  2  0  0  0  0
 18 19  1  0  0  0  0
 18 20  1  0  0  0  0
 19 22  1  0  0  0  0
 20 23  1  0  0  0  0
 20 21  2  0  0  0  0
 21 15  1  0  0  0  0
 23 24  2  0  0  0  0
 23 25  1  0  0  0  0
 25 26  1  0  0  0  0
 27 28  2  0  0  0  0
 28 31  1  0  0  0  0
 28 29  1  0  0  0  0
 29  1  1  0  0  0  0
 29 30  1  0  0  0  0
 31 32  1  0  0  0  0
 32 33  1  0  0  0  0
 33 34  1  0  0  0  0
 34 35  1  0  0  0  0
 35 36  2  0  0  0  0
 36 37  1  0  0  0  0
 37 38  2  0  0  0  0
 38 39  1  0  0  0  0
 38 40  1  0  0  0  0
 40 41  2  0  0  0  0
 41 35  1  0  0  0  0
M  END
>  <Activity>
32.3

>  <minimizedAffinity>
-8.34414

>  <RFScoreVS_v2>
5.98571570474

$$$$
HIPS7781
 OpenBabel05252300073D

 41 44  0  0  0  0  0  0  0  0999 V2000
   68.3174   76.7093   90.1468 C   0  0  0  0  0  0  0  0  0  0  0  0
   67.4897   76.3554   89.0706 C   0  0  0  0  0  0  0  0  0  0  0  0
   67.2146   75.0145   88.8016 C   0  0  0  0  0  0  0  0  0  0  0  0
   67.7700   74.0109   89.5971 C   0  0  0  0  0  0  0  0  0  0  0  0
   68.6302   74.3380   90.6649 C   0  0  0  0  0  0  0  0  0  0  0  0
   68.9058   75.6936   90.9231 C   0  0  0  0  0  0  0  0  0  0  0  0
   69.2261   73.2747   91.5104 C   0  0  0  0  0  0  0  0  0  0  0  0
   69.1427   71.9695   91.1330 N   0  0  0  0  0  0  0  0  0  0  0  0
   69.6587   70.9770   91.9012 C   0  0  0  0  0  0  0  0  0  0  0  0
   70.3038   71.2846   93.1050 C   0  0  0  0  0  0  0  0  0  0  0  0
   70.3741   72.6294   93.4839 C   0  0  0  0  0  0  0  0  0  0  0  0
   69.8395   73.5892   92.6840 N   0  0  0  0  0  0  0  0  0  0  0  0
   70.8540   70.1932   93.9822 C   0  0  0  0  0  0  0  0  0  0  0  0
   71.5134   69.2037   93.1927 O   0  0  0  0  0  0  0  0  0  0  0  0
   72.8321   69.2903   92.7148 C   0  0  0  0  0  0  0  0  0  0  0  0
   73.2385   68.7233   91.4938 C   0  0  0  0  0  0  0  0  0  0  0  0
   74.5603   68.8599   91.0661 C   0  0  0  0  0  0  0  0  0  0  0  0
   75.5071   69.5428   91.8441 C   0  0  0  0  0  0  0  0  0  0  0  0
   76.8248   69.5753   91.3711 O   0  0  0  0  0  0  0  0  0  0  0  0
   75.1054   70.1402   93.0688 C   0  0  0  0  0  0  0  0  0  0  0  0
   73.7675   69.9892   93.4867 C   0  0  0  0  0  0  0  0  0  0  0  0
   77.0403   69.1661   90.5562 H   0  0  0  0  0  0  0  0  0  0  0  0
   76.0149   70.9560   93.9134 C   0  0  0  0  0  0  0  0  0  0  0  0
   76.8019   71.8004   93.4017 O   0  0  0  0  0  0  0  0  0  0  0  0
   75.9501   70.8445   95.3052 O   0  0  0  0  0  0  0  0  0  0  0  0
   75.3707   70.2223   95.6989 H   0  0  0  0  0  0  0  0  0  0  0  0
   70.7870   78.0942   89.6051 O   0  0  0  0  0  0  0  0  0  0  0  0
   69.8299   78.7435   90.1114 C   0  0  0  0  0  0  0  0  0  0  0  0
   68.5821   78.0976   90.4041 N   0  0  0  0  0  0  0  0  0  0  0  0
   67.8642   78.6387   90.8054 H   0  0  0  0  0  0  0  0  0  0  0  0
   70.0242   80.1949   90.4472 C   0  0  0  0  0  0  0  0  0  0  0  0
   71.4560   80.6619   90.1576 C   0  0  0  0  0  0  0  0  0  0  0  0
   71.8727   81.8846   90.9932 C   0  0  0  0  0  0  0  0  0  0  0  0
   71.6823   83.1100   90.2827 O   0  0  0  0  0  0  0  0  0  0  0  0
   70.5748   83.4197   89.4763 C   0  0  0  0  0  0  0  0  0  0  0  0
   70.7275   83.3460   88.0860 C   0  0  0  0  0  0  0  0  0  0  0  0
   69.6426   83.6011   87.2398 C   0  0  0  0  0  0  0  0  0  0  0  0
   68.3974   83.9412   87.7801 C   0  0  0  0  0  0  0  0  0  0  0  0
   67.0325   84.2384   86.7178 Cl  0  0  0  0  0  0  0  0  0  0  0  0
   68.2404   84.0391   89.1636 C   0  0  0  0  0  0  0  0  0  0  0  0
   69.3256   83.7878   90.0119 C   0  0  0  0  0  0  0  0  0  0  0  0
  1  2  2  0  0  0  0
  2  3  1  0  0  0  0
  3  4  2  0  0  0  0
  4  5  1  0  0  0  0
  5  7  1  0  0  0  0
  5  6  2  0  0  0  0
  6  1  1  0  0  0  0
  7  8  2  0  0  0  0
  8  9  2  0  0  0  0
  9 10  2  0  0  0  0
 10 13  1  0  0  0  0
 10 11  1  0  0  0  0
 11 12  2  0  0  0  0
 12  7  2  0  0  0  0
 13 14  1  0  0  0  0
 14 15  1  0  0  0  0
 15 16  2  0  0  0  0
 16 17  1  0  0  0  0
 17 18  2  0  0  0  0
 18 19  1  0  0  0  0
 18 20  1  0  0  0  0
 19 22  1  0  0  0  0
 20 23  1  0  0  0  0
 20 21  2  0  0  0  0
 21 15  1  0  0  0  0
 23 24  2  0  0  0  0
 23 25  1  0  0  0  0
 25 26  1  0  0  0  0
 27 28  2  0  0  0  0
 28 31  1  0  0  0  0
 28 29  1  0  0  0  0
 29  1  1  0  0  0  0
 29 30  1  0  0  0  0
 31 32  1  0  0  0  0
 32 33  1  0  0  0  0
 33 34  1  0  0  0  0
 34 35  1  0  0  0  0
 35 36  2  0  0  0  0
 36 37  1  0  0  0  0
 37 38  2  0  0  0  0
 38 39  1  0  0  0  0
 38 40  1  0  0  0  0
 40 41  2  0  0  0  0
 41 35  1  0  0  0  0
M  END
>  <Activity>
32.3

>  <minimizedAffinity>
-8.28292

>  <RFScoreVS_v2>
5.95468485965

$$$$
HIPS7781
 OpenBabel05252300073D

 41 44  0  0  0  0  0  0  0  0999 V2000
   67.3138   78.8139   88.6780 C   0  0  0  0  0  0  0  0  0  0  0  0
   66.8472   78.2497   87.4812 C   0  0  0  0  0  0  0  0  0  0  0  0
   66.8545   76.8663   87.3020 C   0  0  0  0  0  0  0  0  0  0  0  0
   67.3366   76.0305   88.3107 C   0  0  0  0  0  0  0  0  0  0  0  0
   67.8404   76.5735   89.5100 C   0  0  0  0  0  0  0  0  0  0  0  0
   67.8341   77.9707   89.6774 C   0  0  0  0  0  0  0  0  0  0  0  0
   68.3576   75.6895   90.5832 C   0  0  0  0  0  0  0  0  0  0  0  0
   67.7916   74.4710   90.8018 N   0  0  0  0  0  0  0  0  0  0  0  0
   68.2311   73.6546   91.7927 C   0  0  0  0  0  0  0  0  0  0  0  0
   69.2957   74.0532   92.6098 C   0  0  0  0  0  0  0  0  0  0  0  0
   69.8616   75.3115   92.3788 C   0  0  0  0  0  0  0  0  0  0  0  0
   69.3857   76.0966   91.3768 N   0  0  0  0  0  0  0  0  0  0  0  0
   69.7743   73.1724   93.7317 C   0  0  0  0  0  0  0  0  0  0  0  0
   69.5061   71.8015   93.4386 O   0  0  0  0  0  0  0  0  0  0  0  0
   70.3745   70.9299   92.7595 C   0  0  0  0  0  0  0  0  0  0  0  0
   69.9560   70.1181   91.6902 C   0  0  0  0  0  0  0  0  0  0  0  0
   70.8726   69.2861   91.0449 C   0  0  0  0  0  0  0  0  0  0  0  0
   72.2129   69.2281   91.4550 C   0  0  0  0  0  0  0  0  0  0  0  0
   73.0482   68.3180   90.7955 O   0  0  0  0  0  0  0  0  0  0  0  0
   72.6548   70.0594   92.5189 C   0  0  0  0  0  0  0  0  0  0  0  0
   71.7147   70.8907   93.1613 C   0  0  0  0  0  0  0  0  0  0  0  0
   72.7094   67.7911   90.0986 H   0  0  0  0  0  0  0  0  0  0  0  0
   74.0706   70.1307   92.9621 C   0  0  0  0  0  0  0  0  0  0  0  0
   74.6719   69.1102   93.3995 O   0  0  0  0  0  0  0  0  0  0  0  0
   74.7775   71.3287   92.8253 O   0  0  0  0  0  0  0  0  0  0  0  0
   74.3443   72.0940   92.5019 H   0  0  0  0  0  0  0  0  0  0  0  0
   66.4611   80.2441   91.0312 O   0  0  0  0  0  0  0  0  0  0  0  0
   66.8623   80.9074   90.0348 C   0  0  0  0  0  0  0  0  0  0  0  0
   67.2923   80.2414   88.8383 N   0  0  0  0  0  0  0  0  0  0  0  0
   67.5906   80.7963   88.0818 H   0  0  0  0  0  0  0  0  0  0  0  0
   66.8439   82.4083   90.0966 C   0  0  0  0  0  0  0  0  0  0  0  0
   68.1074   83.0213   89.4801 C   0  0  0  0  0  0  0  0  0  0  0  0
   67.8241   84.2940   88.6636 C   0  0  0  0  0  0  0  0  0  0  0  0
   68.8544   84.5597   87.7094 O   0  0  0  0  0  0  0  0  0  0  0  0
   69.9983   85.3406   87.9428 C   0  0  0  0  0  0  0  0  0  0  0  0
   71.2534   84.7478   87.7559 C   0  0  0  0  0  0  0  0  0  0  0  0
   72.4231   85.4956   87.9317 C   0  0  0  0  0  0  0  0  0  0  0  0
   72.3446   86.8418   88.3053 C   0  0  0  0  0  0  0  0  0  0  0  0
   73.8120   87.7838   88.5030 Cl  0  0  0  0  0  0  0  0  0  0  0  0
   71.0992   87.4361   88.5156 C   0  0  0  0  0  0  0  0  0  0  0  0
   69.9278   86.6886   88.3437 C   0  0  0  0  0  0  0  0  0  0  0  0
  1  2  2  0  0  0  0
  2  3  1  0  0  0  0
  3  4  2  0  0  0  0
  4  5  1  0  0  0  0
  5  7  1  0  0  0  0
  5  6  2  0  0  0  0
  6  1  1  0  0  0  0
  7  8  2  0  0  0  0
  8  9  2  0  0  0  0
  9 10  2  0  0  0  0
 10 13  1  0  0  0  0
 10 11  1  0  0  0  0
 11 12  2  0  0  0  0
 12  7  2  0  0  0  0
 13 14  1  0  0  0  0
 14 15  1  0  0  0  0
 15 16  2  0  0  0  0
 16 17  1  0  0  0  0
 17 18  2  0  0  0  0
 18 19  1  0  0  0  0
 18 20  1  0  0  0  0
 19 22  1  0  0  0  0
 20 23  1  0  0  0  0
 20 21  2  0  0  0  0
 21 15  1  0  0  0  0
 23 24  2  0  0  0  0
 23 25  1  0  0  0  0
 25 26  1  0  0  0  0
 27 28  2  0  0  0  0
 28 31  1  0  0  0  0
 28 29  1  0  0  0  0
 29  1  1  0  0  0  0
 29 30  1  0  0  0  0
 31 32  1  0  0  0  0
 32 33  1  0  0  0  0
 33 34  1  0  0  0  0
 34 35  1  0  0  0  0
 35 36  2  0  0  0  0
 36 37  1  0  0  0  0
 37 38  2  0  0  0  0
 38 39  1  0  0  0  0
 38 40  1  0  0  0  0
 40 41  2  0  0  0  0
 41 35  1  0  0  0  0
M  END
>  <Activity>
32.3

>  <minimizedAffinity>
-8.25274

>  <RFScoreVS_v2>
5.96808991549

$$$$
HIPS7781
 OpenBabel05252300073D

 41 44  0  0  0  0  0  0  0  0999 V2000
   69.0316   73.8013   90.8784 C   0  0  0  0  0  0  0  0  0  0  0  0
   68.2313   72.9571   90.0938 C   0  0  0  0  0  0  0  0  0  0  0  0
   67.2630   73.4909   89.2433 C   0  0  0  0  0  0  0  0  0  0  0  0
   67.0751   74.8723   89.1731 C   0  0  0  0  0  0  0  0  0  0  0  0
   67.8439   75.7407   89.9742 C   0  0  0  0  0  0  0  0  0  0  0  0
   68.8135   75.1909   90.8332 C   0  0  0  0  0  0  0  0  0  0  0  0
   67.6450   77.2091   89.9061 C   0  0  0  0  0  0  0  0  0  0  0  0
   68.5581   78.0525   90.4609 N   0  0  0  0  0  0  0  0  0  0  0  0
   68.3864   79.3983   90.4326 C   0  0  0  0  0  0  0  0  0  0  0  0
   67.2577   79.9488   89.8139 C   0  0  0  0  0  0  0  0  0  0  0  0
   66.3238   79.0694   89.2557 C   0  0  0  0  0  0  0  0  0  0  0  0
   66.5362   77.7282   89.3114 N   0  0  0  0  0  0  0  0  0  0  0  0
   67.0380   81.4371   89.8010 C   0  0  0  0  0  0  0  0  0  0  0  0
   67.1065   81.9398   88.4669 O   0  0  0  0  0  0  0  0  0  0  0  0
   67.7218   83.1431   88.0816 C   0  0  0  0  0  0  0  0  0  0  0  0
   68.0046   83.4587   86.7407 C   0  0  0  0  0  0  0  0  0  0  0  0
   68.6016   84.6796   86.4216 C   0  0  0  0  0  0  0  0  0  0  0  0
   68.9454   85.6016   87.4214 C   0  0  0  0  0  0  0  0  0  0  0  0
   69.6004   86.7721   87.0187 O   0  0  0  0  0  0  0  0  0  0  0  0
   68.6450   85.3060   88.7781 C   0  0  0  0  0  0  0  0  0  0  0  0
   68.0452   84.0670   89.0822 C   0  0  0  0  0  0  0  0  0  0  0  0
   69.7763   86.9218   86.1106 H   0  0  0  0  0  0  0  0  0  0  0  0
   68.8909   86.2570   89.8921 C   0  0  0  0  0  0  0  0  0  0  0  0
   68.3557   86.0922   91.0238 O   0  0  0  0  0  0  0  0  0  0  0  0
   69.7882   87.3135   89.7128 O   0  0  0  0  0  0  0  0  0  0  0  0
   70.1929   87.4480   88.8785 H   0  0  0  0  0  0  0  0  0  0  0  0
   68.7890   71.3182   92.3227 O   0  0  0  0  0  0  0  0  0  0  0  0
   69.8570   71.9814   92.4385 C   0  0  0  0  0  0  0  0  0  0  0  0
   70.0238   73.2261   91.7435 N   0  0  0  0  0  0  0  0  0  0  0  0
   70.8691   73.7153   91.8672 H   0  0  0  0  0  0  0  0  0  0  0  0
   70.9398   71.4759   93.3490 C   0  0  0  0  0  0  0  0  0  0  0  0
   70.5016   71.4859   94.8187 C   0  0  0  0  0  0  0  0  0  0  0  0
   70.1697   72.8948   95.3400 C   0  0  0  0  0  0  0  0  0  0  0  0
   68.7725   73.1832   95.2544 O   0  0  0  0  0  0  0  0  0  0  0  0
   68.2144   74.3519   94.7109 C   0  0  0  0  0  0  0  0  0  0  0  0
   66.8731   74.3195   94.3092 C   0  0  0  0  0  0  0  0  0  0  0  0
   66.2573   75.4698   93.8033 C   0  0  0  0  0  0  0  0  0  0  0  0
   66.9838   76.6601   93.6873 C   0  0  0  0  0  0  0  0  0  0  0  0
   66.2033   78.1074   93.0740 Cl  0  0  0  0  0  0  0  0  0  0  0  0
   68.3273   76.6971   94.0641 C   0  0  0  0  0  0  0  0  0  0  0  0
   68.9463   75.5463   94.5671 C   0  0  0  0  0  0  0  0  0  0  0  0
  1  2  2  0  0  0  0
  2  3  1  0  0  0  0
  3  4  2  0  0  0  0
  4  5  1  0  0  0  0
  5  7  1  0  0  0  0
  5  6  2  0  0  0  0
  6  1  1  0  0  0  0
  7  8  2  0  0  0  0
  8  9  2  0  0  0  0
  9 10  2  0  0  0  0
 10 13  1  0  0  0  0
 10 11  1  0  0  0  0
 11 12  2  0  0  0  0
 12  7  2  0  0  0  0
 13 14  1  0  0  0  0
 14 15  1  0  0  0  0
 15 16  2  0  0  0  0
 16 17  1  0  0  0  0
 17 18  2  0  0  0  0
 18 19  1  0  0  0  0
 18 20  1  0  0  0  0
 19 22  1  0  0  0  0
 20 23  1  0  0  0  0
 20 21  2  0  0  0  0
 21 15  1  0  0  0  0
 23 24  2  0  0  0  0
 23 25  1  0  0  0  0
 25 26  1  0  0  0  0
 27 28  2  0  0  0  0
 28 31  1  0  0  0  0
 28 29  1  0  0  0  0
 29  1  1  0  0  0  0
 29 30  1  0  0  0  0
 31 32  1  0  0  0  0
 32 33  1  0  0  0  0
 33 34  1  0  0  0  0
 34 35  1  0  0  0  0
 35 36  2  0  0  0  0
 36 37  1  0  0  0  0
 37 38  2  0  0  0  0
 38 39  1  0  0  0  0
 38 40  1  0  0  0  0
 40 41  2  0  0  0  0
 41 35  1  0  0  0  0
M  END
>  <Activity>
32.3

>  <minimizedAffinity>
-8.06442

>  <RFScoreVS_v2>
5.97812274038

$$$$
HIPS7781
 OpenBabel05252300073D

 41 44  0  0  0  0  0  0  0  0999 V2000
   68.2546   76.5283   90.0962 C   0  0  0  0  0  0  0  0  0  0  0  0
   67.4258   76.1244   89.0386 C   0  0  0  0  0  0  0  0  0  0  0  0
   67.1795   74.7702   88.8112 C   0  0  0  0  0  0  0  0  0  0  0  0
   67.7652   73.8032   89.6301 C   0  0  0  0  0  0  0  0  0  0  0  0
   68.6270   74.1810   90.6796 C   0  0  0  0  0  0  0  0  0  0  0  0
   68.8733   75.5495   90.8959 C   0  0  0  0  0  0  0  0  0  0  0  0
   69.2549   73.1567   91.5499 C   0  0  0  0  0  0  0  0  0  0  0  0
   69.2376   71.8444   91.1888 N   0  0  0  0  0  0  0  0  0  0  0  0
   69.7840   70.8863   91.9793 C   0  0  0  0  0  0  0  0  0  0  0  0
   70.3924   71.2383   93.1899 C   0  0  0  0  0  0  0  0  0  0  0  0
   70.3948   72.5896   93.5519 C   0  0  0  0  0  0  0  0  0  0  0  0
   69.8319   73.5138   92.7297 N   0  0  0  0  0  0  0  0  0  0  0  0
   70.9754   70.1843   94.0915 C   0  0  0  0  0  0  0  0  0  0  0  0
   71.6415   69.1832   93.3225 O   0  0  0  0  0  0  0  0  0  0  0  0
   72.9405   69.2913   92.7972 C   0  0  0  0  0  0  0  0  0  0  0  0
   73.3092   68.7388   91.5577 C   0  0  0  0  0  0  0  0  0  0  0  0
   74.6125   68.8965   91.0828 C   0  0  0  0  0  0  0  0  0  0  0  0
   75.5780   69.5864   91.8309 C   0  0  0  0  0  0  0  0  0  0  0  0
   76.8770   69.6402   91.3101 O   0  0  0  0  0  0  0  0  0  0  0  0
   75.2138   70.1693   93.0742 C   0  0  0  0  0  0  0  0  0  0  0  0
   73.8943   69.9971   93.5397 C   0  0  0  0  0  0  0  0  0  0  0  0
   77.0677   69.2400   90.4847 H   0  0  0  0  0  0  0  0  0  0  0  0
   76.1428   70.9911   93.8911 C   0  0  0  0  0  0  0  0  0  0  0  0
   76.9131   71.8361   93.3555 O   0  0  0  0  0  0  0  0  0  0  0  0
   76.1156   70.8847   95.2845 O   0  0  0  0  0  0  0  0  0  0  0  0
   75.5489   70.2621   95.6959 H   0  0  0  0  0  0  0  0  0  0  0  0
   70.6884   77.9520   89.4964 O   0  0  0  0  0  0  0  0  0  0  0  0
   69.7201   78.5942   89.9901 C   0  0  0  0  0  0  0  0  0  0  0  0
   68.4892   77.9293   90.3106 N   0  0  0  0  0  0  0  0  0  0  0  0
   67.7618   78.4657   90.7009 H   0  0  0  0  0  0  0  0  0  0  0  0
   69.8834   80.0589   90.2817 C   0  0  0  0  0  0  0  0  0  0  0  0
   68.8256   80.9061   89.5638 C   0  0  0  0  0  0  0  0  0  0  0  0
   69.3655   82.2629   89.0797 C   0  0  0  0  0  0  0  0  0  0  0  0
   68.7102   83.3602   89.7193 O   0  0  0  0  0  0  0  0  0  0  0  0
   68.6037   83.5477   91.1072 C   0  0  0  0  0  0  0  0  0  0  0  0
   69.7842   83.6674   91.8512 C   0  0  0  0  0  0  0  0  0  0  0  0
   69.7319   83.9003   93.2301 C   0  0  0  0  0  0  0  0  0  0  0  0
   68.4953   84.0061   93.8764 C   0  0  0  0  0  0  0  0  0  0  0  0
   68.4320   84.3209   95.6017 Cl  0  0  0  0  0  0  0  0  0  0  0  0
   67.3130   83.8662   93.1477 C   0  0  0  0  0  0  0  0  0  0  0  0
   67.3632   83.6296   91.7687 C   0  0  0  0  0  0  0  0  0  0  0  0
  1  2  2  0  0  0  0
  2  3  1  0  0  0  0
  3  4  2  0  0  0  0
  4  5  1  0  0  0  0
  5  7  1  0  0  0  0
  5  6  2  0  0  0  0
  6  1  1  0  0  0  0
  7  8  2  0  0  0  0
  8  9  2  0  0  0  0
  9 10  2  0  0  0  0
 10 13  1  0  0  0  0
 10 11  1  0  0  0  0
 11 12  2  0  0  0  0
 12  7  2  0  0  0  0
 13 14  1  0  0  0  0
 14 15  1  0  0  0  0
 15 16  2  0  0  0  0
 16 17  1  0  0  0  0
 17 18  2  0  0  0  0
 18 19  1  0  0  0  0
 18 20  1  0  0  0  0
 19 22  1  0  0  0  0
 20 23  1  0  0  0  0
 20 21  2  0  0  0  0
 21 15  1  0  0  0  0
 23 24  2  0  0  0  0
 23 25  1  0  0  0  0
 25 26  1  0  0  0  0
 27 28  2  0  0  0  0
 28 31  1  0  0  0  0
 28 29  1  0  0  0  0
 29  1  1  0  0  0  0
 29 30  1  0  0  0  0
 31 32  1  0  0  0  0
 32 33  1  0  0  0  0
 33 34  1  0  0  0  0
 34 35  1  0  0  0  0
 35 36  2  0  0  0  0
 36 37  1  0  0  0  0
 37 38  2  0  0  0  0
 38 39  1  0  0  0  0
 38 40  1  0  0  0  0
 40 41  2  0  0  0  0
 41 35  1  0  0  0  0
M  END
>  <Activity>
32.3

>  <minimizedAffinity>
-8.05667

>  <RFScoreVS_v2>
5.95743957752

$$$$
HIPS7785
 OpenBabel05252300073D

 42 46  0  0  0  0  0  0  0  0999 V2000
   66.8881   78.8793   91.9174 C   0  0  0  0  0  0  0  0  0  0  0  0
   65.6202   79.3328   92.2104 C   0  0  0  0  0  0  0  0  0  0  0  0
   65.0580   80.4251   91.5814 C   0  0  0  0  0  0  0  0  0  0  0  0
   65.7978   81.0925   90.6166 C   0  0  0  0  0  0  0  0  0  0  0  0
   67.0734   80.6689   90.2940 C   0  0  0  0  0  0  0  0  0  0  0  0
   67.5887   79.5716   90.9525 C   0  0  0  0  0  0  0  0  0  0  0  0
   68.6602   75.5347   93.8180 C   0  0  0  0  0  0  0  0  0  0  0  0
   67.3758   75.9355   94.1243 C   0  0  0  0  0  0  0  0  0  0  0  0
   66.8270   77.0038   93.5087 N   0  0  0  0  0  0  0  0  0  0  0  0
   67.4822   77.7234   92.5834 C   0  0  0  0  0  0  0  0  0  0  0  0
   68.7330   77.3373   92.2814 N   0  0  0  0  0  0  0  0  0  0  0  0
   69.3273   76.2790   92.8660 C   0  0  0  0  0  0  0  0  0  0  0  0
   69.2834   74.3582   94.4867 C   0  0  0  0  0  0  0  0  0  0  0  0
   70.2672   73.8129   93.6328 O   0  0  0  0  0  0  0  0  0  0  0  0
   70.5489   70.1543   93.6880 C   0  0  0  0  0  0  0  0  0  0  0  0
   70.6072   71.4764   94.0948 C   0  0  0  0  0  0  0  0  0  0  0  0
   70.2193   72.4989   93.2554 C   0  0  0  0  0  0  0  0  0  0  0  0
   69.7671   72.1851   91.9905 C   0  0  0  0  0  0  0  0  0  0  0  0
   69.6949   70.8779   91.5495 C   0  0  0  0  0  0  0  0  0  0  0  0
   70.0939   69.8996   92.4271 C   0  0  0  0  0  0  0  0  0  0  0  0
   70.0316   68.5772   92.0095 O   0  0  0  0  0  0  0  0  0  0  0  0
   69.7234   68.3717   91.1489 H   0  0  0  0  0  0  0  0  0  0  0  0
   70.2955   68.8867   95.6199 O   0  0  0  0  0  0  0  0  0  0  0  0
   70.9632   69.0878   94.5899 C   0  0  0  0  0  0  0  0  0  0  0  0
   72.0806   68.3267   94.2855 O   0  0  0  0  0  0  0  0  0  0  0  0
   72.5659   68.4992   93.5027 H   0  0  0  0  0  0  0  0  0  0  0  0
   67.7942   81.3839   89.2986 N   0  0  0  0  0  0  0  0  0  0  0  0
   68.3361   82.6518   89.6167 C   0  0  0  0  0  0  0  0  0  0  0  0
   68.1458   83.0811   90.7821 O   0  0  0  0  0  0  0  0  0  0  0  0
   67.9148   81.0016   88.3994 H   0  0  0  0  0  0  0  0  0  0  0  0
   69.1034   83.4799   88.6486 C   0  0  0  0  0  0  0  0  0  0  0  0
   68.8671   83.0031   87.2331 C   0  0  0  0  0  0  0  0  0  0  0  0
   67.8387   83.9121   86.6426 C   0  0  0  0  0  0  0  0  0  0  0  0
   67.3488   84.7879   87.7781 C   0  0  0  0  0  0  0  0  0  0  0  0
   68.5733   84.8732   88.6788 C   0  0  0  0  0  0  0  0  0  0  0  0
   70.5506   83.4009   88.9678 C   0  0  0  0  0  0  0  0  0  0  0  0
   71.0736   82.5416   89.9102 C   0  0  0  0  0  0  0  0  0  0  0  0
   72.4370   82.4885   90.1965 C   0  0  0  0  0  0  0  0  0  0  0  0
   73.3137   83.3168   89.5248 C   0  0  0  0  0  0  0  0  0  0  0  0
   72.8159   84.1855   88.5777 C   0  0  0  0  0  0  0  0  0  0  0  0
   71.4745   84.2127   88.3209 C   0  0  0  0  0  0  0  0  0  0  0  0
   71.0131   85.0764   87.3894 F   0  0  0  0  0  0  0  0  0  0  0  0
  1  2  2  0  0  0  0
  2  3  1  0  0  0  0
  3  4  2  0  0  0  0
  4  5  1  0  0  0  0
  5 27  1  0  0  0  0
  5  6  2  0  0  0  0
  6  1  1  0  0  0  0
  7  8  2  0  0  0  0
  8  9  2  0  0  0  0
  9 10  2  0  0  0  0
 10  1  1  0  0  0  0
 10 11  2  0  0  0  0
 11 12  2  0  0  0  0
 12  7  1  0  0  0  0
 13  7  1  0  0  0  0
 14 13  1  0  0  0  0
 15 16  2  0  0  0  0
 16 17  1  0  0  0  0
 17 14  1  0  0  0  0
 17 18  2  0  0  0  0
 18 19  1  0  0  0  0
 19 20  2  0  0  0  0
 20 21  1  0  0  0  0
 20 15  1  0  0  0  0
 21 22  1  0  0  0  0
 23 24  2  0  0  0  0
 24 25  1  0  0  0  0
 24 15  1  0  0  0  0
 25 26  1  0  0  0  0
 27 28  1  0  0  0  0
 27 30  1  0  0  0  0
 28 29  2  0  0  0  0
 28 31  1  0  0  0  0
 31 36  1  0  0  0  0
 31 32  1  0  0  0  0
 32 33  1  0  0  0  0
 33 34  1  0  0  0  0
 34 35  1  0  0  0  0
 35 31  1  0  0  0  0
 36 37  2  0  0  0  0
 37 38  1  0  0  0  0
 38 39  2  0  0  0  0
 39 40  1  0  0  0  0
 40 41  2  0  0  0  0
 41 42  1  0  0  0  0
 41 36  1  0  0  0  0
M  END
>  <Activity>
34.7

>  <minimizedAffinity>
-10.11512

>  <RFScoreVS_v2>
5.96651105737

$$$$
HIPS7785
 OpenBabel05252300073D

 42 46  0  0  0  0  0  0  0  0999 V2000
   68.7052   77.5882   89.3722 C   0  0  0  0  0  0  0  0  0  0  0  0
   68.0097   77.5086   88.1852 C   0  0  0  0  0  0  0  0  0  0  0  0
   67.2310   76.4190   87.8519 C   0  0  0  0  0  0  0  0  0  0  0  0
   67.1450   75.3626   88.7465 C   0  0  0  0  0  0  0  0  0  0  0  0
   67.8275   75.4040   89.9478 C   0  0  0  0  0  0  0  0  0  0  0  0
   68.5919   76.5165   90.2324 C   0  0  0  0  0  0  0  0  0  0  0  0
   71.1407   80.8985   90.3966 C   0  0  0  0  0  0  0  0  0  0  0  0
   69.7910   81.0502   90.1530 C   0  0  0  0  0  0  0  0  0  0  0  0
   69.0301   79.9841   89.8278 N   0  0  0  0  0  0  0  0  0  0  0  0
   69.5288   78.7416   89.7242 C   0  0  0  0  0  0  0  0  0  0  0  0
   70.8424   78.5884   89.9604 N   0  0  0  0  0  0  0  0  0  0  0  0
   71.6462   79.6186   90.2883 C   0  0  0  0  0  0  0  0  0  0  0  0
   71.9972   82.0631   90.7568 C   0  0  0  0  0  0  0  0  0  0  0  0
   71.2294   83.2445   90.6608 O   0  0  0  0  0  0  0  0  0  0  0  0
   69.3352   84.4481   87.7573 C   0  0  0  0  0  0  0  0  0  0  0  0
   69.6211   83.8980   88.9952 C   0  0  0  0  0  0  0  0  0  0  0  0
   70.9203   83.7840   89.4424 C   0  0  0  0  0  0  0  0  0  0  0  0
   71.9437   84.2298   88.6321 C   0  0  0  0  0  0  0  0  0  0  0  0
   71.6973   84.7841   87.3909 C   0  0  0  0  0  0  0  0  0  0  0  0
   70.3847   84.8732   86.9960 C   0  0  0  0  0  0  0  0  0  0  0  0
   70.1087   85.4263   85.7530 O   0  0  0  0  0  0  0  0  0  0  0  0
   70.8092   85.7270   85.2081 H   0  0  0  0  0  0  0  0  0  0  0  0
   67.1082   85.0291   88.0829 O   0  0  0  0  0  0  0  0  0  0  0  0
   67.9557   84.5602   87.3025 C   0  0  0  0  0  0  0  0  0  0  0  0
   67.6188   84.1466   86.0235 O   0  0  0  0  0  0  0  0  0  0  0  0
   68.2769   83.7969   85.4556 H   0  0  0  0  0  0  0  0  0  0  0  0
   67.7093   74.2981   90.8336 N   0  0  0  0  0  0  0  0  0  0  0  0
   68.5357   74.2420   91.9809 C   0  0  0  0  0  0  0  0  0  0  0  0
   69.3416   75.1903   92.1544 O   0  0  0  0  0  0  0  0  0  0  0  0
   67.0606   73.5803   90.6510 H   0  0  0  0  0  0  0  0  0  0  0  0
   68.4919   73.1300   92.9672 C   0  0  0  0  0  0  0  0  0  0  0  0
   67.9711   71.8649   92.3230 C   0  0  0  0  0  0  0  0  0  0  0  0
   69.1665   71.0353   91.9836 C   0  0  0  0  0  0  0  0  0  0  0  0
   70.3756   71.9063   92.2591 C   0  0  0  0  0  0  0  0  0  0  0  0
   69.8845   72.8024   93.3876 C   0  0  0  0  0  0  0  0  0  0  0  0
   67.6155   73.5100   94.1031 C   0  0  0  0  0  0  0  0  0  0  0  0
   66.2870   73.8471   93.9561 C   0  0  0  0  0  0  0  0  0  0  0  0
   65.4841   74.2055   95.0380 C   0  0  0  0  0  0  0  0  0  0  0  0
   66.0168   74.2310   96.3114 C   0  0  0  0  0  0  0  0  0  0  0  0
   67.3430   73.8983   96.4852 C   0  0  0  0  0  0  0  0  0  0  0  0
   68.1025   73.5516   95.4039 C   0  0  0  0  0  0  0  0  0  0  0  0
   69.4007   73.2330   95.6026 F   0  0  0  0  0  0  0  0  0  0  0  0
  1  2  2  0  0  0  0
  2  3  1  0  0  0  0
  3  4  2  0  0  0  0
  4  5  1  0  0  0  0
  5 27  1  0  0  0  0
  5  6  2  0  0  0  0
  6  1  1  0  0  0  0
  7  8  2  0  0  0  0
  8  9  2  0  0  0  0
  9 10  2  0  0  0  0
 10  1  1  0  0  0  0
 10 11  2  0  0  0  0
 11 12  2  0  0  0  0
 12  7  1  0  0  0  0
 13  7  1  0  0  0  0
 14 13  1  0  0  0  0
 15 16  2  0  0  0  0
 16 17  1  0  0  0  0
 17 14  1  0  0  0  0
 17 18  2  0  0  0  0
 18 19  1  0  0  0  0
 19 20  2  0  0  0  0
 20 21  1  0  0  0  0
 20 15  1  0  0  0  0
 21 22  1  0  0  0  0
 23 24  2  0  0  0  0
 24 25  1  0  0  0  0
 24 15  1  0  0  0  0
 25 26  1  0  0  0  0
 27 28  1  0  0  0  0
 27 30  1  0  0  0  0
 28 29  2  0  0  0  0
 28 31  1  0  0  0  0
 31 36  1  0  0  0  0
 31 32  1  0  0  0  0
 32 33  1  0  0  0  0
 33 34  1  0  0  0  0
 34 35  1  0  0  0  0
 35 31  1  0  0  0  0
 36 37  2  0  0  0  0
 37 38  1  0  0  0  0
 38 39  2  0  0  0  0
 39 40  1  0  0  0  0
 40 41  2  0  0  0  0
 41 42  1  0  0  0  0
 41 36  1  0  0  0  0
M  END
>  <Activity>
34.7

>  <minimizedAffinity>
-9.92029

>  <RFScoreVS_v2>
5.9781633308

$$$$
HIPS7785
 OpenBabel05252300073D

 42 46  0  0  0  0  0  0  0  0999 V2000
   70.0660   78.9465   90.2217 C   0  0  0  0  0  0  0  0  0  0  0  0
   71.4312   78.9495   90.4090 C   0  0  0  0  0  0  0  0  0  0  0  0
   72.1193   77.8489   90.8780 C   0  0  0  0  0  0  0  0  0  0  0  0
   71.4091   76.6945   91.1723 C   0  0  0  0  0  0  0  0  0  0  0  0
   70.0385   76.6510   90.9979 C   0  0  0  0  0  0  0  0  0  0  0  0
   69.3990   77.7788   90.5265 C   0  0  0  0  0  0  0  0  0  0  0  0
   67.9949   82.3603   88.8091 C   0  0  0  0  0  0  0  0  0  0  0  0
   67.5695   81.0849   88.4987 C   0  0  0  0  0  0  0  0  0  0  0  0
   68.2417   80.0084   88.9575 N   0  0  0  0  0  0  0  0  0  0  0  0
   69.3387   80.1115   89.7253 C   0  0  0  0  0  0  0  0  0  0  0  0
   69.7572   81.3511   90.0305 N   0  0  0  0  0  0  0  0  0  0  0  0
   69.1230   82.4584   89.5985 C   0  0  0  0  0  0  0  0  0  0  0  0
   67.2663   83.5611   88.3120 C   0  0  0  0  0  0  0  0  0  0  0  0
   67.9955   84.1314   87.2455 O   0  0  0  0  0  0  0  0  0  0  0  0
   70.2947   86.7293   88.4423 C   0  0  0  0  0  0  0  0  0  0  0  0
   69.1286   86.0169   88.2197 C   0  0  0  0  0  0  0  0  0  0  0  0
   69.1334   84.8536   87.4798 C   0  0  0  0  0  0  0  0  0  0  0  0
   70.3280   84.4028   86.9579 C   0  0  0  0  0  0  0  0  0  0  0  0
   71.5115   85.0866   87.1587 C   0  0  0  0  0  0  0  0  0  0  0  0
   71.4484   86.2391   87.9033 C   0  0  0  0  0  0  0  0  0  0  0  0
   72.6232   86.9460   88.1206 O   0  0  0  0  0  0  0  0  0  0  0  0
   73.4309   86.6336   87.7629 H   0  0  0  0  0  0  0  0  0  0  0  0
   69.3871   88.0901   90.0938 O   0  0  0  0  0  0  0  0  0  0  0  0
   70.2692   87.9564   89.2270 C   0  0  0  0  0  0  0  0  0  0  0  0
   71.2178   88.9396   88.9948 O   0  0  0  0  0  0  0  0  0  0  0  0
   71.8716   88.8135   88.3356 H   0  0  0  0  0  0  0  0  0  0  0  0
   69.3526   75.4460   91.3126 N   0  0  0  0  0  0  0  0  0  0  0  0
   69.5009   74.8848   92.6031 C   0  0  0  0  0  0  0  0  0  0  0  0
   70.2441   75.4947   93.4121 O   0  0  0  0  0  0  0  0  0  0  0  0
   68.7816   75.0076   90.6410 H   0  0  0  0  0  0  0  0  0  0  0  0
   68.8294   73.6289   93.0313 C   0  0  0  0  0  0  0  0  0  0  0  0
   68.2187   72.9183   91.8443 C   0  0  0  0  0  0  0  0  0  0  0  0
   69.1791   71.8440   91.4495 C   0  0  0  0  0  0  0  0  0  0  0  0
   70.4227   72.0619   92.2877 C   0  0  0  0  0  0  0  0  0  0  0  0
   69.8583   72.6861   93.5563 C   0  0  0  0  0  0  0  0  0  0  0  0
   67.7714   73.9465   94.0225 C   0  0  0  0  0  0  0  0  0  0  0  0
   66.5495   74.4855   93.6810 C   0  0  0  0  0  0  0  0  0  0  0  0
   65.5723   74.7800   94.6308 C   0  0  0  0  0  0  0  0  0  0  0  0
   65.8147   74.5315   95.9670 C   0  0  0  0  0  0  0  0  0  0  0  0
   67.0289   73.9928   96.3346 C   0  0  0  0  0  0  0  0  0  0  0  0
   67.9650   73.7159   95.3790 C   0  0  0  0  0  0  0  0  0  0  0  0
   69.1482   73.1910   95.7677 F   0  0  0  0  0  0  0  0  0  0  0  0
  1  2  2  0  0  0  0
  2  3  1  0  0  0  0
  3  4  2  0  0  0  0
  4  5  1  0  0  0  0
  5 27  1  0  0  0  0
  5  6  2  0  0  0  0
  6  1  1  0  0  0  0
  7  8  2  0  0  0  0
  8  9  2  0  0  0  0
  9 10  2  0  0  0  0
 10  1  1  0  0  0  0
 10 11  2  0  0  0  0
 11 12  2  0  0  0  0
 12  7  1  0  0  0  0
 13  7  1  0  0  0  0
 14 13  1  0  0  0  0
 15 16  2  0  0  0  0
 16 17  1  0  0  0  0
 17 14  1  0  0  0  0
 17 18  2  0  0  0  0
 18 19  1  0  0  0  0
 19 20  2  0  0  0  0
 20 21  1  0  0  0  0
 20 15  1  0  0  0  0
 21 22  1  0  0  0  0
 23 24  2  0  0  0  0
 24 25  1  0  0  0  0
 24 15  1  0  0  0  0
 25 26  1  0  0  0  0
 27 28  1  0  0  0  0
 27 30  1  0  0  0  0
 28 29  2  0  0  0  0
 28 31  1  0  0  0  0
 31 36  1  0  0  0  0
 31 32  1  0  0  0  0
 32 33  1  0  0  0  0
 33 34  1  0  0  0  0
 34 35  1  0  0  0  0
 35 31  1  0  0  0  0
 36 37  2  0  0  0  0
 37 38  1  0  0  0  0
 38 39  2  0  0  0  0
 39 40  1  0  0  0  0
 40 41  2  0  0  0  0
 41 42  1  0  0  0  0
 41 36  1  0  0  0  0
M  END
>  <Activity>
34.7

>  <minimizedAffinity>
-9.79659

>  <RFScoreVS_v2>
5.97733634667

$$$$
HIPS7785
 OpenBabel05252300073D

 42 46  0  0  0  0  0  0  0  0999 V2000
   69.8322   78.8025   90.3072 C   0  0  0  0  0  0  0  0  0  0  0  0
   71.2016   78.7502   90.4527 C   0  0  0  0  0  0  0  0  0  0  0  0
   71.8475   77.6724   91.0235 C   0  0  0  0  0  0  0  0  0  0  0  0
   71.0889   76.5998   91.4682 C   0  0  0  0  0  0  0  0  0  0  0  0
   69.7126   76.6137   91.3403 C   0  0  0  0  0  0  0  0  0  0  0  0
   69.1165   77.7155   90.7625 C   0  0  0  0  0  0  0  0  0  0  0  0
   67.8862   82.1475   88.5858 C   0  0  0  0  0  0  0  0  0  0  0  0
   67.5306   80.8583   88.2455 C   0  0  0  0  0  0  0  0  0  0  0  0
   68.1616   79.8042   88.8041 N   0  0  0  0  0  0  0  0  0  0  0  0
   69.1496   79.9434   89.7029 C   0  0  0  0  0  0  0  0  0  0  0  0
   69.4996   81.1964   90.0377 N   0  0  0  0  0  0  0  0  0  0  0  0
   68.9023   82.2826   89.5102 C   0  0  0  0  0  0  0  0  0  0  0  0
   67.2015   83.3239   87.9800 C   0  0  0  0  0  0  0  0  0  0  0  0
   68.0289   83.8682   86.9733 O   0  0  0  0  0  0  0  0  0  0  0  0
   70.1316   86.5430   88.3485 C   0  0  0  0  0  0  0  0  0  0  0  0
   69.0133   85.7890   88.0360 C   0  0  0  0  0  0  0  0  0  0  0  0
   69.1178   84.6308   87.2954 C   0  0  0  0  0  0  0  0  0  0  0  0
   70.3646   84.2278   86.8645 C   0  0  0  0  0  0  0  0  0  0  0  0
   71.5030   84.9539   87.1566 C   0  0  0  0  0  0  0  0  0  0  0  0
   71.3404   86.0991   87.8975 C   0  0  0  0  0  0  0  0  0  0  0  0
   72.4680   86.8480   88.2054 O   0  0  0  0  0  0  0  0  0  0  0  0
   73.3117   86.5678   87.9092 H   0  0  0  0  0  0  0  0  0  0  0  0
   69.3757   87.7169   90.2070 O   0  0  0  0  0  0  0  0  0  0  0  0
   70.0006   87.7640   89.1325 C   0  0  0  0  0  0  0  0  0  0  0  0
   70.5686   88.9406   88.6706 O   0  0  0  0  0  0  0  0  0  0  0  0
   71.0342   88.9484   87.8575 H   0  0  0  0  0  0  0  0  0  0  0  0
   68.9762   75.4918   91.8102 N   0  0  0  0  0  0  0  0  0  0  0  0
   68.9794   75.1952   93.1938 C   0  0  0  0  0  0  0  0  0  0  0  0
   69.6451   75.9543   93.9418 O   0  0  0  0  0  0  0  0  0  0  0  0
   68.4705   74.9285   91.1808 H   0  0  0  0  0  0  0  0  0  0  0  0
   68.2448   74.0458   93.7859 C   0  0  0  0  0  0  0  0  0  0  0  0
   68.0714   74.2334   95.2764 C   0  0  0  0  0  0  0  0  0  0  0  0
   66.6878   74.7583   95.4825 C   0  0  0  0  0  0  0  0  0  0  0  0
   66.1379   75.0504   94.1008 C   0  0  0  0  0  0  0  0  0  0  0  0
   66.8585   74.0246   93.2371 C   0  0  0  0  0  0  0  0  0  0  0  0
   68.9936   72.7916   93.5236 C   0  0  0  0  0  0  0  0  0  0  0  0
   68.6839   71.9237   92.4984 C   0  0  0  0  0  0  0  0  0  0  0  0
   69.3992   70.7483   92.2742 C   0  0  0  0  0  0  0  0  0  0  0  0
   70.4596   70.4210   93.0954 C   0  0  0  0  0  0  0  0  0  0  0  0
   70.7896   71.2723   94.1279 C   0  0  0  0  0  0  0  0  0  0  0  0
   70.0683   72.4163   94.3205 C   0  0  0  0  0  0  0  0  0  0  0  0
   70.4116   73.2313   95.3424 F   0  0  0  0  0  0  0  0  0  0  0  0
  1  2  2  0  0  0  0
  2  3  1  0  0  0  0
  3  4  2  0  0  0  0
  4  5  1  0  0  0  0
  5 27  1  0  0  0  0
  5  6  2  0  0  0  0
  6  1  1  0  0  0  0
  7  8  2  0  0  0  0
  8  9  2  0  0  0  0
  9 10  2  0  0  0  0
 10  1  1  0  0  0  0
 10 11  2  0  0  0  0
 11 12  2  0  0  0  0
 12  7  1  0  0  0  0
 13  7  1  0  0  0  0
 14 13  1  0  0  0  0
 15 16  2  0  0  0  0
 16 17  1  0  0  0  0
 17 14  1  0  0  0  0
 17 18  2  0  0  0  0
 18 19  1  0  0  0  0
 19 20  2  0  0  0  0
 20 21  1  0  0  0  0
 20 15  1  0  0  0  0
 21 22  1  0  0  0  0
 23 24  2  0  0  0  0
 24 25  1  0  0  0  0
 24 15  1  0  0  0  0
 25 26  1  0  0  0  0
 27 28  1  0  0  0  0
 27 30  1  0  0  0  0
 28 29  2  0  0  0  0
 28 31  1  0  0  0  0
 31 36  1  0  0  0  0
 31 32  1  0  0  0  0
 32 33  1  0  0  0  0
 33 34  1  0  0  0  0
 34 35  1  0  0  0  0
 35 31  1  0  0  0  0
 36 37  2  0  0  0  0
 37 38  1  0  0  0  0
 38 39  2  0  0  0  0
 39 40  1  0  0  0  0
 40 41  2  0  0  0  0
 41 42  1  0  0  0  0
 41 36  1  0  0  0  0
M  END
>  <Activity>
34.7

>  <minimizedAffinity>
-9.79221

>  <RFScoreVS_v2>
5.98382717244

$$$$
HIPS7785
 OpenBabel05252300073D

 42 46  0  0  0  0  0  0  0  0999 V2000
   67.9650   74.2816   93.6994 C   0  0  0  0  0  0  0  0  0  0  0  0
   67.2773   74.5388   94.8656 C   0  0  0  0  0  0  0  0  0  0  0  0
   66.3708   75.5731   94.9810 C   0  0  0  0  0  0  0  0  0  0  0  0
   66.1429   76.3856   93.8803 C   0  0  0  0  0  0  0  0  0  0  0  0
   66.8127   76.1606   92.6922 C   0  0  0  0  0  0  0  0  0  0  0  0
   67.7085   75.1133   92.6299 C   0  0  0  0  0  0  0  0  0  0  0  0
   70.7170   71.0869   93.3009 C   0  0  0  0  0  0  0  0  0  0  0  0
   70.8425   72.0188   94.3108 C   0  0  0  0  0  0  0  0  0  0  0  0
   69.9562   73.0304   94.4226 N   0  0  0  0  0  0  0  0  0  0  0  0
   68.9239   73.1869   93.5781 C   0  0  0  0  0  0  0  0  0  0  0  0
   68.7971   72.2822   92.5931 N   0  0  0  0  0  0  0  0  0  0  0  0
   69.6536   71.2542   92.4369 C   0  0  0  0  0  0  0  0  0  0  0  0
   71.6853   69.9632   93.1609 C   0  0  0  0  0  0  0  0  0  0  0  0
   72.7697   70.1798   94.0393 O   0  0  0  0  0  0  0  0  0  0  0  0
   76.4112   70.6018   93.8705 C   0  0  0  0  0  0  0  0  0  0  0  0
   75.1184   70.5858   94.3657 C   0  0  0  0  0  0  0  0  0  0  0  0
   74.0559   70.2042   93.5744 C   0  0  0  0  0  0  0  0  0  0  0  0
   74.2994   69.8343   92.2680 C   0  0  0  0  0  0  0  0  0  0  0  0
   75.5755   69.8377   91.7388 C   0  0  0  0  0  0  0  0  0  0  0  0
   76.5961   70.2265   92.5718 C   0  0  0  0  0  0  0  0  0  0  0  0
   77.8886   70.2391   92.0655 O   0  0  0  0  0  0  0  0  0  0  0  0
   78.0463   69.9865   91.1771 H   0  0  0  0  0  0  0  0  0  0  0  0
   78.0514   72.1149   94.5213 O   0  0  0  0  0  0  0  0  0  0  0  0
   77.5209   71.0080   94.7227 C   0  0  0  0  0  0  0  0  0  0  0  0
   77.9585   70.1624   95.7295 O   0  0  0  0  0  0  0  0  0  0  0  0
   77.5411   69.3337   95.8598 H   0  0  0  0  0  0  0  0  0  0  0  0
   66.5468   77.0190   91.5905 N   0  0  0  0  0  0  0  0  0  0  0  0
   67.6316   77.5732   90.8704 C   0  0  0  0  0  0  0  0  0  0  0  0
   68.7892   77.2692   91.2529 O   0  0  0  0  0  0  0  0  0  0  0  0
   65.6196   77.2253   91.3318 H   0  0  0  0  0  0  0  0  0  0  0  0
   67.4615   78.4823   89.7059 C   0  0  0  0  0  0  0  0  0  0  0  0
   66.2295   79.3425   89.8755 C   0  0  0  0  0  0  0  0  0  0  0  0
   66.7001   80.6673   90.3813 C   0  0  0  0  0  0  0  0  0  0  0  0
   68.1764   80.5033   90.6815 C   0  0  0  0  0  0  0  0  0  0  0  0
   68.6006   79.4439   89.6738 C   0  0  0  0  0  0  0  0  0  0  0  0
   67.3432   77.6787   88.4637 C   0  0  0  0  0  0  0  0  0  0  0  0
   67.1775   76.3103   88.4587 C   0  0  0  0  0  0  0  0  0  0  0  0
   67.0734   75.5757   87.2784 C   0  0  0  0  0  0  0  0  0  0  0  0
   67.1359   76.2203   86.0591 C   0  0  0  0  0  0  0  0  0  0  0  0
   67.3013   77.5884   86.0369 C   0  0  0  0  0  0  0  0  0  0  0  0
   67.4000   78.2787   87.2116 C   0  0  0  0  0  0  0  0  0  0  0  0
   67.5650   79.6191   87.1606 F   0  0  0  0  0  0  0  0  0  0  0  0
  1  2  2  0  0  0  0
  2  3  1  0  0  0  0
  3  4  2  0  0  0  0
  4  5  1  0  0  0  0
  5 27  1  0  0  0  0
  5  6  2  0  0  0  0
  6  1  1  0  0  0  0
  7  8  2  0  0  0  0
  8  9  2  0  0  0  0
  9 10  2  0  0  0  0
 10  1  1  0  0  0  0
 10 11  2  0  0  0  0
 11 12  2  0  0  0  0
 12  7  1  0  0  0  0
 13  7  1  0  0  0  0
 14 13  1  0  0  0  0
 15 16  2  0  0  0  0
 16 17  1  0  0  0  0
 17 14  1  0  0  0  0
 17 18  2  0  0  0  0
 18 19  1  0  0  0  0
 19 20  2  0  0  0  0
 20 21  1  0  0  0  0
 20 15  1  0  0  0  0
 21 22  1  0  0  0  0
 23 24  2  0  0  0  0
 24 25  1  0  0  0  0
 24 15  1  0  0  0  0
 25 26  1  0  0  0  0
 27 28  1  0  0  0  0
 27 30  1  0  0  0  0
 28 29  2  0  0  0  0
 28 31  1  0  0  0  0
 31 36  1  0  0  0  0
 31 32  1  0  0  0  0
 32 33  1  0  0  0  0
 33 34  1  0  0  0  0
 34 35  1  0  0  0  0
 35 31  1  0  0  0  0
 36 37  2  0  0  0  0
 37 38  1  0  0  0  0
 38 39  2  0  0  0  0
 39 40  1  0  0  0  0
 40 41  2  0  0  0  0
 41 42  1  0  0  0  0
 41 36  1  0  0  0  0
M  END
>  <Activity>
34.7

>  <minimizedAffinity>
-9.72779

>  <RFScoreVS_v2>
6.01835901058

$$$$
HIPS7785
 OpenBabel05252300073D

 42 46  0  0  0  0  0  0  0  0999 V2000
   68.0265   77.0817   89.8750 C   0  0  0  0  0  0  0  0  0  0  0  0
   67.6142   76.6819   88.6224 C   0  0  0  0  0  0  0  0  0  0  0  0
   67.3121   77.5789   87.6180 C   0  0  0  0  0  0  0  0  0  0  0  0
   67.4281   78.9361   87.8794 C   0  0  0  0  0  0  0  0  0  0  0  0
   67.8386   79.3778   89.1232 C   0  0  0  0  0  0  0  0  0  0  0  0
   68.1282   78.4396   90.0922 C   0  0  0  0  0  0  0  0  0  0  0  0
   68.8962   74.3217   92.9678 C   0  0  0  0  0  0  0  0  0  0  0  0
   69.9000   74.8833   92.2054 C   0  0  0  0  0  0  0  0  0  0  0  0
   69.6044   75.7611   91.2239 N   0  0  0  0  0  0  0  0  0  0  0  0
   68.3460   76.1318   90.9372 C   0  0  0  0  0  0  0  0  0  0  0  0
   67.3649   75.5880   91.6765 N   0  0  0  0  0  0  0  0  0  0  0  0
   67.6054   74.7075   92.6673 C   0  0  0  0  0  0  0  0  0  0  0  0
   69.2024   73.3508   94.0556 C   0  0  0  0  0  0  0  0  0  0  0  0
   68.9950   72.0401   93.5725 O   0  0  0  0  0  0  0  0  0  0  0  0
   72.3553   70.6349   93.1237 C   0  0  0  0  0  0  0  0  0  0  0  0
   71.3154   71.4057   93.6147 C   0  0  0  0  0  0  0  0  0  0  0  0
   70.0395   71.2905   93.1052 C   0  0  0  0  0  0  0  0  0  0  0  0
   69.8090   70.3873   92.0884 C   0  0  0  0  0  0  0  0  0  0  0  0
   70.8214   69.6012   91.5730 C   0  0  0  0  0  0  0  0  0  0  0  0
   72.0725   69.7573   92.1180 C   0  0  0  0  0  0  0  0  0  0  0  0
   73.1083   68.9797   91.6185 O   0  0  0  0  0  0  0  0  0  0  0  0
   72.9441   68.3682   90.9278 H   0  0  0  0  0  0  0  0  0  0  0  0
   73.9057   70.3755   94.8361 O   0  0  0  0  0  0  0  0  0  0  0  0
   73.6968   70.7712   93.6755 C   0  0  0  0  0  0  0  0  0  0  0  0
   74.7023   71.3328   92.9048 O   0  0  0  0  0  0  0  0  0  0  0  0
   74.5179   71.6228   92.0331 H   0  0  0  0  0  0  0  0  0  0  0  0
   67.9430   80.7783   89.3452 N   0  0  0  0  0  0  0  0  0  0  0  0
   69.1703   81.3145   89.8022 C   0  0  0  0  0  0  0  0  0  0  0  0
   70.1149   80.5073   89.9891 O   0  0  0  0  0  0  0  0  0  0  0  0
   67.1712   81.3676   89.1830 H   0  0  0  0  0  0  0  0  0  0  0  0
   69.3827   82.7624   90.0664 C   0  0  0  0  0  0  0  0  0  0  0  0
   68.0973   83.5350   89.8721 C   0  0  0  0  0  0  0  0  0  0  0  0
   67.5140   83.7421   91.2319 C   0  0  0  0  0  0  0  0  0  0  0  0
   68.3646   82.9257   92.1840 C   0  0  0  0  0  0  0  0  0  0  0  0
   69.7273   82.9450   91.5055 C   0  0  0  0  0  0  0  0  0  0  0  0
   70.4243   83.2856   89.1478 C   0  0  0  0  0  0  0  0  0  0  0  0
   71.6828   83.6634   89.5646 C   0  0  0  0  0  0  0  0  0  0  0  0
   72.6438   84.1568   88.6834 C   0  0  0  0  0  0  0  0  0  0  0  0
   72.3471   84.2806   87.3408 C   0  0  0  0  0  0  0  0  0  0  0  0
   71.0955   83.9098   86.8985 C   0  0  0  0  0  0  0  0  0  0  0  0
   70.1765   83.4299   87.7881 C   0  0  0  0  0  0  0  0  0  0  0  0
   68.9560   83.0767   87.3277 F   0  0  0  0  0  0  0  0  0  0  0  0
  1  2  2  0  0  0  0
  2  3  1  0  0  0  0
  3  4  2  0  0  0  0
  4  5  1  0  0  0  0
  5 27  1  0  0  0  0
  5  6  2  0  0  0  0
  6  1  1  0  0  0  0
  7  8  2  0  0  0  0
  8  9  2  0  0  0  0
  9 10  2  0  0  0  0
 10  1  1  0  0  0  0
 10 11  2  0  0  0  0
 11 12  2  0  0  0  0
 12  7  1  0  0  0  0
 13  7  1  0  0  0  0
 14 13  1  0  0  0  0
 15 16  2  0  0  0  0
 16 17  1  0  0  0  0
 17 14  1  0  0  0  0
 17 18  2  0  0  0  0
 18 19  1  0  0  0  0
 19 20  2  0  0  0  0
 20 21  1  0  0  0  0
 20 15  1  0  0  0  0
 21 22  1  0  0  0  0
 23 24  2  0  0  0  0
 24 25  1  0  0  0  0
 24 15  1  0  0  0  0
 25 26  1  0  0  0  0
 27 28  1  0  0  0  0
 27 30  1  0  0  0  0
 28 29  2  0  0  0  0
 28 31  1  0  0  0  0
 31 36  1  0  0  0  0
 31 32  1  0  0  0  0
 32 33  1  0  0  0  0
 33 34  1  0  0  0  0
 34 35  1  0  0  0  0
 35 31  1  0  0  0  0
 36 37  2  0  0  0  0
 37 38  1  0  0  0  0
 38 39  2  0  0  0  0
 39 40  1  0  0  0  0
 40 41  2  0  0  0  0
 41 42  1  0  0  0  0
 41 36  1  0  0  0  0
M  END
>  <Activity>
34.7

>  <minimizedAffinity>
-9.60602

>  <RFScoreVS_v2>
5.96093394253

$$$$
HIPS7785
 OpenBabel05252300073D

 42 46  0  0  0  0  0  0  0  0999 V2000
   67.2816   78.4936   88.5711 C   0  0  0  0  0  0  0  0  0  0  0  0
   66.2908   79.0444   87.7876 C   0  0  0  0  0  0  0  0  0  0  0  0
   66.2220   80.3962   87.5181 C   0  0  0  0  0  0  0  0  0  0  0  0
   67.1878   81.2332   88.0568 C   0  0  0  0  0  0  0  0  0  0  0  0
   68.1983   80.7197   88.8479 C   0  0  0  0  0  0  0  0  0  0  0  0
   68.2213   79.3611   89.0865 C   0  0  0  0  0  0  0  0  0  0  0  0
   67.4595   74.3338   89.3482 C   0  0  0  0  0  0  0  0  0  0  0  0
   68.0595   75.2465   90.1915 C   0  0  0  0  0  0  0  0  0  0  0  0
   67.9927   76.5685   89.9283 N   0  0  0  0  0  0  0  0  0  0  0  0
   67.3537   77.0630   88.8557 C   0  0  0  0  0  0  0  0  0  0  0  0
   66.7678   76.1787   88.0314 N   0  0  0  0  0  0  0  0  0  0  0  0
   66.8046   74.8495   88.2480 C   0  0  0  0  0  0  0  0  0  0  0  0
   67.5223   72.8706   89.6217 C   0  0  0  0  0  0  0  0  0  0  0  0
   67.3290   72.6534   91.0037 O   0  0  0  0  0  0  0  0  0  0  0  0
   69.5839   72.7626   93.8970 C   0  0  0  0  0  0  0  0  0  0  0  0
   68.4975   73.0122   93.0759 C   0  0  0  0  0  0  0  0  0  0  0  0
   68.3917   72.4234   91.8338 C   0  0  0  0  0  0  0  0  0  0  0  0
   69.3930   71.5726   91.4141 C   0  0  0  0  0  0  0  0  0  0  0  0
   70.4919   71.2995   92.2055 C   0  0  0  0  0  0  0  0  0  0  0  0
   70.5457   71.9133   93.4331 C   0  0  0  0  0  0  0  0  0  0  0  0
   71.6392   71.6563   94.2488 O   0  0  0  0  0  0  0  0  0  0  0  0
   72.3156   71.0772   93.9569 H   0  0  0  0  0  0  0  0  0  0  0  0
   69.5919   72.6784   96.2199 O   0  0  0  0  0  0  0  0  0  0  0  0
   69.6775   73.3944   95.2064 C   0  0  0  0  0  0  0  0  0  0  0  0
   69.8579   74.7655   95.2957 O   0  0  0  0  0  0  0  0  0  0  0  0
   69.9192   75.2817   94.5162 H   0  0  0  0  0  0  0  0  0  0  0  0
   69.1664   81.6158   89.3784 N   0  0  0  0  0  0  0  0  0  0  0  0
   68.7318   82.7477   90.1079 C   0  0  0  0  0  0  0  0  0  0  0  0
   67.4923   82.8989   90.2478 O   0  0  0  0  0  0  0  0  0  0  0  0
   70.1270   81.4508   89.2398 H   0  0  0  0  0  0  0  0  0  0  0  0
   69.6616   83.7451   90.7014 C   0  0  0  0  0  0  0  0  0  0  0  0
   68.9115   84.9870   91.1277 C   0  0  0  0  0  0  0  0  0  0  0  0
   68.6815   84.8629   92.5988 C   0  0  0  0  0  0  0  0  0  0  0  0
   69.1305   83.4663   92.9789 C   0  0  0  0  0  0  0  0  0  0  0  0
   70.2284   83.1863   91.9622 C   0  0  0  0  0  0  0  0  0  0  0  0
   70.7015   84.1061   89.7058 C   0  0  0  0  0  0  0  0  0  0  0  0
   71.9919   83.6230   89.7480 C   0  0  0  0  0  0  0  0  0  0  0  0
   72.9534   83.9802   88.8038 C   0  0  0  0  0  0  0  0  0  0  0  0
   72.6245   84.8472   87.7811 C   0  0  0  0  0  0  0  0  0  0  0  0
   71.3407   85.3445   87.7166 C   0  0  0  0  0  0  0  0  0  0  0  0
   70.4221   84.9746   88.6577 C   0  0  0  0  0  0  0  0  0  0  0  0
   69.1716   85.4797   88.5724 F   0  0  0  0  0  0  0  0  0  0  0  0
  1  2  2  0  0  0  0
  2  3  1  0  0  0  0
  3  4  2  0  0  0  0
  4  5  1  0  0  0  0
  5 27  1  0  0  0  0
  5  6  2  0  0  0  0
  6  1  1  0  0  0  0
  7  8  2  0  0  0  0
  8  9  2  0  0  0  0
  9 10  2  0  0  0  0
 10  1  1  0  0  0  0
 10 11  2  0  0  0  0
 11 12  2  0  0  0  0
 12  7  1  0  0  0  0
 13  7  1  0  0  0  0
 14 13  1  0  0  0  0
 15 16  2  0  0  0  0
 16 17  1  0  0  0  0
 17 14  1  0  0  0  0
 17 18  2  0  0  0  0
 18 19  1  0  0  0  0
 19 20  2  0  0  0  0
 20 21  1  0  0  0  0
 20 15  1  0  0  0  0
 21 22  1  0  0  0  0
 23 24  2  0  0  0  0
 24 25  1  0  0  0  0
 24 15  1  0  0  0  0
 25 26  1  0  0  0  0
 27 28  1  0  0  0  0
 27 30  1  0  0  0  0
 28 29  2  0  0  0  0
 28 31  1  0  0  0  0
 31 36  1  0  0  0  0
 31 32  1  0  0  0  0
 32 33  1  0  0  0  0
 33 34  1  0  0  0  0
 34 35  1  0  0  0  0
 35 31  1  0  0  0  0
 36 37  2  0  0  0  0
 37 38  1  0  0  0  0
 38 39  2  0  0  0  0
 39 40  1  0  0  0  0
 40 41  2  0  0  0  0
 41 42  1  0  0  0  0
 41 36  1  0  0  0  0
M  END
>  <Activity>
34.7

>  <minimizedAffinity>
-9.54298

>  <RFScoreVS_v2>
5.95643953862

$$$$
HIPS7785
 OpenBabel05252300073D

 42 46  0  0  0  0  0  0  0  0999 V2000
   67.2660   78.5360   88.7065 C   0  0  0  0  0  0  0  0  0  0  0  0
   66.4545   79.0829   87.7362 C   0  0  0  0  0  0  0  0  0  0  0  0
   66.3789   80.4423   87.5103 C   0  0  0  0  0  0  0  0  0  0  0  0
   67.1498   81.2914   88.2901 C   0  0  0  0  0  0  0  0  0  0  0  0
   67.9768   80.7822   89.2738 C   0  0  0  0  0  0  0  0  0  0  0  0
   68.0153   79.4157   89.4588 C   0  0  0  0  0  0  0  0  0  0  0  0
   67.4692   74.3542   89.3468 C   0  0  0  0  0  0  0  0  0  0  0  0
   67.9846   75.2456   90.2655 C   0  0  0  0  0  0  0  0  0  0  0  0
   67.9111   76.5750   90.0450 N   0  0  0  0  0  0  0  0  0  0  0  0
   67.3455   77.0974   88.9448 C   0  0  0  0  0  0  0  0  0  0  0  0
   66.8421   76.2340   88.0472 N   0  0  0  0  0  0  0  0  0  0  0  0
   66.8894   74.8986   88.2186 C   0  0  0  0  0  0  0  0  0  0  0  0
   67.5409   72.8832   89.5723 C   0  0  0  0  0  0  0  0  0  0  0  0
   67.3173   72.6174   90.9411 O   0  0  0  0  0  0  0  0  0  0  0  0
   69.5464   72.6641   93.8559 C   0  0  0  0  0  0  0  0  0  0  0  0
   68.4797   72.9502   93.0210 C   0  0  0  0  0  0  0  0  0  0  0  0
   68.3610   72.3520   91.7846 C   0  0  0  0  0  0  0  0  0  0  0  0
   69.3291   71.4545   91.3848 C   0  0  0  0  0  0  0  0  0  0  0  0
   70.4076   71.1440   92.1904 C   0  0  0  0  0  0  0  0  0  0  0  0
   70.4756   71.7692   93.4115 C   0  0  0  0  0  0  0  0  0  0  0  0
   71.5491   71.4754   94.2411 O   0  0  0  0  0  0  0  0  0  0  0  0
   72.2029   70.8647   93.9628 H   0  0  0  0  0  0  0  0  0  0  0  0
   69.9036   74.5244   95.2032 O   0  0  0  0  0  0  0  0  0  0  0  0
   69.6541   73.3066   95.1590 C   0  0  0  0  0  0  0  0  0  0  0  0
   69.4783   72.5564   96.3109 O   0  0  0  0  0  0  0  0  0  0  0  0
   69.2912   71.6403   96.2494 H   0  0  0  0  0  0  0  0  0  0  0  0
   68.7488   81.6909   90.0484 N   0  0  0  0  0  0  0  0  0  0  0  0
   69.6809   82.5333   89.3972 C   0  0  0  0  0  0  0  0  0  0  0  0
   69.7746   82.4282   88.1486 O   0  0  0  0  0  0  0  0  0  0  0  0
   68.6363   81.7334   91.0255 H   0  0  0  0  0  0  0  0  0  0  0  0
   70.5367   83.5152   90.1146 C   0  0  0  0  0  0  0  0  0  0  0  0
   71.8034   82.8561   90.6127 C   0  0  0  0  0  0  0  0  0  0  0  0
   72.8744   83.1890   89.6255 C   0  0  0  0  0  0  0  0  0  0  0  0
   72.1805   83.8766   88.4670 C   0  0  0  0  0  0  0  0  0  0  0  0
   70.9975   84.5518   89.1469 C   0  0  0  0  0  0  0  0  0  0  0  0
   69.7844   84.0830   91.2611 C   0  0  0  0  0  0  0  0  0  0  0  0
   69.9910   83.6987   92.5687 C   0  0  0  0  0  0  0  0  0  0  0  0
   69.2684   84.2432   93.6293 C   0  0  0  0  0  0  0  0  0  0  0  0
   68.3063   85.2028   93.3855 C   0  0  0  0  0  0  0  0  0  0  0  0
   68.0804   85.6043   92.0865 C   0  0  0  0  0  0  0  0  0  0  0  0
   68.8059   85.0509   91.0698 C   0  0  0  0  0  0  0  0  0  0  0  0
   68.5616   85.4607   89.8054 F   0  0  0  0  0  0  0  0  0  0  0  0
  1  2  2  0  0  0  0
  2  3  1  0  0  0  0
  3  4  2  0  0  0  0
  4  5  1  0  0  0  0
  5 27  1  0  0  0  0
  5  6  2  0  0  0  0
  6  1  1  0  0  0  0
  7  8  2  0  0  0  0
  8  9  2  0  0  0  0
  9 10  2  0  0  0  0
 10  1  1  0  0  0  0
 10 11  2  0  0  0  0
 11 12  2  0  0  0  0
 12  7  1  0  0  0  0
 13  7  1  0  0  0  0
 14 13  1  0  0  0  0
 15 16  2  0  0  0  0
 16 17  1  0  0  0  0
 17 14  1  0  0  0  0
 17 18  2  0  0  0  0
 18 19  1  0  0  0  0
 19 20  2  0  0  0  0
 20 21  1  0  0  0  0
 20 15  1  0  0  0  0
 21 22  1  0  0  0  0
 23 24  2  0  0  0  0
 24 25  1  0  0  0  0
 24 15  1  0  0  0  0
 25 26  1  0  0  0  0
 27 28  1  0  0  0  0
 27 30  1  0  0  0  0
 28 29  2  0  0  0  0
 28 31  1  0  0  0  0
 31 36  1  0  0  0  0
 31 32  1  0  0  0  0
 32 33  1  0  0  0  0
 33 34  1  0  0  0  0
 34 35  1  0  0  0  0
 35 31  1  0  0  0  0
 36 37  2  0  0  0  0
 37 38  1  0  0  0  0
 38 39  2  0  0  0  0
 39 40  1  0  0  0  0
 40 41  2  0  0  0  0
 41 42  1  0  0  0  0
 41 36  1  0  0  0  0
M  END
>  <Activity>
34.7

>  <minimizedAffinity>
-9.53922

>  <RFScoreVS_v2>
5.95434913638

$$$$
HIPS7785
 OpenBabel05252300073D

 42 46  0  0  0  0  0  0  0  0999 V2000
   70.4514   77.2541   90.9871 C   0  0  0  0  0  0  0  0  0  0  0  0
   71.8010   77.4694   90.8104 C   0  0  0  0  0  0  0  0  0  0  0  0
   72.3081   78.6664   90.3470 C   0  0  0  0  0  0  0  0  0  0  0  0
   71.4250   79.6930   90.0474 C   0  0  0  0  0  0  0  0  0  0  0  0
   70.0638   79.5168   90.2111 C   0  0  0  0  0  0  0  0  0  0  0  0
   69.6089   78.3008   90.6774 C   0  0  0  0  0  0  0  0  0  0  0  0
   68.8700   73.5722   92.3589 C   0  0  0  0  0  0  0  0  0  0  0  0
   69.6950   74.3390   93.1560 C   0  0  0  0  0  0  0  0  0  0  0  0
   70.1899   75.5097   92.7025 N   0  0  0  0  0  0  0  0  0  0  0  0
   69.9157   75.9872   91.4777 C   0  0  0  0  0  0  0  0  0  0  0  0
   69.1128   75.2446   90.6975 N   0  0  0  0  0  0  0  0  0  0  0  0
   68.5925   74.0694   91.1015 C   0  0  0  0  0  0  0  0  0  0  0  0
   68.3139   72.2771   92.8416 C   0  0  0  0  0  0  0  0  0  0  0  0
   69.3218   71.5768   93.5402 O   0  0  0  0  0  0  0  0  0  0  0  0
   72.5081   70.0932   92.4846 C   0  0  0  0  0  0  0  0  0  0  0  0
   71.5911   70.8642   93.1785 C   0  0  0  0  0  0  0  0  0  0  0  0
   70.2479   70.8252   92.8703 C   0  0  0  0  0  0  0  0  0  0  0  0
   69.8237   69.9991   91.8504 C   0  0  0  0  0  0  0  0  0  0  0  0
   70.7090   69.2153   91.1359 C   0  0  0  0  0  0  0  0  0  0  0  0
   72.0350   69.2936   91.4853 C   0  0  0  0  0  0  0  0  0  0  0  0
   72.9464   68.5164   90.7834 O   0  0  0  0  0  0  0  0  0  0  0  0
   72.6508   67.9576   90.0919 H   0  0  0  0  0  0  0  0  0  0  0  0
   74.5468   69.0793   92.9524 O   0  0  0  0  0  0  0  0  0  0  0  0
   73.9235   70.1482   92.8253 C   0  0  0  0  0  0  0  0  0  0  0  0
   74.5405   71.3768   92.9992 O   0  0  0  0  0  0  0  0  0  0  0  0
   74.0476   72.1672   92.8976 H   0  0  0  0  0  0  0  0  0  0  0  0
   69.1966   80.5973   89.8913 N   0  0  0  0  0  0  0  0  0  0  0  0
   69.5260   81.9003   90.3341 C   0  0  0  0  0  0  0  0  0  0  0  0
   70.5856   82.0303   90.9968 O   0  0  0  0  0  0  0  0  0  0  0  0
   68.3773   80.4408   89.3684 H   0  0  0  0  0  0  0  0  0  0  0  0
   68.6868   83.0958   90.0550 C   0  0  0  0  0  0  0  0  0  0  0  0
   67.2488   82.6946   89.8145 C   0  0  0  0  0  0  0  0  0  0  0  0
   66.5197   82.9300   91.0972 C   0  0  0  0  0  0  0  0  0  0  0  0
   67.5767   83.2844   92.1236 C   0  0  0  0  0  0  0  0  0  0  0  0
   68.6481   83.9537   91.2739 C   0  0  0  0  0  0  0  0  0  0  0  0
   69.2147   83.8035   88.8620 C   0  0  0  0  0  0  0  0  0  0  0  0
   70.2865   83.3496   88.1235 C   0  0  0  0  0  0  0  0  0  0  0  0
   70.7678   84.0343   87.0086 C   0  0  0  0  0  0  0  0  0  0  0  0
   70.1657   85.2114   86.6113 C   0  0  0  0  0  0  0  0  0  0  0  0
   69.0921   85.6868   87.3331 C   0  0  0  0  0  0  0  0  0  0  0  0
   68.6450   84.9917   88.4208 C   0  0  0  0  0  0  0  0  0  0  0  0
   67.5925   85.4823   89.1122 F   0  0  0  0  0  0  0  0  0  0  0  0
  1  2  2  0  0  0  0
  2  3  1  0  0  0  0
  3  4  2  0  0  0  0
  4  5  1  0  0  0  0
  5 27  1  0  0  0  0
  5  6  2  0  0  0  0
  6  1  1  0  0  0  0
  7  8  2  0  0  0  0
  8  9  2  0  0  0  0
  9 10  2  0  0  0  0
 10  1  1  0  0  0  0
 10 11  2  0  0  0  0
 11 12  2  0  0  0  0
 12  7  1  0  0  0  0
 13  7  1  0  0  0  0
 14 13  1  0  0  0  0
 15 16  2  0  0  0  0
 16 17  1  0  0  0  0
 17 14  1  0  0  0  0
 17 18  2  0  0  0  0
 18 19  1  0  0  0  0
 19 20  2  0  0  0  0
 20 21  1  0  0  0  0
 20 15  1  0  0  0  0
 21 22  1  0  0  0  0
 23 24  2  0  0  0  0
 24 25  1  0  0  0  0
 24 15  1  0  0  0  0
 25 26  1  0  0  0  0
 27 28  1  0  0  0  0
 27 30  1  0  0  0  0
 28 29  2  0  0  0  0
 28 31  1  0  0  0  0
 31 36  1  0  0  0  0
 31 32  1  0  0  0  0
 32 33  1  0  0  0  0
 33 34  1  0  0  0  0
 34 35  1  0  0  0  0
 35 31  1  0  0  0  0
 36 37  2  0  0  0  0
 37 38  1  0  0  0  0
 38 39  2  0  0  0  0
 39 40  1  0  0  0  0
 40 41  2  0  0  0  0
 41 42  1  0  0  0  0
 41 36  1  0  0  0  0
M  END
>  <Activity>
34.7

>  <minimizedAffinity>
-9.50769

>  <RFScoreVS_v2>
5.95032139659

$$$$
HIPS7785
 OpenBabel05252300073D

 42 46  0  0  0  0  0  0  0  0999 V2000
   67.4542   77.3717   89.4110 C   0  0  0  0  0  0  0  0  0  0  0  0
   67.1770   77.1452   88.0803 C   0  0  0  0  0  0  0  0  0  0  0  0
   67.1023   78.1644   87.1528 C   0  0  0  0  0  0  0  0  0  0  0  0
   67.3146   79.4679   87.5764 C   0  0  0  0  0  0  0  0  0  0  0  0
   67.5953   79.7370   88.9029 C   0  0  0  0  0  0  0  0  0  0  0  0
   67.6585   78.6818   89.7893 C   0  0  0  0  0  0  0  0  0  0  0  0
   67.7070   74.2071   92.2146 C   0  0  0  0  0  0  0  0  0  0  0  0
   67.1877   75.4362   92.5664 C   0  0  0  0  0  0  0  0  0  0  0  0
   67.1148   76.4333   91.6599 N   0  0  0  0  0  0  0  0  0  0  0  0
   67.5332   76.2925   90.3917 C   0  0  0  0  0  0  0  0  0  0  0  0
   68.0396   75.0978   90.0439 N   0  0  0  0  0  0  0  0  0  0  0  0
   68.1349   74.0698   90.9094 C   0  0  0  0  0  0  0  0  0  0  0  0
   67.7959   73.0941   93.2010 C   0  0  0  0  0  0  0  0  0  0  0  0
   69.1183   73.0197   93.6909 O   0  0  0  0  0  0  0  0  0  0  0  0
   71.9500   70.6858   93.6480 C   0  0  0  0  0  0  0  0  0  0  0  0
   71.1590   71.7761   93.9682 C   0  0  0  0  0  0  0  0  0  0  0  0
   69.9190   71.9517   93.3919 C   0  0  0  0  0  0  0  0  0  0  0  0
   69.4707   71.0171   92.4817 C   0  0  0  0  0  0  0  0  0  0  0  0
   70.2316   69.9167   92.1374 C   0  0  0  0  0  0  0  0  0  0  0  0
   71.4586   69.7917   92.7420 C   0  0  0  0  0  0  0  0  0  0  0  0
   72.2439   68.6950   92.4140 O   0  0  0  0  0  0  0  0  0  0  0  0
   71.9327   68.0643   91.7950 H   0  0  0  0  0  0  0  0  0  0  0  0
   74.1640   71.3163   93.9709 O   0  0  0  0  0  0  0  0  0  0  0  0
   73.2576   70.5177   94.2679 C   0  0  0  0  0  0  0  0  0  0  0  0
   73.4635   69.4829   95.1663 O   0  0  0  0  0  0  0  0  0  0  0  0
   72.7634   68.8953   95.3726 H   0  0  0  0  0  0  0  0  0  0  0  0
   67.8059   81.0885   89.2911 N   0  0  0  0  0  0  0  0  0  0  0  0
   69.0668   81.4690   89.8085 C   0  0  0  0  0  0  0  0  0  0  0  0
   69.9444   80.5742   89.8970 O   0  0  0  0  0  0  0  0  0  0  0  0
   67.0834   81.7512   89.2010 H   0  0  0  0  0  0  0  0  0  0  0  0
   69.3882   82.8540   90.2443 C   0  0  0  0  0  0  0  0  0  0  0  0
   68.1817   83.7538   90.0970 C   0  0  0  0  0  0  0  0  0  0  0  0
   67.5594   83.8586   91.4513 C   0  0  0  0  0  0  0  0  0  0  0  0
   68.2966   82.8692   92.3313 C   0  0  0  0  0  0  0  0  0  0  0  0
   69.6843   82.8438   91.7056 C   0  0  0  0  0  0  0  0  0  0  0  0
   70.5088   83.3825   89.4273 C   0  0  0  0  0  0  0  0  0  0  0  0
   70.3276   84.0773   88.2506 C   0  0  0  0  0  0  0  0  0  0  0  0
   71.3965   84.5604   87.4972 C   0  0  0  0  0  0  0  0  0  0  0  0
   72.6917   84.3472   87.9251 C   0  0  0  0  0  0  0  0  0  0  0  0
   72.8998   83.6550   89.0986 C   0  0  0  0  0  0  0  0  0  0  0  0
   71.8304   83.1949   89.8133 C   0  0  0  0  0  0  0  0  0  0  0  0
   72.0635   82.5165   90.9587 F   0  0  0  0  0  0  0  0  0  0  0  0
  1  2  2  0  0  0  0
  2  3  1  0  0  0  0
  3  4  2  0  0  0  0
  4  5  1  0  0  0  0
  5 27  1  0  0  0  0
  5  6  2  0  0  0  0
  6  1  1  0  0  0  0
  7  8  2  0  0  0  0
  8  9  2  0  0  0  0
  9 10  2  0  0  0  0
 10  1  1  0  0  0  0
 10 11  2  0  0  0  0
 11 12  2  0  0  0  0
 12  7  1  0  0  0  0
 13  7  1  0  0  0  0
 14 13  1  0  0  0  0
 15 16  2  0  0  0  0
 16 17  1  0  0  0  0
 17 14  1  0  0  0  0
 17 18  2  0  0  0  0
 18 19  1  0  0  0  0
 19 20  2  0  0  0  0
 20 21  1  0  0  0  0
 20 15  1  0  0  0  0
 21 22  1  0  0  0  0
 23 24  2  0  0  0  0
 24 25  1  0  0  0  0
 24 15  1  0  0  0  0
 25 26  1  0  0  0  0
 27 28  1  0  0  0  0
 27 30  1  0  0  0  0
 28 29  2  0  0  0  0
 28 31  1  0  0  0  0
 31 36  1  0  0  0  0
 31 32  1  0  0  0  0
 32 33  1  0  0  0  0
 33 34  1  0  0  0  0
 34 35  1  0  0  0  0
 35 31  1  0  0  0  0
 36 37  2  0  0  0  0
 37 38  1  0  0  0  0
 38 39  2  0  0  0  0
 39 40  1  0  0  0  0
 40 41  2  0  0  0  0
 41 42  1  0  0  0  0
 41 36  1  0  0  0  0
M  END
>  <Activity>
34.7

>  <minimizedAffinity>
-9.37611

>  <RFScoreVS_v2>
5.96764576439

$$$$
HIPS6458
 OpenBabel05252300073D

 42 45  0  0  0  0  0  0  0  0999 V2000
   67.3096   75.4072   89.1451 C   0  0  0  0  0  0  0  0  0  0  0  0
   66.7221   74.5744   88.1728 C   0  0  0  0  0  0  0  0  0  0  0  0
   66.9164   73.1848   88.2049 C   0  0  0  0  0  0  0  0  0  0  0  0
   67.7009   72.6203   89.2204 C   0  0  0  0  0  0  0  0  0  0  0  0
   68.2764   73.4289   90.2233 C   0  0  0  0  0  0  0  0  0  0  0  0
   68.0808   74.8224   90.1663 C   0  0  0  0  0  0  0  0  0  0  0  0
   66.6978   79.6439   88.9919 C   0  0  0  0  0  0  0  0  0  0  0  0
   66.9194   78.9196   87.8585 N   0  0  0  0  0  0  0  0  0  0  0  0
   67.1124   77.5774   87.8848 C   0  0  0  0  0  0  0  0  0  0  0  0
   67.0925   76.8774   89.1065 C   0  0  0  0  0  0  0  0  0  0  0  0
   66.8656   77.6087   90.2850 C   0  0  0  0  0  0  0  0  0  0  0  0
   66.6671   78.9914   90.2318 C   0  0  0  0  0  0  0  0  0  0  0  0
   66.3798   79.8925   91.7150 Cl  0  0  0  0  0  0  0  0  0  0  0  0
   66.5163   81.0316   88.9307 O   0  0  0  0  0  0  0  0  0  0  0  0
   67.7172   82.2216   87.2187 C   0  0  0  0  0  0  0  0  0  0  0  0
   67.5715   81.9740   88.7196 C   0  0  0  0  0  0  0  0  0  0  0  0
   68.8831   81.4443   89.3149 C   0  0  0  0  0  0  0  0  0  0  0  0
   69.0314   72.8210   91.3549 C   0  0  0  0  0  0  0  0  0  0  0  0
   69.8228   73.6126   92.2110 C   0  0  0  0  0  0  0  0  0  0  0  0
   70.5533   73.0368   93.1956 N   0  0  0  0  0  0  0  0  0  0  0  0
   70.5606   71.6918   93.4081 C   0  0  0  0  0  0  0  0  0  0  0  0
   69.7836   70.8616   92.5896 C   0  0  0  0  0  0  0  0  0  0  0  0
   69.7675   69.1205   92.8305 Cl  0  0  0  0  0  0  0  0  0  0  0  0
   69.0169   71.4289   91.5694 C   0  0  0  0  0  0  0  0  0  0  0  0
   71.3496   71.1291   94.4160 O   0  0  0  0  0  0  0  0  0  0  0  0
   72.7504   70.8762   94.2903 C   0  0  0  0  0  0  0  0  0  0  0  0
   73.0758   70.6297   92.8155 C   0  0  0  0  0  0  0  0  0  0  0  0
   73.1319   69.6561   95.1351 C   0  0  0  0  0  0  0  0  0  0  0  0
   66.1143   72.2898   87.2978 C   0  0  0  0  0  0  0  0  0  0  0  0
   66.8054   72.2323   86.0502 O   0  0  0  0  0  0  0  0  0  0  0  0
   66.5008   71.3782   84.9803 C   0  0  0  0  0  0  0  0  0  0  0  0
   67.4016   70.4355   84.4537 C   0  0  0  0  0  0  0  0  0  0  0  0
   67.0216   69.6316   83.3744 C   0  0  0  0  0  0  0  0  0  0  0  0
   65.7388   69.7499   82.8063 C   0  0  0  0  0  0  0  0  0  0  0  0
   65.3962   68.9474   81.7194 O   0  0  0  0  0  0  0  0  0  0  0  0
   64.8235   70.6966   83.3290 C   0  0  0  0  0  0  0  0  0  0  0  0
   65.2194   71.4866   84.4208 C   0  0  0  0  0  0  0  0  0  0  0  0
   66.0114   68.3254   81.3839 H   0  0  0  0  0  0  0  0  0  0  0  0
   63.4666   70.9097   82.7538 C   0  0  0  0  0  0  0  0  0  0  0  0
   62.4297   70.6785   83.4327 O   0  0  0  0  0  0  0  0  0  0  0  0
   63.3262   71.3693   81.4453 O   0  0  0  0  0  0  0  0  0  0  0  0
   64.0864   71.5461   80.9268 H   0  0  0  0  0  0  0  0  0  0  0  0
  1  2  2  0  0  0  0
  2  3  1  0  0  0  0
  3 29  1  0  0  0  0
  3  4  2  0  0  0  0
  4  5  1  0  0  0  0
  5 18  1  0  0  0  0
  5  6  2  0  0  0  0
  6  1  1  0  0  0  0
  7  8  2  0  0  0  0
  8  9  2  0  0  0  0
  9 10  2  0  0  0  0
 10  1  1  0  0  0  0
 10 11  1  0  0  0  0
 11 12  2  0  0  0  0
 12 13  1  0  0  0  0
 12  7  1  0  0  0  0
 14  7  1  0  0  0  0
 15 16  1  0  0  0  0
 16 17  1  0  0  0  0
 16 14  1  0  0  0  0
 18 19  2  0  0  0  0
 19 20  2  0  0  0  0
 20 21  2  0  0  0  0
 21 25  1  0  0  0  0
 21 22  1  0  0  0  0
 22 23  1  0  0  0  0
 22 24  2  0  0  0  0
 24 18  1  0  0  0  0
 25 26  1  0  0  0  0
 26 27  1  0  0  0  0
 26 28  1  0  0  0  0
 29 30  1  0  0  0  0
 30 31  1  0  0  0  0
 31 32  2  0  0  0  0
 32 33  1  0  0  0  0
 33 34  2  0  0  0  0
 34 35  1  0  0  0  0
 34 36  1  0  0  0  0
 35 38  1  0  0  0  0
 36 39  1  0  0  0  0
 36 37  2  0  0  0  0
 37 31  1  0  0  0  0
 39 40  2  0  0  0  0
 39 41  1  0  0  0  0
 41 42  1  0  0  0  0
M  END
>  <Activity>
4.1

>  <minimizedAffinity>
-9.80168

>  <RFScoreVS_v2>
6.06853698063

$$$$
HIPS6458
 OpenBabel05252300073D

 42 45  0  0  0  0  0  0  0  0999 V2000
   68.6161   73.7699   90.6955 C   0  0  0  0  0  0  0  0  0  0  0  0
   67.7830   73.1819   89.7237 C   0  0  0  0  0  0  0  0  0  0  0  0
   67.0426   73.9776   88.8357 C   0  0  0  0  0  0  0  0  0  0  0  0
   67.1384   75.3739   88.9152 C   0  0  0  0  0  0  0  0  0  0  0  0
   67.9881   75.9876   89.8599 C   0  0  0  0  0  0  0  0  0  0  0  0
   68.7126   75.1724   90.7509 C   0  0  0  0  0  0  0  0  0  0  0  0
   70.8946   71.3531   93.4001 C   0  0  0  0  0  0  0  0  0  0  0  0
   70.7298   72.6896   93.6126 N   0  0  0  0  0  0  0  0  0  0  0  0
   70.0100   73.4718   92.7704 C   0  0  0  0  0  0  0  0  0  0  0  0
   69.4014   72.9185   91.6274 C   0  0  0  0  0  0  0  0  0  0  0  0
   69.5614   71.5421   91.3929 C   0  0  0  0  0  0  0  0  0  0  0  0
   70.3062   70.7561   92.2769 C   0  0  0  0  0  0  0  0  0  0  0  0
   70.4939   69.0338   91.9724 Cl  0  0  0  0  0  0  0  0  0  0  0  0
   71.6565   70.5764   94.2826 O   0  0  0  0  0  0  0  0  0  0  0  0
   73.6982   70.6422   93.0114 C   0  0  0  0  0  0  0  0  0  0  0  0
   73.0788   70.6608   94.4082 C   0  0  0  0  0  0  0  0  0  0  0  0
   73.6070   69.4946   95.2547 C   0  0  0  0  0  0  0  0  0  0  0  0
   68.1622   77.4672   89.8830 C   0  0  0  0  0  0  0  0  0  0  0  0
   67.0705   78.3323   89.6692 C   0  0  0  0  0  0  0  0  0  0  0  0
   67.2568   79.6734   89.6300 N   0  0  0  0  0  0  0  0  0  0  0  0
   68.4816   80.2456   89.7934 C   0  0  0  0  0  0  0  0  0  0  0  0
   69.5980   79.4293   90.0175 C   0  0  0  0  0  0  0  0  0  0  0  0
   71.1962   80.1293   90.2314 Cl  0  0  0  0  0  0  0  0  0  0  0  0
   69.4343   78.0432   90.0675 C   0  0  0  0  0  0  0  0  0  0  0  0
   68.6412   81.6326   89.7179 O   0  0  0  0  0  0  0  0  0  0  0  0
   69.1070   82.3238   88.5573 C   0  0  0  0  0  0  0  0  0  0  0  0
   69.9013   83.5537   89.0024 C   0  0  0  0  0  0  0  0  0  0  0  0
   67.9133   82.7405   87.6916 C   0  0  0  0  0  0  0  0  0  0  0  0
   66.3301   73.3443   87.6701 C   0  0  0  0  0  0  0  0  0  0  0  0
   66.9619   72.0876   87.4272 O   0  0  0  0  0  0  0  0  0  0  0  0
   66.9451   71.3794   86.2168 C   0  0  0  0  0  0  0  0  0  0  0  0
   68.0133   70.5857   85.7624 C   0  0  0  0  0  0  0  0  0  0  0  0
   67.9199   69.9234   84.5343 C   0  0  0  0  0  0  0  0  0  0  0  0
   66.7611   70.0368   83.7425 C   0  0  0  0  0  0  0  0  0  0  0  0
   66.7055   69.3795   82.5147 O   0  0  0  0  0  0  0  0  0  0  0  0
   65.6792   70.8340   84.1908 C   0  0  0  0  0  0  0  0  0  0  0  0
   65.7871   71.4819   85.4324 C   0  0  0  0  0  0  0  0  0  0  0  0
   67.4284   68.8555   82.2307 H   0  0  0  0  0  0  0  0  0  0  0  0
   64.4404   71.0371   83.3897 C   0  0  0  0  0  0  0  0  0  0  0  0
   64.4926   71.1808   82.1382 O   0  0  0  0  0  0  0  0  0  0  0  0
   63.1979   71.0731   84.0205 O   0  0  0  0  0  0  0  0  0  0  0  0
   63.1411   70.9679   84.9499 H   0  0  0  0  0  0  0  0  0  0  0  0
  1  2  2  0  0  0  0
  2  3  1  0  0  0  0
  3 29  1  0  0  0  0
  3  4  2  0  0  0  0
  4  5  1  0  0  0  0
  5 18  1  0  0  0  0
  5  6  2  0  0  0  0
  6  1  1  0  0  0  0
  7  8  2  0  0  0  0
  8  9  2  0  0  0  0
  9 10  2  0  0  0  0
 10  1  1  0  0  0  0
 10 11  1  0  0  0  0
 11 12  2  0  0  0  0
 12 13  1  0  0  0  0
 12  7  1  0  0  0  0
 14  7  1  0  0  0  0
 15 16  1  0  0  0  0
 16 17  1  0  0  0  0
 16 14  1  0  0  0  0
 18 19  2  0  0  0  0
 19 20  2  0  0  0  0
 20 21  2  0  0  0  0
 21 25  1  0  0  0  0
 21 22  1  0  0  0  0
 22 23  1  0  0  0  0
 22 24  2  0  0  0  0
 24 18  1  0  0  0  0
 25 26  1  0  0  0  0
 26 27  1  0  0  0  0
 26 28  1  0  0  0  0
 29 30  1  0  0  0  0
 30 31  1  0  0  0  0
 31 32  2  0  0  0  0
 32 33  1  0  0  0  0
 33 34  2  0  0  0  0
 34 35  1  0  0  0  0
 34 36  1  0  0  0  0
 35 38  1  0  0  0  0
 36 39  1  0  0  0  0
 36 37  2  0  0  0  0
 37 31  1  0  0  0  0
 39 40  2  0  0  0  0
 39 41  1  0  0  0  0
 41 42  1  0  0  0  0
M  END
>  <Activity>
4.1

>  <minimizedAffinity>
-9.56544

>  <RFScoreVS_v2>
6.02595910655

$$$$
HIPS6458
 OpenBabel05252300073D

 42 45  0  0  0  0  0  0  0  0999 V2000
   68.3235   79.9455   89.9026 C   0  0  0  0  0  0  0  0  0  0  0  0
   67.8597   79.9322   91.2326 C   0  0  0  0  0  0  0  0  0  0  0  0
   67.1703   78.8208   91.7419 C   0  0  0  0  0  0  0  0  0  0  0  0
   66.9460   77.7097   90.9171 C   0  0  0  0  0  0  0  0  0  0  0  0
   67.4258   77.6856   89.5904 C   0  0  0  0  0  0  0  0  0  0  0  0
   68.1036   78.8157   89.0936 C   0  0  0  0  0  0  0  0  0  0  0  0
   70.4107   83.3479   88.3488 C   0  0  0  0  0  0  0  0  0  0  0  0
   69.1458   83.0462   87.9396 N   0  0  0  0  0  0  0  0  0  0  0  0
   68.4666   81.9757   88.4211 C   0  0  0  0  0  0  0  0  0  0  0  0
   69.0585   81.1248   89.3743 C   0  0  0  0  0  0  0  0  0  0  0  0
   70.3624   81.4210   89.8071 C   0  0  0  0  0  0  0  0  0  0  0  0
   71.0413   82.5317   89.2976 C   0  0  0  0  0  0  0  0  0  0  0  0
   72.6712   82.8921   89.8523 Cl  0  0  0  0  0  0  0  0  0  0  0  0
   71.0896   84.4536   87.8204 O   0  0  0  0  0  0  0  0  0  0  0  0
   69.7994   86.4755   87.6295 C   0  0  0  0  0  0  0  0  0  0  0  0
   70.9734   85.7871   88.3246 C   0  0  0  0  0  0  0  0  0  0  0  0
   72.2776   86.5601   88.0868 C   0  0  0  0  0  0  0  0  0  0  0  0
   67.2701   76.4693   88.7438 C   0  0  0  0  0  0  0  0  0  0  0  0
   67.0263   76.5720   87.3596 C   0  0  0  0  0  0  0  0  0  0  0  0
   66.8238   75.4585   86.6154 N   0  0  0  0  0  0  0  0  0  0  0  0
   66.8465   74.2072   87.1523 C   0  0  0  0  0  0  0  0  0  0  0  0
   67.0935   74.0508   88.5225 C   0  0  0  0  0  0  0  0  0  0  0  0
   67.1290   72.4527   89.2538 Cl  0  0  0  0  0  0  0  0  0  0  0  0
   67.3104   75.1816   89.3130 C   0  0  0  0  0  0  0  0  0  0  0  0
   66.6044   73.0817   86.3589 O   0  0  0  0  0  0  0  0  0  0  0  0
   67.6094   72.4018   85.6043 C   0  0  0  0  0  0  0  0  0  0  0  0
   67.6947   73.0359   84.2142 C   0  0  0  0  0  0  0  0  0  0  0  0
   67.2546   70.9151   85.4949 C   0  0  0  0  0  0  0  0  0  0  0  0
   66.8721   78.7282   93.2149 C   0  0  0  0  0  0  0  0  0  0  0  0
   66.0755   77.5595   93.4071 O   0  0  0  0  0  0  0  0  0  0  0  0
   66.4348   76.4352   94.1646 C   0  0  0  0  0  0  0  0  0  0  0  0
   65.6176   75.8721   95.1609 C   0  0  0  0  0  0  0  0  0  0  0  0
   66.0591   74.7576   95.8809 C   0  0  0  0  0  0  0  0  0  0  0  0
   67.3175   74.1837   95.6172 C   0  0  0  0  0  0  0  0  0  0  0  0
   67.7373   73.0845   96.3643 O   0  0  0  0  0  0  0  0  0  0  0  0
   68.1489   74.7432   94.6157 C   0  0  0  0  0  0  0  0  0  0  0  0
   67.6829   75.8553   93.8952 C   0  0  0  0  0  0  0  0  0  0  0  0
   67.1771   72.7247   97.0236 H   0  0  0  0  0  0  0  0  0  0  0  0
   69.5089   74.2191   94.3106 C   0  0  0  0  0  0  0  0  0  0  0  0
   70.1162   73.4744   95.1269 O   0  0  0  0  0  0  0  0  0  0  0  0
   70.1327   74.5507   93.1090 O   0  0  0  0  0  0  0  0  0  0  0  0
   69.6955   75.1031   92.4910 H   0  0  0  0  0  0  0  0  0  0  0  0
  1  2  2  0  0  0  0
  2  3  1  0  0  0  0
  3 29  1  0  0  0  0
  3  4  2  0  0  0  0
  4  5  1  0  0  0  0
  5 18  1  0  0  0  0
  5  6  2  0  0  0  0
  6  1  1  0  0  0  0
  7  8  2  0  0  0  0
  8  9  2  0  0  0  0
  9 10  2  0  0  0  0
 10  1  1  0  0  0  0
 10 11  1  0  0  0  0
 11 12  2  0  0  0  0
 12 13  1  0  0  0  0
 12  7  1  0  0  0  0
 14  7  1  0  0  0  0
 15 16  1  0  0  0  0
 16 17  1  0  0  0  0
 16 14  1  0  0  0  0
 18 19  2  0  0  0  0
 19 20  2  0  0  0  0
 20 21  2  0  0  0  0
 21 25  1  0  0  0  0
 21 22  1  0  0  0  0
 22 23  1  0  0  0  0
 22 24  2  0  0  0  0
 24 18  1  0  0  0  0
 25 26  1  0  0  0  0
 26 27  1  0  0  0  0
 26 28  1  0  0  0  0
 29 30  1  0  0  0  0
 30 31  1  0  0  0  0
 31 32  2  0  0  0  0
 32 33  1  0  0  0  0
 33 34  2  0  0  0  0
 34 35  1  0  0  0  0
 34 36  1  0  0  0  0
 35 38  1  0  0  0  0
 36 39  1  0  0  0  0
 36 37  2  0  0  0  0
 37 31  1  0  0  0  0
 39 40  2  0  0  0  0
 39 41  1  0  0  0  0
 41 42  1  0  0  0  0
M  END
>  <Activity>
4.1

>  <minimizedAffinity>
-9.14057

>  <RFScoreVS_v2>
6.00188427358

$$$$
HIPS6458
 OpenBabel05252300073D

 42 45  0  0  0  0  0  0  0  0999 V2000
   67.5659   77.4324   89.7069 C   0  0  0  0  0  0  0  0  0  0  0  0
   67.1274   77.4097   91.0453 C   0  0  0  0  0  0  0  0  0  0  0  0
   67.3418   78.5098   91.8902 C   0  0  0  0  0  0  0  0  0  0  0  0
   67.9959   79.6455   91.3930 C   0  0  0  0  0  0  0  0  0  0  0  0
   68.4189   79.7054   90.0482 C   0  0  0  0  0  0  0  0  0  0  0  0
   68.2066   78.5864   89.2199 C   0  0  0  0  0  0  0  0  0  0  0  0
   66.8662   74.0954   87.1143 C   0  0  0  0  0  0  0  0  0  0  0  0
   66.8147   75.3758   86.6491 N   0  0  0  0  0  0  0  0  0  0  0  0
   67.0360   76.4458   87.4524 C   0  0  0  0  0  0  0  0  0  0  0  0
   67.3284   76.2648   88.8179 C   0  0  0  0  0  0  0  0  0  0  0  0
   67.3852   74.9512   89.3143 C   0  0  0  0  0  0  0  0  0  0  0  0
   67.1556   73.8642   88.4659 C   0  0  0  0  0  0  0  0  0  0  0  0
   67.2345   72.2257   89.1009 Cl  0  0  0  0  0  0  0  0  0  0  0  0
   66.6185   73.0129   86.2602 O   0  0  0  0  0  0  0  0  0  0  0  0
   67.7996   73.2080   84.1731 C   0  0  0  0  0  0  0  0  0  0  0  0
   67.6129   72.3842   85.4466 C   0  0  0  0  0  0  0  0  0  0  0  0
   67.1925   70.9471   85.1100 C   0  0  0  0  0  0  0  0  0  0  0  0
   69.0294   80.9465   89.4940 C   0  0  0  0  0  0  0  0  0  0  0  0
   68.3497   81.7284   88.5387 C   0  0  0  0  0  0  0  0  0  0  0  0
   68.9443   82.8185   87.9975 N   0  0  0  0  0  0  0  0  0  0  0  0
   70.2023   83.2103   88.3412 C   0  0  0  0  0  0  0  0  0  0  0  0
   70.9170   82.4715   89.2932 C   0  0  0  0  0  0  0  0  0  0  0  0
   72.5440   82.9436   89.7624 Cl  0  0  0  0  0  0  0  0  0  0  0  0
   70.3265   81.3455   89.8711 C   0  0  0  0  0  0  0  0  0  0  0  0
   70.7958   84.3247   87.7405 O   0  0  0  0  0  0  0  0  0  0  0  0
   70.7487   85.6467   88.2807 C   0  0  0  0  0  0  0  0  0  0  0  0
   69.6415   86.4293   87.5715 C   0  0  0  0  0  0  0  0  0  0  0  0
   72.1037   86.3338   88.0810 C   0  0  0  0  0  0  0  0  0  0  0  0
   66.6831   78.5612   93.2433 C   0  0  0  0  0  0  0  0  0  0  0  0
   65.9641   77.3387   93.4046 O   0  0  0  0  0  0  0  0  0  0  0  0
   66.3448   76.2625   94.2193 C   0  0  0  0  0  0  0  0  0  0  0  0
   65.6486   75.8774   95.3789 C   0  0  0  0  0  0  0  0  0  0  0  0
   66.1053   74.7994   96.1436 C   0  0  0  0  0  0  0  0  0  0  0  0
   67.2579   74.0855   95.7637 C   0  0  0  0  0  0  0  0  0  0  0  0
   67.6986   73.0274   96.5566 O   0  0  0  0  0  0  0  0  0  0  0  0
   67.9669   74.4652   94.5974 C   0  0  0  0  0  0  0  0  0  0  0  0
   67.4859   75.5431   93.8359 C   0  0  0  0  0  0  0  0  0  0  0  0
   67.2198   72.7870   97.3254 H   0  0  0  0  0  0  0  0  0  0  0  0
   69.2172   73.7870   94.1566 C   0  0  0  0  0  0  0  0  0  0  0  0
   70.1193   74.4212   93.5454 O   0  0  0  0  0  0  0  0  0  0  0  0
   69.4051   72.4302   94.4152 O   0  0  0  0  0  0  0  0  0  0  0  0
   68.7447   71.9438   94.8683 H   0  0  0  0  0  0  0  0  0  0  0  0
  1  2  2  0  0  0  0
  2  3  1  0  0  0  0
  3 29  1  0  0  0  0
  3  4  2  0  0  0  0
  4  5  1  0  0  0  0
  5 18  1  0  0  0  0
  5  6  2  0  0  0  0
  6  1  1  0  0  0  0
  7  8  2  0  0  0  0
  8  9  2  0  0  0  0
  9 10  2  0  0  0  0
 10  1  1  0  0  0  0
 10 11  1  0  0  0  0
 11 12  2  0  0  0  0
 12 13  1  0  0  0  0
 12  7  1  0  0  0  0
 14  7  1  0  0  0  0
 15 16  1  0  0  0  0
 16 17  1  0  0  0  0
 16 14  1  0  0  0  0
 18 19  2  0  0  0  0
 19 20  2  0  0  0  0
 20 21  2  0  0  0  0
 21 25  1  0  0  0  0
 21 22  1  0  0  0  0
 22 23  1  0  0  0  0
 22 24  2  0  0  0  0
 24 18  1  0  0  0  0
 25 26  1  0  0  0  0
 26 27  1  0  0  0  0
 26 28  1  0  0  0  0
 29 30  1  0  0  0  0
 30 31  1  0  0  0  0
 31 32  2  0  0  0  0
 32 33  1  0  0  0  0
 33 34  2  0  0  0  0
 34 35  1  0  0  0  0
 34 36  1  0  0  0  0
 35 38  1  0  0  0  0
 36 39  1  0  0  0  0
 36 37  2  0  0  0  0
 37 31  1  0  0  0  0
 39 40  2  0  0  0  0
 39 41  1  0  0  0  0
 41 42  1  0  0  0  0
M  END
>  <Activity>
4.1

>  <minimizedAffinity>
-9.01310

>  <RFScoreVS_v2>
5.99138882541

$$$$
HIPS6458
 OpenBabel05252300073D

 42 45  0  0  0  0  0  0  0  0999 V2000
   68.1148   80.0330   89.7055 C   0  0  0  0  0  0  0  0  0  0  0  0
   67.6864   80.0212   91.0473 C   0  0  0  0  0  0  0  0  0  0  0  0
   67.0629   78.8882   91.5924 C   0  0  0  0  0  0  0  0  0  0  0  0
   66.8694   77.7538   90.7918 C   0  0  0  0  0  0  0  0  0  0  0  0
   67.3156   77.7289   89.4534 C   0  0  0  0  0  0  0  0  0  0  0  0
   67.9271   78.8804   88.9208 C   0  0  0  0  0  0  0  0  0  0  0  0
   70.0631   83.4953   88.1043 C   0  0  0  0  0  0  0  0  0  0  0  0
   70.6768   82.7015   89.0272 N   0  0  0  0  0  0  0  0  0  0  0  0
   70.0788   81.5995   89.5443 C   0  0  0  0  0  0  0  0  0  0  0  0
   68.7802   81.2356   89.1390 C   0  0  0  0  0  0  0  0  0  0  0  0
   68.1327   82.0432   88.1883 C   0  0  0  0  0  0  0  0  0  0  0  0
   68.7708   83.1730   87.6682 C   0  0  0  0  0  0  0  0  0  0  0  0
   67.9492   84.1715   86.4757 Cl  0  0  0  0  0  0  0  0  0  0  0  0
   70.7039   84.6349   87.6009 O   0  0  0  0  0  0  0  0  0  0  0  0
   69.8890   86.8485   88.0753 C   0  0  0  0  0  0  0  0  0  0  0  0
   70.9738   85.8123   88.3669 C   0  0  0  0  0  0  0  0  0  0  0  0
   72.3630   86.3645   88.0198 C   0  0  0  0  0  0  0  0  0  0  0  0
   67.1951   76.4924   88.6309 C   0  0  0  0  0  0  0  0  0  0  0  0
   66.9763   76.5612   87.2405 C   0  0  0  0  0  0  0  0  0  0  0  0
   66.8054   75.4287   86.5172 N   0  0  0  0  0  0  0  0  0  0  0  0
   66.8372   74.1899   87.0817 C   0  0  0  0  0  0  0  0  0  0  0  0
   67.0604   74.0671   88.4594 C   0  0  0  0  0  0  0  0  0  0  0  0
   67.1067   72.4860   89.2261 Cl  0  0  0  0  0  0  0  0  0  0  0  0
   67.2445   75.2180   89.2289 C   0  0  0  0  0  0  0  0  0  0  0  0
   66.6279   73.0438   86.3087 O   0  0  0  0  0  0  0  0  0  0  0  0
   67.6505   72.3848   85.5592 C   0  0  0  0  0  0  0  0  0  0  0  0
   67.7870   73.0747   84.2001 C   0  0  0  0  0  0  0  0  0  0  0  0
   67.2853   70.9078   85.3768 C   0  0  0  0  0  0  0  0  0  0  0  0
   66.8072   78.8074   93.0742 C   0  0  0  0  0  0  0  0  0  0  0  0
   67.9471   78.1800   93.6610 O   0  0  0  0  0  0  0  0  0  0  0  0
   68.2029   76.8014   93.6896 C   0  0  0  0  0  0  0  0  0  0  0  0
   69.3152   76.2012   93.0731 C   0  0  0  0  0  0  0  0  0  0  0  0
   69.4876   74.8150   93.1375 C   0  0  0  0  0  0  0  0  0  0  0  0
   68.5592   74.0059   93.8200 C   0  0  0  0  0  0  0  0  0  0  0  0
   68.7487   72.6254   93.8508 O   0  0  0  0  0  0  0  0  0  0  0  0
   67.4350   74.6002   94.4445 C   0  0  0  0  0  0  0  0  0  0  0  0
   67.2854   75.9953   94.3790 C   0  0  0  0  0  0  0  0  0  0  0  0
   69.4969   72.2458   93.4335 H   0  0  0  0  0  0  0  0  0  0  0  0
   66.3886   73.8064   95.1464 C   0  0  0  0  0  0  0  0  0  0  0  0
   66.6697   73.1172   96.1640 O   0  0  0  0  0  0  0  0  0  0  0  0
   65.0748   73.8148   94.6806 O   0  0  0  0  0  0  0  0  0  0  0  0
   64.8487   74.3216   93.9256 H   0  0  0  0  0  0  0  0  0  0  0  0
  1  2  2  0  0  0  0
  2  3  1  0  0  0  0
  3 29  1  0  0  0  0
  3  4  2  0  0  0  0
  4  5  1  0  0  0  0
  5 18  1  0  0  0  0
  5  6  2  0  0  0  0
  6  1  1  0  0  0  0
  7  8  2  0  0  0  0
  8  9  2  0  0  0  0
  9 10  2  0  0  0  0
 10  1  1  0  0  0  0
 10 11  1  0  0  0  0
 11 12  2  0  0  0  0
 12 13  1  0  0  0  0
 12  7  1  0  0  0  0
 14  7  1  0  0  0  0
 15 16  1  0  0  0  0
 16 17  1  0  0  0  0
 16 14  1  0  0  0  0
 18 19  2  0  0  0  0
 19 20  2  0  0  0  0
 20 21  2  0  0  0  0
 21 25  1  0  0  0  0
 21 22  1  0  0  0  0
 22 23  1  0  0  0  0
 22 24  2  0  0  0  0
 24 18  1  0  0  0  0
 25 26  1  0  0  0  0
 26 27  1  0  0  0  0
 26 28  1  0  0  0  0
 29 30  1  0  0  0  0
 30 31  1  0  0  0  0
 31 32  2  0  0  0  0
 32 33  1  0  0  0  0
 33 34  2  0  0  0  0
 34 35  1  0  0  0  0
 34 36  1  0  0  0  0
 35 38  1  0  0  0  0
 36 39  1  0  0  0  0
 36 37  2  0  0  0  0
 37 31  1  0  0  0  0
 39 40  2  0  0  0  0
 39 41  1  0  0  0  0
 41 42  1  0  0  0  0
M  END
>  <Activity>
4.1

>  <minimizedAffinity>
-8.78740

>  <RFScoreVS_v2>
6.00384497325

$$$$
HIPS6458
 OpenBabel05252300073D

 42 45  0  0  0  0  0  0  0  0999 V2000
   67.4650   78.2641   89.3148 C   0  0  0  0  0  0  0  0  0  0  0  0
   66.8581   78.2568   90.5859 C   0  0  0  0  0  0  0  0  0  0  0  0
   67.0141   79.3415   91.4628 C   0  0  0  0  0  0  0  0  0  0  0  0
   67.7794   80.4466   91.0652 C   0  0  0  0  0  0  0  0  0  0  0  0
   68.3736   80.4920   89.7862 C   0  0  0  0  0  0  0  0  0  0  0  0
   68.2165   79.3882   88.9258 C   0  0  0  0  0  0  0  0  0  0  0  0
   66.9646   74.9205   86.6849 C   0  0  0  0  0  0  0  0  0  0  0  0
   67.0141   74.7557   88.0373 N   0  0  0  0  0  0  0  0  0  0  0  0
   67.1690   75.8011   88.8873 C   0  0  0  0  0  0  0  0  0  0  0  0
   67.2886   77.1133   88.3905 C   0  0  0  0  0  0  0  0  0  0  0  0
   67.2399   77.3012   86.9986 C   0  0  0  0  0  0  0  0  0  0  0  0
   67.0773   76.2079   86.1428 C   0  0  0  0  0  0  0  0  0  0  0  0
   67.0138   76.4595   84.4030 Cl  0  0  0  0  0  0  0  0  0  0  0  0
   66.8180   73.8171   85.8342 O   0  0  0  0  0  0  0  0  0  0  0  0
   67.6506   71.8932   84.6534 C   0  0  0  0  0  0  0  0  0  0  0  0
   67.4851   72.5649   86.0160 C   0  0  0  0  0  0  0  0  0  0  0  0
   66.6837   71.6704   86.9715 C   0  0  0  0  0  0  0  0  0  0  0  0
   69.1078   81.7047   89.3276 C   0  0  0  0  0  0  0  0  0  0  0  0
   68.4870   82.6628   88.5014 C   0  0  0  0  0  0  0  0  0  0  0  0
   69.1872   83.7270   88.0411 N   0  0  0  0  0  0  0  0  0  0  0  0
   70.4994   83.9252   88.3466 C   0  0  0  0  0  0  0  0  0  0  0  0
   71.1602   83.0058   89.1717 C   0  0  0  0  0  0  0  0  0  0  0  0
   72.8540   83.2252   89.5877 Cl  0  0  0  0  0  0  0  0  0  0  0  0
   70.4612   81.9016   89.6645 C   0  0  0  0  0  0  0  0  0  0  0  0
   71.1987   85.0201   87.8297 O   0  0  0  0  0  0  0  0  0  0  0  0
   71.3772   86.2569   88.5226 C   0  0  0  0  0  0  0  0  0  0  0  0
   70.1895   87.1707   88.2129 C   0  0  0  0  0  0  0  0  0  0  0  0
   72.6888   86.9125   88.0778 C   0  0  0  0  0  0  0  0  0  0  0  0
   66.1907   79.4187   92.7211 C   0  0  0  0  0  0  0  0  0  0  0  0
   66.8624   78.6367   93.7084 O   0  0  0  0  0  0  0  0  0  0  0  0
   66.9460   77.2369   93.7312 C   0  0  0  0  0  0  0  0  0  0  0  0
   65.8615   76.3954   94.0366 C   0  0  0  0  0  0  0  0  0  0  0  0
   66.0349   75.0079   94.0513 C   0  0  0  0  0  0  0  0  0  0  0  0
   67.2879   74.4367   93.7576 C   0  0  0  0  0  0  0  0  0  0  0  0
   67.4337   73.0512   93.7985 O   0  0  0  0  0  0  0  0  0  0  0  0
   68.3872   75.2753   93.4488 C   0  0  0  0  0  0  0  0  0  0  0  0
   68.1904   76.6659   93.4275 C   0  0  0  0  0  0  0  0  0  0  0  0
   66.6980   72.5086   94.0041 H   0  0  0  0  0  0  0  0  0  0  0  0
   69.7516   74.7473   93.1709 C   0  0  0  0  0  0  0  0  0  0  0  0
   70.1729   73.7044   93.7404 O   0  0  0  0  0  0  0  0  0  0  0  0
   70.5869   75.4076   92.2712 O   0  0  0  0  0  0  0  0  0  0  0  0
   70.2896   76.1841   91.8392 H   0  0  0  0  0  0  0  0  0  0  0  0
  1  2  2  0  0  0  0
  2  3  1  0  0  0  0
  3 29  1  0  0  0  0
  3  4  2  0  0  0  0
  4  5  1  0  0  0  0
  5 18  1  0  0  0  0
  5  6  2  0  0  0  0
  6  1  1  0  0  0  0
  7  8  2  0  0  0  0
  8  9  2  0  0  0  0
  9 10  2  0  0  0  0
 10  1  1  0  0  0  0
 10 11  1  0  0  0  0
 11 12  2  0  0  0  0
 12 13  1  0  0  0  0
 12  7  1  0  0  0  0
 14  7  1  0  0  0  0
 15 16  1  0  0  0  0
 16 17  1  0  0  0  0
 16 14  1  0  0  0  0
 18 19  2  0  0  0  0
 19 20  2  0  0  0  0
 20 21  2  0  0  0  0
 21 25  1  0  0  0  0
 21 22  1  0  0  0  0
 22 23  1  0  0  0  0
 22 24  2  0  0  0  0
 24 18  1  0  0  0  0
 25 26  1  0  0  0  0
 26 27  1  0  0  0  0
 26 28  1  0  0  0  0
 29 30  1  0  0  0  0
 30 31  1  0  0  0  0
 31 32  2  0  0  0  0
 32 33  1  0  0  0  0
 33 34  2  0  0  0  0
 34 35  1  0  0  0  0
 34 36  1  0  0  0  0
 35 38  1  0  0  0  0
 36 39  1  0  0  0  0
 36 37  2  0  0  0  0
 37 31  1  0  0  0  0
 39 40  2  0  0  0  0
 39 41  1  0  0  0  0
 41 42  1  0  0  0  0
M  END
>  <Activity>
4.1

>  <minimizedAffinity>
-8.73760

>  <RFScoreVS_v2>
5.9795911931

$$$$
HIPS6458
 OpenBabel05252300073D

 42 45  0  0  0  0  0  0  0  0999 V2000
   67.4020   77.5099   89.6715 C   0  0  0  0  0  0  0  0  0  0  0  0
   66.9453   77.2844   90.9848 C   0  0  0  0  0  0  0  0  0  0  0  0
   67.0807   78.2726   91.9722 C   0  0  0  0  0  0  0  0  0  0  0  0
   67.6733   79.5000   91.6443 C   0  0  0  0  0  0  0  0  0  0  0  0
   68.1125   79.7624   90.3293 C   0  0  0  0  0  0  0  0  0  0  0  0
   67.9799   78.7533   89.3559 C   0  0  0  0  0  0  0  0  0  0  0  0
   66.9658   74.4521   86.7040 C   0  0  0  0  0  0  0  0  0  0  0  0
   66.9737   74.1516   88.0337 N   0  0  0  0  0  0  0  0  0  0  0  0
   67.1077   75.1048   88.9890 C   0  0  0  0  0  0  0  0  0  0  0  0
   67.2482   76.4594   88.6310 C   0  0  0  0  0  0  0  0  0  0  0  0
   67.2423   76.7870   87.2643 C   0  0  0  0  0  0  0  0  0  0  0  0
   67.1006   75.7867   86.2981 C   0  0  0  0  0  0  0  0  0  0  0  0
   67.0907   76.2128   84.5915 Cl  0  0  0  0  0  0  0  0  0  0  0  0
   66.8397   73.4412   85.7423 O   0  0  0  0  0  0  0  0  0  0  0  0
   67.3634   71.4821   84.4474 C   0  0  0  0  0  0  0  0  0  0  0  0
   67.5366   72.1930   85.7890 C   0  0  0  0  0  0  0  0  0  0  0  0
   67.0001   71.3283   86.9379 C   0  0  0  0  0  0  0  0  0  0  0  0
   68.6560   81.0991   89.9579 C   0  0  0  0  0  0  0  0  0  0  0  0
   70.0451   81.3274   89.8914 C   0  0  0  0  0  0  0  0  0  0  0  0
   70.5234   82.5640   89.6147 N   0  0  0  0  0  0  0  0  0  0  0  0
   69.7060   83.6295   89.3889 C   0  0  0  0  0  0  0  0  0  0  0  0
   68.3169   83.4530   89.4350 C   0  0  0  0  0  0  0  0  0  0  0  0
   67.2282   84.8036   89.1511 Cl  0  0  0  0  0  0  0  0  0  0  0  0
   67.7960   82.1874   89.7135 C   0  0  0  0  0  0  0  0  0  0  0  0
   70.2353   84.8984   89.1346 O   0  0  0  0  0  0  0  0  0  0  0  0
   70.6464   85.3514   87.8433 C   0  0  0  0  0  0  0  0  0  0  0  0
   72.0876   85.8576   87.9349 C   0  0  0  0  0  0  0  0  0  0  0  0
   69.7139   86.4707   87.3685 C   0  0  0  0  0  0  0  0  0  0  0  0
   66.3996   78.1059   93.3047 C   0  0  0  0  0  0  0  0  0  0  0  0
   65.9440   76.7549   93.3747 O   0  0  0  0  0  0  0  0  0  0  0  0
   66.4294   75.7678   94.2447 C   0  0  0  0  0  0  0  0  0  0  0  0
   65.8171   75.4348   95.4661 C   0  0  0  0  0  0  0  0  0  0  0  0
   66.3758   74.4463   96.2823 C   0  0  0  0  0  0  0  0  0  0  0  0
   67.5487   73.7711   95.8937 C   0  0  0  0  0  0  0  0  0  0  0  0
   68.0916   72.8038   96.7375 O   0  0  0  0  0  0  0  0  0  0  0  0
   68.1738   74.0990   94.6653 C   0  0  0  0  0  0  0  0  0  0  0  0
   67.5910   75.0862   93.8537 C   0  0  0  0  0  0  0  0  0  0  0  0
   67.6676   72.5969   97.5470 H   0  0  0  0  0  0  0  0  0  0  0  0
   69.4388   73.4601   94.2080 C   0  0  0  0  0  0  0  0  0  0  0  0
   70.2180   74.0560   93.4160 O   0  0  0  0  0  0  0  0  0  0  0  0
   69.7777   72.1833   94.6529 O   0  0  0  0  0  0  0  0  0  0  0  0
   69.2099   71.7262   95.2417 H   0  0  0  0  0  0  0  0  0  0  0  0
  1  2  2  0  0  0  0
  2  3  1  0  0  0  0
  3 29  1  0  0  0  0
  3  4  2  0  0  0  0
  4  5  1  0  0  0  0
  5 18  1  0  0  0  0
  5  6  2  0  0  0  0
  6  1  1  0  0  0  0
  7  8  2  0  0  0  0
  8  9  2  0  0  0  0
  9 10  2  0  0  0  0
 10  1  1  0  0  0  0
 10 11  1  0  0  0  0
 11 12  2  0  0  0  0
 12 13  1  0  0  0  0
 12  7  1  0  0  0  0
 14  7  1  0  0  0  0
 15 16  1  0  0  0  0
 16 17  1  0  0  0  0
 16 14  1  0  0  0  0
 18 19  2  0  0  0  0
 19 20  2  0  0  0  0
 20 21  2  0  0  0  0
 21 25  1  0  0  0  0
 21 22  1  0  0  0  0
 22 23  1  0  0  0  0
 22 24  2  0  0  0  0
 24 18  1  0  0  0  0
 25 26  1  0  0  0  0
 26 27  1  0  0  0  0
 26 28  1  0  0  0  0
 29 30  1  0  0  0  0
 30 31  1  0  0  0  0
 31 32  2  0  0  0  0
 32 33  1  0  0  0  0
 33 34  2  0  0  0  0
 34 35  1  0  0  0  0
 34 36  1  0  0  0  0
 35 38  1  0  0  0  0
 36 39  1  0  0  0  0
 36 37  2  0  0  0  0
 37 31  1  0  0  0  0
 39 40  2  0  0  0  0
 39 41  1  0  0  0  0
 41 42  1  0  0  0  0
M  END
>  <Activity>
4.1

>  <minimizedAffinity>
-8.58094

>  <RFScoreVS_v2>
5.98718714804

$$$$
HIPS6458
 OpenBabel05252300073D

 42 45  0  0  0  0  0  0  0  0999 V2000
   68.1966   80.9286   89.4801 C   0  0  0  0  0  0  0  0  0  0  0  0
   67.5806   80.9808   90.7457 C   0  0  0  0  0  0  0  0  0  0  0  0
   66.7676   79.9277   91.1929 C   0  0  0  0  0  0  0  0  0  0  0  0
   66.5713   78.8094   90.3708 C   0  0  0  0  0  0  0  0  0  0  0  0
   67.2004   78.7190   89.1110 C   0  0  0  0  0  0  0  0  0  0  0  0
   68.0017   79.7917   88.6744 C   0  0  0  0  0  0  0  0  0  0  0  0
   70.6591   84.1572   88.1165 C   0  0  0  0  0  0  0  0  0  0  0  0
   69.3810   84.0038   87.6677 N   0  0  0  0  0  0  0  0  0  0  0  0
   68.5841   82.9906   88.0889 C   0  0  0  0  0  0  0  0  0  0  0  0
   69.0613   82.0461   89.0179 C   0  0  0  0  0  0  0  0  0  0  0  0
   70.3770   82.1891   89.4909 C   0  0  0  0  0  0  0  0  0  0  0  0
   71.1785   83.2434   89.0434 C   0  0  0  0  0  0  0  0  0  0  0  0
   72.8218   83.4118   89.6480 Cl  0  0  0  0  0  0  0  0  0  0  0  0
   71.4605   85.2073   87.6500 O   0  0  0  0  0  0  0  0  0  0  0  0
   72.5677   87.2024   88.4136 C   0  0  0  0  0  0  0  0  0  0  0  0
   71.2441   86.5863   87.9621 C   0  0  0  0  0  0  0  0  0  0  0  0
   70.1777   86.7217   89.0574 C   0  0  0  0  0  0  0  0  0  0  0  0
   67.0682   77.4910   88.2775 C   0  0  0  0  0  0  0  0  0  0  0  0
   66.9947   76.2140   88.8689 C   0  0  0  0  0  0  0  0  0  0  0  0
   66.9390   75.1033   88.0957 N   0  0  0  0  0  0  0  0  0  0  0  0
   66.9487   75.1594   86.7352 C   0  0  0  0  0  0  0  0  0  0  0  0
   67.0119   76.4058   86.0984 C   0  0  0  0  0  0  0  0  0  0  0  0
   67.0284   76.5204   84.3444 Cl  0  0  0  0  0  0  0  0  0  0  0  0
   67.0655   77.5680   86.8711 C   0  0  0  0  0  0  0  0  0  0  0  0
   66.9192   73.9904   85.9688 O   0  0  0  0  0  0  0  0  0  0  0  0
   67.2951   72.7015   86.4579 C   0  0  0  0  0  0  0  0  0  0  0  0
   67.2821   71.7096   85.2928 C   0  0  0  0  0  0  0  0  0  0  0  0
   66.3159   72.2589   87.5503 C   0  0  0  0  0  0  0  0  0  0  0  0
   66.2940   79.8949   92.6219 C   0  0  0  0  0  0  0  0  0  0  0  0
   67.1983   79.0578   93.3424 O   0  0  0  0  0  0  0  0  0  0  0  0
   67.0577   77.6769   93.5430 C   0  0  0  0  0  0  0  0  0  0  0  0
   65.8205   77.0399   93.7459 C   0  0  0  0  0  0  0  0  0  0  0  0
   65.7706   75.6579   93.9531 C   0  0  0  0  0  0  0  0  0  0  0  0
   66.9497   74.8884   93.9566 C   0  0  0  0  0  0  0  0  0  0  0  0
   66.8691   73.5157   94.1842 O   0  0  0  0  0  0  0  0  0  0  0  0
   68.2015   75.5200   93.7533 C   0  0  0  0  0  0  0  0  0  0  0  0
   68.2300   76.9073   93.5351 C   0  0  0  0  0  0  0  0  0  0  0  0
   66.0345   73.1110   94.3171 H   0  0  0  0  0  0  0  0  0  0  0  0
   69.4934   74.7802   93.7870 C   0  0  0  0  0  0  0  0  0  0  0  0
   70.2462   74.7413   92.7764 O   0  0  0  0  0  0  0  0  0  0  0  0
   69.8876   74.1143   94.9464 O   0  0  0  0  0  0  0  0  0  0  0  0
   69.3401   74.1330   95.7066 H   0  0  0  0  0  0  0  0  0  0  0  0
  1  2  2  0  0  0  0
  2  3  1  0  0  0  0
  3 29  1  0  0  0  0
  3  4  2  0  0  0  0
  4  5  1  0  0  0  0
  5 18  1  0  0  0  0
  5  6  2  0  0  0  0
  6  1  1  0  0  0  0
  7  8  2  0  0  0  0
  8  9  2  0  0  0  0
  9 10  2  0  0  0  0
 10  1  1  0  0  0  0
 10 11  1  0  0  0  0
 11 12  2  0  0  0  0
 12 13  1  0  0  0  0
 12  7  1  0  0  0  0
 14  7  1  0  0  0  0
 15 16  1  0  0  0  0
 16 17  1  0  0  0  0
 16 14  1  0  0  0  0
 18 19  2  0  0  0  0
 19 20  2  0  0  0  0
 20 21  2  0  0  0  0
 21 25  1  0  0  0  0
 21 22  1  0  0  0  0
 22 23  1  0  0  0  0
 22 24  2  0  0  0  0
 24 18  1  0  0  0  0
 25 26  1  0  0  0  0
 26 27  1  0  0  0  0
 26 28  1  0  0  0  0
 29 30  1  0  0  0  0
 30 31  1  0  0  0  0
 31 32  2  0  0  0  0
 32 33  1  0  0  0  0
 33 34  2  0  0  0  0
 34 35  1  0  0  0  0
 34 36  1  0  0  0  0
 35 38  1  0  0  0  0
 36 39  1  0  0  0  0
 36 37  2  0  0  0  0
 37 31  1  0  0  0  0
 39 40  2  0  0  0  0
 39 41  1  0  0  0  0
 41 42  1  0  0  0  0
M  END
>  <Activity>
4.1

>  <minimizedAffinity>
-8.53513

>  <RFScoreVS_v2>
6.00928458882

$$$$
HIPS6458
 OpenBabel05252300073D

 42 45  0  0  0  0  0  0  0  0999 V2000
   67.3607   79.2111   88.8863 C   0  0  0  0  0  0  0  0  0  0  0  0
   67.2209   78.8774   90.2476 C   0  0  0  0  0  0  0  0  0  0  0  0
   67.0155   77.5467   90.6437 C   0  0  0  0  0  0  0  0  0  0  0  0
   66.9538   76.5385   89.6717 C   0  0  0  0  0  0  0  0  0  0  0  0
   67.1202   76.8418   88.3038 C   0  0  0  0  0  0  0  0  0  0  0  0
   67.3121   78.1847   87.9253 C   0  0  0  0  0  0  0  0  0  0  0  0
   67.9982   83.2670   87.6656 C   0  0  0  0  0  0  0  0  0  0  0  0
   67.4594   82.3484   86.8146 N   0  0  0  0  0  0  0  0  0  0  0  0
   67.2467   81.0604   87.1822 C   0  0  0  0  0  0  0  0  0  0  0  0
   67.5846   80.6227   88.4772 C   0  0  0  0  0  0  0  0  0  0  0  0
   68.1415   81.5568   89.3675 C   0  0  0  0  0  0  0  0  0  0  0  0
   68.3491   82.8795   88.9659 C   0  0  0  0  0  0  0  0  0  0  0  0
   69.0429   84.0383   90.0929 Cl  0  0  0  0  0  0  0  0  0  0  0  0
   68.2179   84.5865   87.2490 O   0  0  0  0  0  0  0  0  0  0  0  0
   70.4721   83.9333   86.7189 C   0  0  0  0  0  0  0  0  0  0  0  0
   69.4343   85.0534   86.6589 C   0  0  0  0  0  0  0  0  0  0  0  0
   69.9365   86.3025   87.3957 C   0  0  0  0  0  0  0  0  0  0  0  0
   67.1487   75.7601   87.2795 C   0  0  0  0  0  0  0  0  0  0  0  0
   67.3492   76.0538   85.9158 C   0  0  0  0  0  0  0  0  0  0  0  0
   67.3088   75.0663   84.9895 N   0  0  0  0  0  0  0  0  0  0  0  0
   67.0795   73.7651   85.3188 C   0  0  0  0  0  0  0  0  0  0  0  0
   66.8827   73.4197   86.6622 C   0  0  0  0  0  0  0  0  0  0  0  0
   66.5821   71.7515   87.1278 Cl  0  0  0  0  0  0  0  0  0  0  0  0
   66.9237   74.4170   87.6391 C   0  0  0  0  0  0  0  0  0  0  0  0
   67.0159   72.7760   84.3325 O   0  0  0  0  0  0  0  0  0  0  0  0
   66.7379   71.3992   84.5947 C   0  0  0  0  0  0  0  0  0  0  0  0
   68.0538   70.6184   84.5732 C   0  0  0  0  0  0  0  0  0  0  0  0
   65.7747   70.8566   83.5338 C   0  0  0  0  0  0  0  0  0  0  0  0
   67.0841   77.1743   92.1011 C   0  0  0  0  0  0  0  0  0  0  0  0
   68.3906   76.6501   92.3370 O   0  0  0  0  0  0  0  0  0  0  0  0
   68.7727   75.3067   92.2094 C   0  0  0  0  0  0  0  0  0  0  0  0
   68.6677   74.5760   91.0125 C   0  0  0  0  0  0  0  0  0  0  0  0
   69.0584   73.2339   90.9755 C   0  0  0  0  0  0  0  0  0  0  0  0
   69.5639   72.6001   92.1267 C   0  0  0  0  0  0  0  0  0  0  0  0
   69.9276   71.2562   92.0629 O   0  0  0  0  0  0  0  0  0  0  0  0
   69.6737   73.3269   93.3379 C   0  0  0  0  0  0  0  0  0  0  0  0
   69.2873   74.6773   93.3522 C   0  0  0  0  0  0  0  0  0  0  0  0
   69.8498   70.7876   91.2552 H   0  0  0  0  0  0  0  0  0  0  0  0
   70.1572   72.7137   94.6058 C   0  0  0  0  0  0  0  0  0  0  0  0
   71.2418   72.0720   94.6447 O   0  0  0  0  0  0  0  0  0  0  0  0
   69.4079   72.8414   95.7743 O   0  0  0  0  0  0  0  0  0  0  0  0
   68.5995   73.3150   95.7631 H   0  0  0  0  0  0  0  0  0  0  0  0
  1  2  2  0  0  0  0
  2  3  1  0  0  0  0
  3 29  1  0  0  0  0
  3  4  2  0  0  0  0
  4  5  1  0  0  0  0
  5 18  1  0  0  0  0
  5  6  2  0  0  0  0
  6  1  1  0  0  0  0
  7  8  2  0  0  0  0
  8  9  2  0  0  0  0
  9 10  2  0  0  0  0
 10  1  1  0  0  0  0
 10 11  1  0  0  0  0
 11 12  2  0  0  0  0
 12 13  1  0  0  0  0
 12  7  1  0  0  0  0
 14  7  1  0  0  0  0
 15 16  1  0  0  0  0
 16 17  1  0  0  0  0
 16 14  1  0  0  0  0
 18 19  2  0  0  0  0
 19 20  2  0  0  0  0
 20 21  2  0  0  0  0
 21 25  1  0  0  0  0
 21 22  1  0  0  0  0
 22 23  1  0  0  0  0
 22 24  2  0  0  0  0
 24 18  1  0  0  0  0
 25 26  1  0  0  0  0
 26 27  1  0  0  0  0
 26 28  1  0  0  0  0
 29 30  1  0  0  0  0
 30 31  1  0  0  0  0
 31 32  2  0  0  0  0
 32 33  1  0  0  0  0
 33 34  2  0  0  0  0
 34 35  1  0  0  0  0
 34 36  1  0  0  0  0
 35 38  1  0  0  0  0
 36 39  1  0  0  0  0
 36 37  2  0  0  0  0
 37 31  1  0  0  0  0
 39 40  2  0  0  0  0
 39 41  1  0  0  0  0
 41 42  1  0  0  0  0
M  END
>  <Activity>
4.1

>  <minimizedAffinity>
-8.51522

>  <RFScoreVS_v2>
6.03292189071

$$$$
HIPS6458
 OpenBabel05252300073D

 42 45  0  0  0  0  0  0  0  0999 V2000
   67.4631   76.5994   88.9031 C   0  0  0  0  0  0  0  0  0  0  0  0
   67.1942   76.0179   87.6487 C   0  0  0  0  0  0  0  0  0  0  0  0
   67.0480   76.8159   86.5034 C   0  0  0  0  0  0  0  0  0  0  0  0
   67.1762   78.2077   86.6104 C   0  0  0  0  0  0  0  0  0  0  0  0
   67.4744   78.8131   87.8495 C   0  0  0  0  0  0  0  0  0  0  0  0
   67.6044   77.9965   88.9895 C   0  0  0  0  0  0  0  0  0  0  0  0
   67.9148   74.1731   92.4040 C   0  0  0  0  0  0  0  0  0  0  0  0
   67.3812   75.4256   92.4752 N   0  0  0  0  0  0  0  0  0  0  0  0
   67.2268   76.2086   91.3787 C   0  0  0  0  0  0  0  0  0  0  0  0
   67.6228   75.7452   90.1093 C   0  0  0  0  0  0  0  0  0  0  0  0
   68.1752   74.4562   90.0178 C   0  0  0  0  0  0  0  0  0  0  0  0
   68.3221   73.6670   91.1622 C   0  0  0  0  0  0  0  0  0  0  0  0
   69.0112   72.0538   91.0311 Cl  0  0  0  0  0  0  0  0  0  0  0  0
   68.0734   73.3958   93.5587 O   0  0  0  0  0  0  0  0  0  0  0  0
   69.6656   73.2108   95.3531 C   0  0  0  0  0  0  0  0  0  0  0  0
   68.4126   73.9225   94.8445 C   0  0  0  0  0  0  0  0  0  0  0  0
   67.2437   73.7334   95.8208 C   0  0  0  0  0  0  0  0  0  0  0  0
   67.7036   80.2822   87.9464 C   0  0  0  0  0  0  0  0  0  0  0  0
   67.3102   81.1506   86.9085 C   0  0  0  0  0  0  0  0  0  0  0  0
   67.5828   82.4752   86.9835 N   0  0  0  0  0  0  0  0  0  0  0  0
   68.2356   83.0276   88.0433 C   0  0  0  0  0  0  0  0  0  0  0  0
   68.6402   82.2081   89.1053 C   0  0  0  0  0  0  0  0  0  0  0  0
   69.4869   82.8826   90.4903 Cl  0  0  0  0  0  0  0  0  0  0  0  0
   68.3680   80.8392   89.0565 C   0  0  0  0  0  0  0  0  0  0  0  0
   68.5259   84.3950   88.0736 O   0  0  0  0  0  0  0  0  0  0  0  0
   69.3334   85.0646   87.1034 C   0  0  0  0  0  0  0  0  0  0  0  0
   70.5968   84.2367   86.8584 C   0  0  0  0  0  0  0  0  0  0  0  0
   69.6986   86.4628   87.6131 C   0  0  0  0  0  0  0  0  0  0  0  0
   66.9775   76.1760   85.1422 C   0  0  0  0  0  0  0  0  0  0  0  0
   67.7029   74.9491   85.2194 O   0  0  0  0  0  0  0  0  0  0  0  0
   67.3058   73.7231   84.6661 C   0  0  0  0  0  0  0  0  0  0  0  0
   66.6812   73.5988   83.4123 C   0  0  0  0  0  0  0  0  0  0  0  0
   66.3036   72.3377   82.9406 C   0  0  0  0  0  0  0  0  0  0  0  0
   66.5460   71.1814   83.7065 C   0  0  0  0  0  0  0  0  0  0  0  0
   66.1413   69.9406   83.2175 O   0  0  0  0  0  0  0  0  0  0  0  0
   67.1744   71.2953   84.9712 C   0  0  0  0  0  0  0  0  0  0  0  0
   67.5570   72.5692   85.4225 C   0  0  0  0  0  0  0  0  0  0  0  0
   65.7268   69.8799   82.3793 H   0  0  0  0  0  0  0  0  0  0  0  0
   67.4240   70.1242   85.8565 C   0  0  0  0  0  0  0  0  0  0  0  0
   68.2186   70.2052   86.8320 O   0  0  0  0  0  0  0  0  0  0  0  0
   66.7776   68.9135   85.6131 O   0  0  0  0  0  0  0  0  0  0  0  0
   66.1839   68.8360   84.8923 H   0  0  0  0  0  0  0  0  0  0  0  0
  1  2  2  0  0  0  0
  2  3  1  0  0  0  0
  3 29  1  0  0  0  0
  3  4  2  0  0  0  0
  4  5  1  0  0  0  0
  5 18  1  0  0  0  0
  5  6  2  0  0  0  0
  6  1  1  0  0  0  0
  7  8  2  0  0  0  0
  8  9  2  0  0  0  0
  9 10  2  0  0  0  0
 10  1  1  0  0  0  0
 10 11  1  0  0  0  0
 11 12  2  0  0  0  0
 12 13  1  0  0  0  0
 12  7  1  0  0  0  0
 14  7  1  0  0  0  0
 15 16  1  0  0  0  0
 16 17  1  0  0  0  0
 16 14  1  0  0  0  0
 18 19  2  0  0  0  0
 19 20  2  0  0  0  0
 20 21  2  0  0  0  0
 21 25  1  0  0  0  0
 21 22  1  0  0  0  0
 22 23  1  0  0  0  0
 22 24  2  0  0  0  0
 24 18  1  0  0  0  0
 25 26  1  0  0  0  0
 26 27  1  0  0  0  0
 26 28  1  0  0  0  0
 29 30  1  0  0  0  0
 30 31  1  0  0  0  0
 31 32  2  0  0  0  0
 32 33  1  0  0  0  0
 33 34  2  0  0  0  0
 34 35  1  0  0  0  0
 34 36  1  0  0  0  0
 35 38  1  0  0  0  0
 36 39  1  0  0  0  0
 36 37  2  0  0  0  0
 37 31  1  0  0  0  0
 39 40  2  0  0  0  0
 39 41  1  0  0  0  0
 41 42  1  0  0  0  0
M  END
>  <Activity>
4.1

>  <minimizedAffinity>
-8.29784

>  <RFScoreVS_v2>
6.08290976672

$$$$
HIPS7116
 OpenBabel05252300073D

 36 39  0  0  0  0  0  0  0  0999 V2000
   69.4005   77.0208   91.1472 C   0  0  0  0  0  0  0  0  0  0  0  0
   70.2980   77.7286   90.4421 N   0  0  0  0  0  0  0  0  0  0  0  0
   70.1060   78.9835   90.0365 C   0  0  0  0  0  0  0  0  0  0  0  0
   68.9022   79.5940   90.3652 C   0  0  0  0  0  0  0  0  0  0  0  0
   67.9639   78.8802   91.0920 C   0  0  0  0  0  0  0  0  0  0  0  0
   68.2474   77.6083   91.4609 N   0  0  0  0  0  0  0  0  0  0  0  0
   69.8177   73.0366   94.0540 C   0  0  0  0  0  0  0  0  0  0  0  0
   70.4820   73.3844   95.0628 O   0  0  0  0  0  0  0  0  0  0  0  0
   69.3824   73.9623   93.0695 N   0  0  0  0  0  0  0  0  0  0  0  0
   69.5869   75.3920   93.0122 C   0  0  0  0  0  0  0  0  0  0  0  0
   69.7316   75.6330   91.5380 C   0  0  1  0  0  0  0  0  0  0  0  0
   68.8071   74.6422   90.9527 C   0  0  0  0  0  0  0  0  0  0  0  0
   68.1586   74.5460   89.7315 C   0  0  0  0  0  0  0  0  0  0  0  0
   67.3478   73.4615   89.4991 C   0  0  0  0  0  0  0  0  0  0  0  0
   67.1580   72.4692   90.4360 C   0  0  0  0  0  0  0  0  0  0  0  0
   67.8033   72.5676   91.6473 C   0  0  0  0  0  0  0  0  0  0  0  0
   68.6255   73.6580   91.8956 C   0  0  0  0  0  0  0  0  0  0  0  0
   69.5314   71.6723   93.9597 O   0  0  0  0  0  0  0  0  0  0  0  0
   71.0372   69.9806   94.8256 C   0  0  0  0  0  0  0  0  0  0  0  0
   70.4865   70.7095   93.6200 C   0  0  0  0  0  0  0  0  0  0  0  0
   71.6354   71.2283   92.8210 C   0  0  0  0  0  0  0  0  0  0  0  0
   69.7699   69.6549   92.7761 C   0  0  0  0  0  0  0  0  0  0  0  0
   68.6362   80.9990   89.9332 C   0  0  0  0  0  0  0  0  0  0  0  0
   69.6148   81.8018   90.5270 O   0  0  0  0  0  0  0  0  0  0  0  0
   70.4242   82.6853   89.8388 C   0  0  0  0  0  0  0  0  0  0  0  0
   71.7865   82.7094   90.0029 C   0  0  0  0  0  0  0  0  0  0  0  0
   72.5398   83.6304   89.2731 C   0  0  0  0  0  0  0  0  0  0  0  0
   71.9701   84.5207   88.3903 C   0  0  0  0  0  0  0  0  0  0  0  0
   72.7227   85.4402   87.6617 O   0  0  0  0  0  0  0  0  0  0  0  0
   70.5911   84.4759   88.2425 C   0  0  0  0  0  0  0  0  0  0  0  0
   69.8502   83.5690   88.9614 C   0  0  0  0  0  0  0  0  0  0  0  0
   73.6538   85.4687   87.7631 H   0  0  0  0  0  0  0  0  0  0  0  0
   69.9602   85.4026   87.3175 C   0  0  0  0  0  0  0  0  0  0  0  0
   69.2283   86.3378   87.7556 O   0  0  0  0  0  0  0  0  0  0  0  0
   70.1127   85.3261   85.9495 O   0  0  0  0  0  0  0  0  0  0  0  0
   70.6444   84.6519   85.5744 H   0  0  0  0  0  0  0  0  0  0  0  0
  1  2  2  0  0  0  0
  2  3  2  0  0  0  0
  3  4  2  0  0  0  0
  4 23  1  0  0  0  0
  4  5  1  0  0  0  0
  5  6  2  0  0  0  0
  6  1  2  0  0  0  0
  7  8  2  0  0  0  0
  7  9  1  0  0  0  0
  9 10  1  0  0  0  0
 10 11  1  0  0  0  0
 11  1  1  1  0  0  0
 11 12  1  0  0  0  0
 12 13  2  0  0  0  0
 13 14  1  0  0  0  0
 14 15  2  0  0  0  0
 15 16  1  0  0  0  0
 16 17  2  0  0  0  0
 17  9  1  0  0  0  0
 17 12  1  0  0  0  0
 18  7  1  0  0  0  0
 19 20  1  0  0  0  0
 20 21  1  0  0  0  0
 20 22  1  0  0  0  0
 20 18  1  0  0  0  0
 23 24  1  0  0  0  0
 24 25  1  0  0  0  0
 25 26  2  0  0  0  0
 26 27  1  0  0  0  0
 27 28  2  0  0  0  0
 28 29  1  0  0  0  0
 28 30  1  0  0  0  0
 29 32  1  0  0  0  0
 30 33  1  0  0  0  0
 30 31  2  0  0  0  0
 31 25  1  0  0  0  0
 33 34  2  0  0  0  0
 33 35  1  0  0  0  0
 35 36  1  0  0  0  0
M  END
>  <Activity>
8.1

>  <minimizedAffinity>
-8.99122

>  <RFScoreVS_v2>
5.95540411998

$$$$
HIPS7116
 OpenBabel05252300073D

 36 39  0  0  0  0  0  0  0  0999 V2000
   69.2949   77.0650   91.1762 C   0  0  0  0  0  0  0  0  0  0  0  0
   68.1482   77.5869   91.6413 N   0  0  0  0  0  0  0  0  0  0  0  0
   67.7279   78.8228   91.3725 C   0  0  0  0  0  0  0  0  0  0  0  0
   68.5277   79.6173   90.5607 C   0  0  0  0  0  0  0  0  0  0  0  0
   69.7142   79.0967   90.0713 C   0  0  0  0  0  0  0  0  0  0  0  0
   70.0598   77.8287   90.3984 N   0  0  0  0  0  0  0  0  0  0  0  0
   69.7749   73.0444   94.0226 C   0  0  0  0  0  0  0  0  0  0  0  0
   70.4245   73.3899   95.0418 O   0  0  0  0  0  0  0  0  0  0  0  0
   69.3273   73.9765   93.0497 N   0  0  0  0  0  0  0  0  0  0  0  0
   69.5021   75.4109   93.0166 C   0  0  0  0  0  0  0  0  0  0  0  0
   69.6522   75.6783   91.5475 C   0  0  1  0  0  0  0  0  0  0  0  0
   68.7530   74.6779   90.9396 C   0  0  0  0  0  0  0  0  0  0  0  0
   68.1154   74.5877   89.7122 C   0  0  0  0  0  0  0  0  0  0  0  0
   67.3293   73.4903   89.4566 C   0  0  0  0  0  0  0  0  0  0  0  0
   67.1537   72.4794   90.3763 C   0  0  0  0  0  0  0  0  0  0  0  0
   67.7881   72.5720   91.5938 C   0  0  0  0  0  0  0  0  0  0  0  0
   68.5854   73.6752   91.8654 C   0  0  0  0  0  0  0  0  0  0  0  0
   69.5180   71.6761   93.9046 O   0  0  0  0  0  0  0  0  0  0  0  0
   71.0387   70.0154   94.8040 C   0  0  0  0  0  0  0  0  0  0  0  0
   70.5021   70.7353   93.5866 C   0  0  0  0  0  0  0  0  0  0  0  0
   71.6587   71.2811   92.8172 C   0  0  0  0  0  0  0  0  0  0  0  0
   69.8296   69.6675   92.7231 C   0  0  0  0  0  0  0  0  0  0  0  0
   68.1033   81.0109   90.2303 C   0  0  0  0  0  0  0  0  0  0  0  0
   68.1940   81.1477   88.8418 O   0  0  0  0  0  0  0  0  0  0  0  0
   68.4876   82.3305   88.1906 C   0  0  0  0  0  0  0  0  0  0  0  0
   67.6006   82.9344   87.3351 C   0  0  0  0  0  0  0  0  0  0  0  0
   67.9669   84.1288   86.7128 C   0  0  0  0  0  0  0  0  0  0  0  0
   69.1880   84.7301   86.9225 C   0  0  0  0  0  0  0  0  0  0  0  0
   69.5535   85.9229   86.3009 O   0  0  0  0  0  0  0  0  0  0  0  0
   70.0667   84.0996   87.7920 C   0  0  0  0  0  0  0  0  0  0  0  0
   69.7053   82.9236   88.4041 C   0  0  0  0  0  0  0  0  0  0  0  0
   68.9585   86.3469   85.7142 H   0  0  0  0  0  0  0  0  0  0  0  0
   71.3633   84.7100   88.0345 C   0  0  0  0  0  0  0  0  0  0  0  0
   71.4351   85.8901   88.4863 O   0  0  0  0  0  0  0  0  0  0  0  0
   72.5584   84.0653   87.7963 O   0  0  0  0  0  0  0  0  0  0  0  0
   72.5600   83.1901   87.4616 H   0  0  0  0  0  0  0  0  0  0  0  0
  1  2  2  0  0  0  0
  2  3  2  0  0  0  0
  3  4  2  0  0  0  0
  4 23  1  0  0  0  0
  4  5  1  0  0  0  0
  5  6  2  0  0  0  0
  6  1  2  0  0  0  0
  7  8  2  0  0  0  0
  7  9  1  0  0  0  0
  9 10  1  0  0  0  0
 10 11  1  0  0  0  0
 11  1  1  1  0  0  0
 11 12  1  0  0  0  0
 12 13  2  0  0  0  0
 13 14  1  0  0  0  0
 14 15  2  0  0  0  0
 15 16  1  0  0  0  0
 16 17  2  0  0  0  0
 17  9  1  0  0  0  0
 17 12  1  0  0  0  0
 18  7  1  0  0  0  0
 19 20  1  0  0  0  0
 20 21  1  0  0  0  0
 20 22  1  0  0  0  0
 20 18  1  0  0  0  0
 23 24  1  0  0  0  0
 24 25  1  0  0  0  0
 25 26  2  0  0  0  0
 26 27  1  0  0  0  0
 27 28  2  0  0  0  0
 28 29  1  0  0  0  0
 28 30  1  0  0  0  0
 29 32  1  0  0  0  0
 30 33  1  0  0  0  0
 30 31  2  0  0  0  0
 31 25  1  0  0  0  0
 33 34  2  0  0  0  0
 33 35  1  0  0  0  0
 35 36  1  0  0  0  0
M  END
>  <Activity>
8.1

>  <minimizedAffinity>
-8.81251

>  <RFScoreVS_v2>
5.95638091824

$$$$
HIPS7116
 OpenBabel05252300073D

 36 39  0  0  0  0  0  0  0  0999 V2000
   67.9975   76.6042   91.8210 C   0  0  0  0  0  0  0  0  0  0  0  0
   68.8851   77.1455   90.9708 N   0  0  0  0  0  0  0  0  0  0  0  0
   68.8368   78.4077   90.5458 C   0  0  0  0  0  0  0  0  0  0  0  0
   67.8035   79.2101   91.0131 C   0  0  0  0  0  0  0  0  0  0  0  0
   66.8782   78.6698   91.8906 C   0  0  0  0  0  0  0  0  0  0  0  0
   67.0079   77.3754   92.2673 N   0  0  0  0  0  0  0  0  0  0  0  0
   70.2940   72.4684   93.2769 C   0  0  0  0  0  0  0  0  0  0  0  0
   71.2169   72.2495   92.4520 O   0  0  0  0  0  0  0  0  0  0  0  0
   69.5124   73.6534   93.2521 N   0  0  0  0  0  0  0  0  0  0  0  0
   69.5965   74.7795   92.3500 C   0  0  0  0  0  0  0  0  0  0  0  0
   68.1585   75.1881   92.2176 C   0  0  1  0  0  0  0  0  0  0  0  0
   67.6146   74.9092   93.5611 C   0  0  0  0  0  0  0  0  0  0  0  0
   66.5117   75.3739   94.2603 C   0  0  0  0  0  0  0  0  0  0  0  0
   66.2836   74.8935   95.5271 C   0  0  0  0  0  0  0  0  0  0  0  0
   67.1116   73.9683   96.1244 C   0  0  0  0  0  0  0  0  0  0  0  0
   68.2056   73.5089   95.4277 C   0  0  0  0  0  0  0  0  0  0  0  0
   68.4481   73.9857   94.1468 C   0  0  0  0  0  0  0  0  0  0  0  0
   70.0826   71.4665   94.2274 O   0  0  0  0  0  0  0  0  0  0  0  0
   72.3808   70.6956   94.1731 C   0  0  0  0  0  0  0  0  0  0  0  0
   70.9201   70.3562   94.3711 C   0  0  0  0  0  0  0  0  0  0  0  0
   70.5824   69.2038   93.4849 C   0  0  0  0  0  0  0  0  0  0  0  0
   70.7853   69.8859   95.8198 C   0  0  0  0  0  0  0  0  0  0  0  0
   67.7028   80.6319   90.5661 C   0  0  0  0  0  0  0  0  0  0  0  0
   69.0087   81.0975   90.3859 O   0  0  0  0  0  0  0  0  0  0  0  0
   69.3960   81.9720   89.3887 C   0  0  0  0  0  0  0  0  0  0  0  0
   68.6138   82.2202   88.2887 C   0  0  0  0  0  0  0  0  0  0  0  0
   69.0709   83.1167   87.3215 C   0  0  0  0  0  0  0  0  0  0  0  0
   70.2807   83.7665   87.4254 C   0  0  0  0  0  0  0  0  0  0  0  0
   70.7368   84.6617   86.4594 O   0  0  0  0  0  0  0  0  0  0  0  0
   71.0526   83.4983   88.5470 C   0  0  0  0  0  0  0  0  0  0  0  0
   70.6018   82.6155   89.4986 C   0  0  0  0  0  0  0  0  0  0  0  0
   70.2139   84.8412   85.7029 H   0  0  0  0  0  0  0  0  0  0  0  0
   72.3345   84.1692   88.6857 C   0  0  0  0  0  0  0  0  0  0  0  0
   73.3294   83.5461   89.1589 O   0  0  0  0  0  0  0  0  0  0  0  0
   72.5429   85.4829   88.3233 O   0  0  0  0  0  0  0  0  0  0  0  0
   71.8385   85.9882   87.9677 H   0  0  0  0  0  0  0  0  0  0  0  0
  1  2  2  0  0  0  0
  2  3  2  0  0  0  0
  3  4  2  0  0  0  0
  4 23  1  0  0  0  0
  4  5  1  0  0  0  0
  5  6  2  0  0  0  0
  6  1  2  0  0  0  0
  7  8  2  0  0  0  0
  7  9  1  0  0  0  0
  9 10  1  0  0  0  0
 10 11  1  0  0  0  0
 11  1  1  1  0  0  0
 11 12  1  0  0  0  0
 12 13  2  0  0  0  0
 13 14  1  0  0  0  0
 14 15  2  0  0  0  0
 15 16  1  0  0  0  0
 16 17  2  0  0  0  0
 17  9  1  0  0  0  0
 17 12  1  0  0  0  0
 18  7  1  0  0  0  0
 19 20  1  0  0  0  0
 20 21  1  0  0  0  0
 20 22  1  0  0  0  0
 20 18  1  0  0  0  0
 23 24  1  0  0  0  0
 24 25  1  0  0  0  0
 25 26  2  0  0  0  0
 26 27  1  0  0  0  0
 27 28  2  0  0  0  0
 28 29  1  0  0  0  0
 28 30  1  0  0  0  0
 29 32  1  0  0  0  0
 30 33  1  0  0  0  0
 30 31  2  0  0  0  0
 31 25  1  0  0  0  0
 33 34  2  0  0  0  0
 33 35  1  0  0  0  0
 35 36  1  0  0  0  0
M  END
>  <Activity>
8.1

>  <minimizedAffinity>
-8.58139

>  <RFScoreVS_v2>
5.95983929585

$$$$
HIPS7116
 OpenBabel05252300073D

 36 39  0  0  0  0  0  0  0  0999 V2000
   67.8060   79.8287   88.7369 C   0  0  0  0  0  0  0  0  0  0  0  0
   68.0091   78.9230   87.7663 N   0  0  0  0  0  0  0  0  0  0  0  0
   67.5708   77.6653   87.8159 C   0  0  0  0  0  0  0  0  0  0  0  0
   66.8604   77.2704   88.9426 C   0  0  0  0  0  0  0  0  0  0  0  0
   66.6407   78.1904   89.9543 C   0  0  0  0  0  0  0  0  0  0  0  0
   67.1248   79.4476   89.8157 N   0  0  0  0  0  0  0  0  0  0  0  0
   68.0198   84.7631   89.0593 C   0  0  0  0  0  0  0  0  0  0  0  0
   66.9622   85.2119   88.5492 O   0  0  0  0  0  0  0  0  0  0  0  0
   68.2392   83.3758   89.2666 N   0  0  0  0  0  0  0  0  0  0  0  0
   67.3684   82.2624   88.9645 C   0  0  0  0  0  0  0  0  0  0  0  0
   68.3450   81.1955   88.5641 C   0  0  1  0  0  0  0  0  0  0  0  0
   69.5013   81.4651   89.4410 C   0  0  0  0  0  0  0  0  0  0  0  0
   70.5639   80.6935   89.8846 C   0  0  0  0  0  0  0  0  0  0  0  0
   71.4959   81.2692   90.7138 C   0  0  0  0  0  0  0  0  0  0  0  0
   71.4105   82.5836   91.1182 C   0  0  0  0  0  0  0  0  0  0  0  0
   70.3544   83.3469   90.6760 C   0  0  0  0  0  0  0  0  0  0  0  0
   69.4054   82.7781   89.8379 C   0  0  0  0  0  0  0  0  0  0  0  0
   68.9740   85.7205   89.4129 O   0  0  0  0  0  0  0  0  0  0  0  0
   69.4580   86.0537   87.0605 C   0  0  0  0  0  0  0  0  0  0  0  0
   69.8646   86.2904   88.4981 C   0  0  0  0  0  0  0  0  0  0  0  0
   71.2841   85.8590   88.6608 C   0  0  0  0  0  0  0  0  0  0  0  0
   69.8094   87.8034   88.7120 C   0  0  0  0  0  0  0  0  0  0  0  0
   66.3485   75.8711   89.0489 C   0  0  0  0  0  0  0  0  0  0  0  0
   67.4560   75.0225   88.9587 O   0  0  0  0  0  0  0  0  0  0  0  0
   68.1758   74.5590   90.0433 C   0  0  0  0  0  0  0  0  0  0  0  0
   68.2355   73.2265   90.3663 C   0  0  0  0  0  0  0  0  0  0  0  0
   68.9832   72.8322   91.4771 C   0  0  0  0  0  0  0  0  0  0  0  0
   69.6675   73.7293   92.2667 C   0  0  0  0  0  0  0  0  0  0  0  0
   70.4141   73.3352   93.3757 O   0  0  0  0  0  0  0  0  0  0  0  0
   69.5912   75.0705   91.9187 C   0  0  0  0  0  0  0  0  0  0  0  0
   68.8548   75.4577   90.8251 C   0  0  0  0  0  0  0  0  0  0  0  0
   70.4642   72.4291   93.6088 H   0  0  0  0  0  0  0  0  0  0  0  0
   70.3033   76.0418   92.7324 C   0  0  0  0  0  0  0  0  0  0  0  0
   69.9375   76.2622   93.9238 O   0  0  0  0  0  0  0  0  0  0  0  0
   71.3864   76.7616   92.2749 O   0  0  0  0  0  0  0  0  0  0  0  0
   71.6970   76.6356   91.3999 H   0  0  0  0  0  0  0  0  0  0  0  0
  1  2  2  0  0  0  0
  2  3  2  0  0  0  0
  3  4  2  0  0  0  0
  4 23  1  0  0  0  0
  4  5  1  0  0  0  0
  5  6  2  0  0  0  0
  6  1  2  0  0  0  0
  7  8  2  0  0  0  0
  7  9  1  0  0  0  0
  9 10  1  0  0  0  0
 10 11  1  0  0  0  0
 11  1  1  1  0  0  0
 11 12  1  0  0  0  0
 12 13  2  0  0  0  0
 13 14  1  0  0  0  0
 14 15  2  0  0  0  0
 15 16  1  0  0  0  0
 16 17  2  0  0  0  0
 17  9  1  0  0  0  0
 17 12  1  0  0  0  0
 18  7  1  0  0  0  0
 19 20  1  0  0  0  0
 20 21  1  0  0  0  0
 20 22  1  0  0  0  0
 20 18  1  0  0  0  0
 23 24  1  0  0  0  0
 24 25  1  0  0  0  0
 25 26  2  0  0  0  0
 26 27  1  0  0  0  0
 27 28  2  0  0  0  0
 28 29  1  0  0  0  0
 28 30  1  0  0  0  0
 29 32  1  0  0  0  0
 30 33  1  0  0  0  0
 30 31  2  0  0  0  0
 31 25  1  0  0  0  0
 33 34  2  0  0  0  0
 33 35  1  0  0  0  0
 35 36  1  0  0  0  0
M  END
>  <Activity>
8.1

>  <minimizedAffinity>
-8.26449

>  <RFScoreVS_v2>
5.99227233486

$$$$
HIPS7116
 OpenBabel05252300073D

 36 39  0  0  0  0  0  0  0  0999 V2000
   67.0541   78.7439   91.5677 C   0  0  0  0  0  0  0  0  0  0  0  0
   67.0864   77.4429   91.2359 N   0  0  0  0  0  0  0  0  0  0  0  0
   66.7106   76.4561   92.0491 C   0  0  0  0  0  0  0  0  0  0  0  0
   66.2581   76.7980   93.3173 C   0  0  0  0  0  0  0  0  0  0  0  0
   66.2175   78.1347   93.6779 C   0  0  0  0  0  0  0  0  0  0  0  0
   66.6200   79.0689   92.7838 N   0  0  0  0  0  0  0  0  0  0  0  0
   68.0242   83.2037   89.6528 C   0  0  0  0  0  0  0  0  0  0  0  0
   66.9615   83.8719   89.7181 O   0  0  0  0  0  0  0  0  0  0  0  0
   68.1557   81.9181   90.2406 N   0  0  0  0  0  0  0  0  0  0  0  0
   67.1799   81.1544   90.9848 C   0  0  0  0  0  0  0  0  0  0  0  0
   67.4997   79.7464   90.5753 C   0  0  1  0  0  0  0  0  0  0  0  0
   68.9671   79.7770   90.4184 C   0  0  0  0  0  0  0  0  0  0  0  0
   69.9500   78.7998   90.4352 C   0  0  0  0  0  0  0  0  0  0  0  0
   71.2579   79.1768   90.2486 C   0  0  0  0  0  0  0  0  0  0  0  0
   71.6247   80.4893   90.0459 C   0  0  0  0  0  0  0  0  0  0  0  0
   70.6466   81.4570   90.0297 C   0  0  0  0  0  0  0  0  0  0  0  0
   69.3210   81.0904   90.2170 C   0  0  0  0  0  0  0  0  0  0  0  0
   69.0768   83.8082   88.9608 O   0  0  0  0  0  0  0  0  0  0  0  0
   68.3234   82.7220   86.9281 C   0  0  0  0  0  0  0  0  0  0  0  0
   69.1969   83.7782   87.5682 C   0  0  0  0  0  0  0  0  0  0  0  0
   70.5917   83.5990   87.0681 C   0  0  0  0  0  0  0  0  0  0  0  0
   68.6854   85.1234   87.0516 C   0  0  0  0  0  0  0  0  0  0  0  0
   65.8266   75.7299   94.2683 C   0  0  0  0  0  0  0  0  0  0  0  0
   66.2242   74.5076   93.7182 O   0  0  0  0  0  0  0  0  0  0  0  0
   67.4761   73.9465   93.8835 C   0  0  0  0  0  0  0  0  0  0  0  0
   68.3443   74.3690   94.8587 C   0  0  0  0  0  0  0  0  0  0  0  0
   69.5930   73.7546   94.9656 C   0  0  0  0  0  0  0  0  0  0  0  0
   69.9925   72.7363   94.1289 C   0  0  0  0  0  0  0  0  0  0  0  0
   71.2395   72.1229   94.2360 O   0  0  0  0  0  0  0  0  0  0  0  0
   69.0963   72.3274   93.1515 C   0  0  0  0  0  0  0  0  0  0  0  0
   67.8673   72.9330   93.0469 C   0  0  0  0  0  0  0  0  0  0  0  0
   71.8430   72.4006   94.8968 H   0  0  0  0  0  0  0  0  0  0  0  0
   69.4885   71.2542   92.2533 C   0  0  0  0  0  0  0  0  0  0  0  0
   69.8723   70.1426   92.7214 O   0  0  0  0  0  0  0  0  0  0  0  0
   69.4687   71.3730   90.8799 O   0  0  0  0  0  0  0  0  0  0  0  0
   69.1925   72.1756   90.4831 H   0  0  0  0  0  0  0  0  0  0  0  0
  1  2  2  0  0  0  0
  2  3  2  0  0  0  0
  3  4  2  0  0  0  0
  4 23  1  0  0  0  0
  4  5  1  0  0  0  0
  5  6  2  0  0  0  0
  6  1  2  0  0  0  0
  7  8  2  0  0  0  0
  7  9  1  0  0  0  0
  9 10  1  0  0  0  0
 10 11  1  0  0  0  0
 11  1  1  1  0  0  0
 11 12  1  0  0  0  0
 12 13  2  0  0  0  0
 13 14  1  0  0  0  0
 14 15  2  0  0  0  0
 15 16  1  0  0  0  0
 16 17  2  0  0  0  0
 17  9  1  0  0  0  0
 17 12  1  0  0  0  0
 18  7  1  0  0  0  0
 19 20  1  0  0  0  0
 20 21  1  0  0  0  0
 20 22  1  0  0  0  0
 20 18  1  0  0  0  0
 23 24  1  0  0  0  0
 24 25  1  0  0  0  0
 25 26  2  0  0  0  0
 26 27  1  0  0  0  0
 27 28  2  0  0  0  0
 28 29  1  0  0  0  0
 28 30  1  0  0  0  0
 29 32  1  0  0  0  0
 30 33  1  0  0  0  0
 30 31  2  0  0  0  0
 31 25  1  0  0  0  0
 33 34  2  0  0  0  0
 33 35  1  0  0  0  0
 35 36  1  0  0  0  0
M  END
>  <Activity>
8.1

>  <minimizedAffinity>
-8.24177

>  <RFScoreVS_v2>
5.95572571255

$$$$
HIPS7116
 OpenBabel05252300073D

 36 39  0  0  0  0  0  0  0  0999 V2000
   67.9841   80.0544   89.2329 C   0  0  0  0  0  0  0  0  0  0  0  0
   67.6281   80.2066   87.9469 N   0  0  0  0  0  0  0  0  0  0  0  0
   67.3597   81.3832   87.3814 C   0  0  0  0  0  0  0  0  0  0  0  0
   67.4552   82.5202   88.1739 C   0  0  0  0  0  0  0  0  0  0  0  0
   67.8210   82.3835   89.5027 C   0  0  0  0  0  0  0  0  0  0  0  0
   68.0748   81.1458   89.9904 N   0  0  0  0  0  0  0  0  0  0  0  0
   67.4672   76.0040   92.0303 C   0  0  0  0  0  0  0  0  0  0  0  0
   67.5427   76.3725   93.2297 O   0  0  0  0  0  0  0  0  0  0  0  0
   67.4333   76.9237   90.9492 N   0  0  0  0  0  0  0  0  0  0  0  0
   67.4730   78.3682   90.9827 C   0  0  0  0  0  0  0  0  0  0  0  0
   68.2553   78.6928   89.7438 C   0  0  1  0  0  0  0  0  0  0  0  0
   67.8299   77.6380   88.8029 C   0  0  0  0  0  0  0  0  0  0  0  0
   67.8374   77.5311   87.4210 C   0  0  0  0  0  0  0  0  0  0  0  0
   67.3592   76.3786   86.8461 C   0  0  0  0  0  0  0  0  0  0  0  0
   66.8737   75.3284   87.5944 C   0  0  0  0  0  0  0  0  0  0  0  0
   66.8677   75.4376   88.9661 C   0  0  0  0  0  0  0  0  0  0  0  0
   67.3479   76.5964   89.5603 C   0  0  0  0  0  0  0  0  0  0  0  0
   67.4182   74.6230   91.8241 O   0  0  0  0  0  0  0  0  0  0  0  0
   68.6440   72.9261   93.0476 C   0  0  0  0  0  0  0  0  0  0  0  0
   68.5534   73.8069   91.8212 C   0  0  0  0  0  0  0  0  0  0  0  0
   69.8455   74.5394   91.6739 C   0  0  0  0  0  0  0  0  0  0  0  0
   68.4146   72.8613   90.6277 C   0  0  0  0  0  0  0  0  0  0  0  0
   67.1631   83.8634   87.5893 C   0  0  0  0  0  0  0  0  0  0  0  0
   68.2314   84.1836   86.7461 O   0  0  0  0  0  0  0  0  0  0  0  0
   69.3956   84.8021   87.1601 C   0  0  0  0  0  0  0  0  0  0  0  0
   70.6359   84.2738   86.9035 C   0  0  0  0  0  0  0  0  0  0  0  0
   71.7680   84.9554   87.3530 C   0  0  0  0  0  0  0  0  0  0  0  0
   71.6921   86.1425   88.0469 C   0  0  0  0  0  0  0  0  0  0  0  0
   72.8228   86.8228   88.4956 O   0  0  0  0  0  0  0  0  0  0  0  0
   70.4265   86.6555   88.2934 C   0  0  0  0  0  0  0  0  0  0  0  0
   69.3125   85.9838   87.8506 C   0  0  0  0  0  0  0  0  0  0  0  0
   73.6764   86.4745   88.3281 H   0  0  0  0  0  0  0  0  0  0  0  0
   70.3134   87.9075   89.0230 C   0  0  0  0  0  0  0  0  0  0  0  0
   70.9208   88.9391   88.6122 O   0  0  0  0  0  0  0  0  0  0  0  0
   69.5628   88.0479   90.1708 O   0  0  0  0  0  0  0  0  0  0  0  0
   69.0937   87.3141   90.5166 H   0  0  0  0  0  0  0  0  0  0  0  0
  1  2  2  0  0  0  0
  2  3  2  0  0  0  0
  3  4  2  0  0  0  0
  4 23  1  0  0  0  0
  4  5  1  0  0  0  0
  5  6  2  0  0  0  0
  6  1  2  0  0  0  0
  7  8  2  0  0  0  0
  7  9  1  0  0  0  0
  9 10  1  0  0  0  0
 10 11  1  0  0  0  0
 11  1  1  6  0  0  0
 11 12  1  0  0  0  0
 12 13  2  0  0  0  0
 13 14  1  0  0  0  0
 14 15  2  0  0  0  0
 15 16  1  0  0  0  0
 16 17  2  0  0  0  0
 17  9  1  0  0  0  0
 17 12  1  0  0  0  0
 18  7  1  0  0  0  0
 19 20  1  0  0  0  0
 20 21  1  0  0  0  0
 20 22  1  0  0  0  0
 20 18  1  0  0  0  0
 23 24  1  0  0  0  0
 24 25  1  0  0  0  0
 25 26  2  0  0  0  0
 26 27  1  0  0  0  0
 27 28  2  0  0  0  0
 28 29  1  0  0  0  0
 28 30  1  0  0  0  0
 29 32  1  0  0  0  0
 30 33  1  0  0  0  0
 30 31  2  0  0  0  0
 31 25  1  0  0  0  0
 33 34  2  0  0  0  0
 33 35  1  0  0  0  0
 35 36  1  0  0  0  0
M  END
>  <Activity>
8.1

>  <minimizedAffinity>
-8.14919

>  <RFScoreVS_v2>
5.98122835204

$$$$
HIPS7116
 OpenBabel05252300073D

 36 39  0  0  0  0  0  0  0  0999 V2000
   68.2098   79.0406   90.2194 C   0  0  0  0  0  0  0  0  0  0  0  0
   68.3380   78.3190   89.0939 N   0  0  0  0  0  0  0  0  0  0  0  0
   68.1058   77.0089   89.0173 C   0  0  0  0  0  0  0  0  0  0  0  0
   67.7066   76.3525   90.1747 C   0  0  0  0  0  0  0  0  0  0  0  0
   67.5688   77.0797   91.3454 C   0  0  0  0  0  0  0  0  0  0  0  0
   67.8271   78.4090   91.3274 N   0  0  0  0  0  0  0  0  0  0  0  0
   70.8568   83.1894   89.6913 C   0  0  0  0  0  0  0  0  0  0  0  0
   71.8279   83.1105   90.4855 O   0  0  0  0  0  0  0  0  0  0  0  0
   69.9605   82.1106   89.4709 N   0  0  0  0  0  0  0  0  0  0  0  0
   69.9644   80.7905   90.0595 C   0  0  0  0  0  0  0  0  0  0  0  0
   68.4985   80.4909   90.1761 C   0  0  1  0  0  0  0  0  0  0  0  0
   67.9347   81.1467   88.9798 C   0  0  0  0  0  0  0  0  0  0  0  0
   66.7645   80.9730   88.2576 C   0  0  0  0  0  0  0  0  0  0  0  0
   66.5382   81.7755   87.1657 C   0  0  0  0  0  0  0  0  0  0  0  0
   67.4324   82.7444   86.7653 C   0  0  0  0  0  0  0  0  0  0  0  0
   68.5931   82.9144   87.4845 C   0  0  0  0  0  0  0  0  0  0  0  0
   68.8347   82.1104   88.5900 C   0  0  0  0  0  0  0  0  0  0  0  0
   70.7120   84.4134   89.0332 O   0  0  0  0  0  0  0  0  0  0  0  0
   70.8347   84.8087   86.6441 C   0  0  0  0  0  0  0  0  0  0  0  0
   71.5391   84.8222   87.9827 C   0  0  0  0  0  0  0  0  0  0  0  0
   72.8079   84.0472   87.8524 C   0  0  0  0  0  0  0  0  0  0  0  0
   71.9091   86.2808   88.2538 C   0  0  0  0  0  0  0  0  0  0  0  0
   67.4353   74.8839   90.1433 C   0  0  0  0  0  0  0  0  0  0  0  0
   68.6716   74.2375   90.2347 O   0  0  0  0  0  0  0  0  0  0  0  0
   69.0488   73.4163   91.2800 C   0  0  0  0  0  0  0  0  0  0  0  0
   69.4514   72.1192   91.0829 C   0  0  0  0  0  0  0  0  0  0  0  0
   69.8182   71.3491   92.1878 C   0  0  0  0  0  0  0  0  0  0  0  0
   69.7931   71.8392   93.4745 C   0  0  0  0  0  0  0  0  0  0  0  0
   70.1596   71.0699   94.5775 O   0  0  0  0  0  0  0  0  0  0  0  0
   69.3825   73.1535   93.6468 C   0  0  0  0  0  0  0  0  0  0  0  0
   69.0215   73.9108   92.5586 C   0  0  0  0  0  0  0  0  0  0  0  0
   70.4365   70.1827   94.4588 H   0  0  0  0  0  0  0  0  0  0  0  0
   69.3460   73.7000   94.9931 C   0  0  0  0  0  0  0  0  0  0  0  0
   70.0282   74.7266   95.2805 O   0  0  0  0  0  0  0  0  0  0  0  0
   68.5916   73.1543   96.0099 O   0  0  0  0  0  0  0  0  0  0  0  0
   68.0687   72.3936   95.8489 H   0  0  0  0  0  0  0  0  0  0  0  0
  1  2  2  0  0  0  0
  2  3  2  0  0  0  0
  3  4  2  0  0  0  0
  4 23  1  0  0  0  0
  4  5  1  0  0  0  0
  5  6  2  0  0  0  0
  6  1  2  0  0  0  0
  7  8  2  0  0  0  0
  7  9  1  0  0  0  0
  9 10  1  0  0  0  0
 10 11  1  0  0  0  0
 11  1  1  6  0  0  0
 11 12  1  0  0  0  0
 12 13  2  0  0  0  0
 13 14  1  0  0  0  0
 14 15  2  0  0  0  0
 15 16  1  0  0  0  0
 16 17  2  0  0  0  0
 17  9  1  0  0  0  0
 17 12  1  0  0  0  0
 18  7  1  0  0  0  0
 19 20  1  0  0  0  0
 20 21  1  0  0  0  0
 20 22  1  0  0  0  0
 20 18  1  0  0  0  0
 23 24  1  0  0  0  0
 24 25  1  0  0  0  0
 25 26  2  0  0  0  0
 26 27  1  0  0  0  0
 27 28  2  0  0  0  0
 28 29  1  0  0  0  0
 28 30  1  0  0  0  0
 29 32  1  0  0  0  0
 30 33  1  0  0  0  0
 30 31  2  0  0  0  0
 31 25  1  0  0  0  0
 33 34  2  0  0  0  0
 33 35  1  0  0  0  0
 35 36  1  0  0  0  0
M  END
>  <Activity>
8.1

>  <minimizedAffinity>
-8.00663

>  <RFScoreVS_v2>
5.96563003398

$$$$
HIPS7116
 OpenBabel05252300073D

 36 39  0  0  0  0  0  0  0  0999 V2000
   66.7545   80.0349   91.8553 C   0  0  0  0  0  0  0  0  0  0  0  0
   67.7364   79.1773   91.5325 N   0  0  0  0  0  0  0  0  0  0  0  0
   67.8631   77.9577   92.0547 C   0  0  0  0  0  0  0  0  0  0  0  0
   66.9195   77.5517   92.9900 C   0  0  0  0  0  0  0  0  0  0  0  0
   65.8993   78.4222   93.3357 C   0  0  0  0  0  0  0  0  0  0  0  0
   65.8514   79.6433   92.7521 N   0  0  0  0  0  0  0  0  0  0  0  0
   68.3577   84.4934   90.4235 C   0  0  0  0  0  0  0  0  0  0  0  0
   68.7129   85.1079   91.4610 O   0  0  0  0  0  0  0  0  0  0  0  0
   67.9727   83.1269   90.4390 N   0  0  0  0  0  0  0  0  0  0  0  0
   67.9099   82.2126   91.5567 C   0  0  0  0  0  0  0  0  0  0  0  0
   66.7231   81.3637   91.2057 C   0  0  1  0  0  0  0  0  0  0  0  0
   66.8057   81.2787   89.7344 C   0  0  0  0  0  0  0  0  0  0  0  0
   66.3001   80.3893   88.7993 C   0  0  0  0  0  0  0  0  0  0  0  0
   66.5674   80.6080   87.4695 C   0  0  0  0  0  0  0  0  0  0  0  0
   67.3187   81.6781   87.0351 C   0  0  0  0  0  0  0  0  0  0  0  0
   67.8192   82.5593   87.9660 C   0  0  0  0  0  0  0  0  0  0  0  0
   67.5569   82.3505   89.3130 C   0  0  0  0  0  0  0  0  0  0  0  0
   68.3649   85.2431   89.2445 O   0  0  0  0  0  0  0  0  0  0  0  0
   70.7150   84.7859   88.8609 C   0  0  0  0  0  0  0  0  0  0  0  0
   69.5358   85.7066   88.6373 C   0  0  0  0  0  0  0  0  0  0  0  0
   69.9377   87.0879   89.0349 C   0  0  0  0  0  0  0  0  0  0  0  0
   69.2796   85.7111   87.1298 C   0  0  0  0  0  0  0  0  0  0  0  0
   67.0170   76.1947   93.6069 C   0  0  0  0  0  0  0  0  0  0  0  0
   66.8558   75.2642   92.5760 O   0  0  0  0  0  0  0  0  0  0  0  0
   67.7216   74.2166   92.3263 C   0  0  0  0  0  0  0  0  0  0  0  0
   67.7743   73.5853   91.1090 C   0  0  0  0  0  0  0  0  0  0  0  0
   68.6750   72.5340   90.9303 C   0  0  0  0  0  0  0  0  0  0  0  0
   69.5177   72.1014   91.9299 C   0  0  0  0  0  0  0  0  0  0  0  0
   70.4169   71.0516   91.7511 O   0  0  0  0  0  0  0  0  0  0  0  0
   69.4449   72.7564   93.1511 C   0  0  0  0  0  0  0  0  0  0  0  0
   68.5579   73.7911   93.3262 C   0  0  0  0  0  0  0  0  0  0  0  0
   70.4644   70.6108   90.9256 H   0  0  0  0  0  0  0  0  0  0  0  0
   70.3221   72.3233   94.2260 C   0  0  0  0  0  0  0  0  0  0  0  0
   69.8885   72.2607   95.4135 O   0  0  0  0  0  0  0  0  0  0  0  0
   71.6386   71.9647   94.0288 O   0  0  0  0  0  0  0  0  0  0  0  0
   72.0082   71.9936   93.1683 H   0  0  0  0  0  0  0  0  0  0  0  0
  1  2  2  0  0  0  0
  2  3  2  0  0  0  0
  3  4  2  0  0  0  0
  4 23  1  0  0  0  0
  4  5  1  0  0  0  0
  5  6  2  0  0  0  0
  6  1  2  0  0  0  0
  7  8  2  0  0  0  0
  7  9  1  0  0  0  0
  9 10  1  0  0  0  0
 10 11  1  0  0  0  0
 11  1  1  1  0  0  0
 11 12  1  0  0  0  0
 12 13  2  0  0  0  0
 13 14  1  0  0  0  0
 14 15  2  0  0  0  0
 15 16  1  0  0  0  0
 16 17  2  0  0  0  0
 17  9  1  0  0  0  0
 17 12  1  0  0  0  0
 18  7  1  0  0  0  0
 19 20  1  0  0  0  0
 20 21  1  0  0  0  0
 20 22  1  0  0  0  0
 20 18  1  0  0  0  0
 23 24  1  0  0  0  0
 24 25  1  0  0  0  0
 25 26  2  0  0  0  0
 26 27  1  0  0  0  0
 27 28  2  0  0  0  0
 28 29  1  0  0  0  0
 28 30  1  0  0  0  0
 29 32  1  0  0  0  0
 30 33  1  0  0  0  0
 30 31  2  0  0  0  0
 31 25  1  0  0  0  0
 33 34  2  0  0  0  0
 33 35  1  0  0  0  0
 35 36  1  0  0  0  0
M  END
>  <Activity>
8.1

>  <minimizedAffinity>
-7.98155

>  <RFScoreVS_v2>
5.96736534202

$$$$
HIPS7116
 OpenBabel05252300073D

 36 39  0  0  0  0  0  0  0  0999 V2000
   68.6536   79.2597   90.3197 C   0  0  0  0  0  0  0  0  0  0  0  0
   67.7345   78.7729   91.1693 N   0  0  0  0  0  0  0  0  0  0  0  0
   67.4681   77.4754   91.3169 C   0  0  0  0  0  0  0  0  0  0  0  0
   68.1874   76.5738   90.5426 C   0  0  0  0  0  0  0  0  0  0  0  0
   69.1398   77.0567   89.6605 C   0  0  0  0  0  0  0  0  0  0  0  0
   69.3417   78.3934   89.5786 N   0  0  0  0  0  0  0  0  0  0  0  0
   71.0289   83.5446   89.6152 C   0  0  0  0  0  0  0  0  0  0  0  0
   72.0411   83.5316   90.3604 O   0  0  0  0  0  0  0  0  0  0  0  0
   70.1861   82.4138   89.4516 N   0  0  0  0  0  0  0  0  0  0  0  0
   70.2949   81.1041   90.0532 C   0  0  0  0  0  0  0  0  0  0  0  0
   68.8561   80.7233   90.2465 C   0  0  1  0  0  0  0  0  0  0  0  0
   68.1971   81.3300   89.0733 C   0  0  0  0  0  0  0  0  0  0  0  0
   67.0044   81.0804   88.4127 C   0  0  0  0  0  0  0  0  0  0  0  0
   66.6785   81.8541   87.3251 C   0  0  0  0  0  0  0  0  0  0  0  0
   67.4947   82.8666   86.8701 C   0  0  0  0  0  0  0  0  0  0  0  0
   68.6780   83.1119   87.5281 C   0  0  0  0  0  0  0  0  0  0  0  0
   69.0198   82.3379   88.6284 C   0  0  0  0  0  0  0  0  0  0  0  0
   70.7817   84.7494   88.9523 O   0  0  0  0  0  0  0  0  0  0  0  0
   72.4580   86.3250   88.1865 C   0  0  0  0  0  0  0  0  0  0  0  0
   71.5231   85.1845   87.8497 C   0  0  0  0  0  0  0  0  0  0  0  0
   70.7038   85.5836   86.6678 C   0  0  0  0  0  0  0  0  0  0  0  0
   72.4134   84.0155   87.4269 C   0  0  0  0  0  0  0  0  0  0  0  0
   67.9262   75.1084   90.6683 C   0  0  0  0  0  0  0  0  0  0  0  0
   69.0830   74.5309   91.2004 O   0  0  0  0  0  0  0  0  0  0  0  0
   69.1982   74.0626   92.4953 C   0  0  0  0  0  0  0  0  0  0  0  0
   68.5192   74.6331   93.5427 C   0  0  0  0  0  0  0  0  0  0  0  0
   68.6852   74.1056   94.8243 C   0  0  0  0  0  0  0  0  0  0  0  0
   69.5061   73.0306   95.0832 C   0  0  0  0  0  0  0  0  0  0  0  0
   69.6715   72.5041   96.3631 O   0  0  0  0  0  0  0  0  0  0  0  0
   70.1812   72.4720   94.0071 C   0  0  0  0  0  0  0  0  0  0  0  0
   70.0173   72.9920   92.7458 C   0  0  0  0  0  0  0  0  0  0  0  0
   69.2147   72.8830   97.0881 H   0  0  0  0  0  0  0  0  0  0  0  0
   71.0549   71.3357   94.2482 C   0  0  0  0  0  0  0  0  0  0  0  0
   70.6152   70.3131   94.8506 O   0  0  0  0  0  0  0  0  0  0  0  0
   72.3742   71.2991   93.8498 O   0  0  0  0  0  0  0  0  0  0  0  0
   72.7482   72.0310   93.4000 H   0  0  0  0  0  0  0  0  0  0  0  0
  1  2  2  0  0  0  0
  2  3  2  0  0  0  0
  3  4  2  0  0  0  0
  4 23  1  0  0  0  0
  4  5  1  0  0  0  0
  5  6  2  0  0  0  0
  6  1  2  0  0  0  0
  7  8  2  0  0  0  0
  7  9  1  0  0  0  0
  9 10  1  0  0  0  0
 10 11  1  0  0  0  0
 11  1  1  6  0  0  0
 11 12  1  0  0  0  0
 12 13  2  0  0  0  0
 13 14  1  0  0  0  0
 14 15  2  0  0  0  0
 15 16  1  0  0  0  0
 16 17  2  0  0  0  0
 17  9  1  0  0  0  0
 17 12  1  0  0  0  0
 18  7  1  0  0  0  0
 19 20  1  0  0  0  0
 20 21  1  0  0  0  0
 20 22  1  0  0  0  0
 20 18  1  0  0  0  0
 23 24  1  0  0  0  0
 24 25  1  0  0  0  0
 25 26  2  0  0  0  0
 26 27  1  0  0  0  0
 27 28  2  0  0  0  0
 28 29  1  0  0  0  0
 28 30  1  0  0  0  0
 29 32  1  0  0  0  0
 30 33  1  0  0  0  0
 30 31  2  0  0  0  0
 31 25  1  0  0  0  0
 33 34  2  0  0  0  0
 33 35  1  0  0  0  0
 35 36  1  0  0  0  0
M  END
>  <Activity>
8.1

>  <minimizedAffinity>
-7.97061

>  <RFScoreVS_v2>
5.95990774393

$$$$
HIPS7116
 OpenBabel05252300073D

 36 39  0  0  0  0  0  0  0  0999 V2000
   67.8199   76.7931   90.8668 C   0  0  0  0  0  0  0  0  0  0  0  0
   67.5667   76.8368   92.1850 N   0  0  0  0  0  0  0  0  0  0  0  0
   67.4584   75.7579   92.9599 C   0  0  0  0  0  0  0  0  0  0  0  0
   67.6182   74.5131   92.3641 C   0  0  0  0  0  0  0  0  0  0  0  0
   67.8800   74.4477   91.0056 C   0  0  0  0  0  0  0  0  0  0  0  0
   67.9726   75.5988   90.2981 N   0  0  0  0  0  0  0  0  0  0  0  0
   67.1929   81.5972   89.8538 C   0  0  0  0  0  0  0  0  0  0  0  0
   65.9586   81.8279   89.9118 O   0  0  0  0  0  0  0  0  0  0  0  0
   67.7549   80.3479   90.2270 N   0  0  0  0  0  0  0  0  0  0  0  0
   67.0901   79.1619   90.7174 C   0  0  0  0  0  0  0  0  0  0  0  0
   67.9155   78.0632   90.1143 C   0  0  1  0  0  0  0  0  0  0  0  0
   69.2777   78.6316   90.1301 C   0  0  0  0  0  0  0  0  0  0  0  0
   70.5459   78.0736   90.0915 C   0  0  0  0  0  0  0  0  0  0  0  0
   71.6355   78.9100   90.1189 C   0  0  0  0  0  0  0  0  0  0  0  0
   71.5108   80.2806   90.1833 C   0  0  0  0  0  0  0  0  0  0  0  0
   70.2504   80.8315   90.2214 C   0  0  0  0  0  0  0  0  0  0  0  0
   69.1406   79.9983   90.1944 C   0  0  0  0  0  0  0  0  0  0  0  0
   67.9845   82.6536   89.3962 O   0  0  0  0  0  0  0  0  0  0  0  0
   69.5482   83.1841   87.6207 C   0  0  0  0  0  0  0  0  0  0  0  0
   68.1093   82.9894   88.0448 C   0  0  0  0  0  0  0  0  0  0  0  0
   67.3311   84.1930   87.6287 C   0  0  0  0  0  0  0  0  0  0  0  0
   67.5874   81.7964   87.2432 C   0  0  0  0  0  0  0  0  0  0  0  0
   67.5049   73.2720   93.1877 C   0  0  0  0  0  0  0  0  0  0  0  0
   68.7816   72.9929   93.6845 O   0  0  0  0  0  0  0  0  0  0  0  0
   69.5994   71.9829   93.2149 C   0  0  0  0  0  0  0  0  0  0  0  0
   69.2566   71.2055   92.1372 C   0  0  0  0  0  0  0  0  0  0  0  0
   70.1337   70.2033   91.7194 C   0  0  0  0  0  0  0  0  0  0  0  0
   71.3355   69.9608   92.3467 C   0  0  0  0  0  0  0  0  0  0  0  0
   72.2111   68.9600   91.9292 O   0  0  0  0  0  0  0  0  0  0  0  0
   71.6586   70.7607   93.4336 C   0  0  0  0  0  0  0  0  0  0  0  0
   70.7945   71.7469   93.8443 C   0  0  0  0  0  0  0  0  0  0  0  0
   71.9908   68.4210   91.1950 H   0  0  0  0  0  0  0  0  0  0  0  0
   72.9207   70.5296   94.1165 C   0  0  0  0  0  0  0  0  0  0  0  0
   73.8009   71.4386   94.1490 O   0  0  0  0  0  0  0  0  0  0  0  0
   73.2305   69.3458   94.7515 O   0  0  0  0  0  0  0  0  0  0  0  0
   72.6129   68.6412   94.7564 H   0  0  0  0  0  0  0  0  0  0  0  0
  1  2  2  0  0  0  0
  2  3  2  0  0  0  0
  3  4  2  0  0  0  0
  4 23  1  0  0  0  0
  4  5  1  0  0  0  0
  5  6  2  0  0  0  0
  6  1  2  0  0  0  0
  7  8  2  0  0  0  0
  7  9  1  0  0  0  0
  9 10  1  0  0  0  0
 10 11  1  0  0  0  0
 11  1  1  1  0  0  0
 11 12  1  0  0  0  0
 12 13  2  0  0  0  0
 13 14  1  0  0  0  0
 14 15  2  0  0  0  0
 15 16  1  0  0  0  0
 16 17  2  0  0  0  0
 17  9  1  0  0  0  0
 17 12  1  0  0  0  0
 18  7  1  0  0  0  0
 19 20  1  0  0  0  0
 20 21  1  0  0  0  0
 20 22  1  0  0  0  0
 20 18  1  0  0  0  0
 23 24  1  0  0  0  0
 24 25  1  0  0  0  0
 25 26  2  0  0  0  0
 26 27  1  0  0  0  0
 27 28  2  0  0  0  0
 28 29  1  0  0  0  0
 28 30  1  0  0  0  0
 29 32  1  0  0  0  0
 30 33  1  0  0  0  0
 30 31  2  0  0  0  0
 31 25  1  0  0  0  0
 33 34  2  0  0  0  0
 33 35  1  0  0  0  0
 35 36  1  0  0  0  0
M  END
>  <Activity>
8.1

>  <minimizedAffinity>
-7.95320

>  <RFScoreVS_v2>
5.97360055781

$$$$
HIPS6566
 OpenBabel05252300073D

 32 33  0  0  0  0  0  0  0  0999 V2000
   67.4511   76.5760   88.9889 C   0  0  0  0  0  0  0  0  0  0  0  0
   67.1621   76.5496   87.6125 C   0  0  0  0  0  0  0  0  0  0  0  0
   66.7924   77.7211   86.9462 C   0  0  0  0  0  0  0  0  0  0  0  0
   66.7072   78.9301   87.6429 C   0  0  0  0  0  0  0  0  0  0  0  0
   66.9796   78.9738   89.0182 C   0  0  0  0  0  0  0  0  0  0  0  0
   67.3616   77.7974   89.6841 C   0  0  0  0  0  0  0  0  0  0  0  0
   69.0635   74.2222   91.5095 C   0  0  0  0  0  0  0  0  0  0  0  0
   68.6025   72.9841   91.0362 C   0  0  0  0  0  0  0  0  0  0  0  0
   67.7725   72.9159   89.9154 C   0  0  0  0  0  0  0  0  0  0  0  0
   67.3950   74.0833   89.2509 C   0  0  0  0  0  0  0  0  0  0  0  0
   67.8515   75.3347   89.6974 C   0  0  0  0  0  0  0  0  0  0  0  0
   68.6875   75.3959   90.8276 C   0  0  0  0  0  0  0  0  0  0  0  0
   69.9059   74.2517   92.6769 N   0  0  0  0  0  0  0  0  0  0  0  0
   70.8651   74.0682   92.5526 H   0  0  0  0  0  0  0  0  0  0  0  0
   69.3520   74.5878   94.2886 S   0  0  0  0  0  0  0  0  0  0  0  0
   69.7479   75.9929   94.6499 O   0  0  0  0  0  0  0  0  0  0  0  0
   70.0068   73.6455   95.2584 O   0  0  0  0  0  0  0  0  0  0  0  0
   67.1425   73.9457   95.7591 C   0  0  0  0  0  0  0  0  0  0  0  0
   67.5676   74.4355   94.3734 C   0  0  0  0  0  0  0  0  0  0  0  0
   66.9069   75.7781   94.0452 C   0  0  0  0  0  0  0  0  0  0  0  0
   66.9436   80.2827   89.7515 C   0  0  0  0  0  0  0  0  0  0  0  0
   68.2752   80.6636   90.0896 O   0  0  0  0  0  0  0  0  0  0  0  0
   68.9599   81.7613   89.5465 C   0  0  0  0  0  0  0  0  0  0  0  0
   68.7072   82.2570   88.3249 C   0  0  0  0  0  0  0  0  0  0  0  0
   69.4307   83.4280   87.7673 C   0  0  0  0  0  0  0  0  0  0  0  0
   70.7664   83.4829   87.9234 C   0  0  0  0  0  0  0  0  0  0  0  0
   71.5446   84.5740   87.5346 O   0  0  0  0  0  0  0  0  0  0  0  0
   71.1397   85.3217   87.1410 H   0  0  0  0  0  0  0  0  0  0  0  0
   68.6871   84.5092   87.0830 C   0  0  0  0  0  0  0  0  0  0  0  0
   67.5141   84.7921   87.4473 O   0  0  0  0  0  0  0  0  0  0  0  0
   69.2592   85.1896   86.0121 O   0  0  0  0  0  0  0  0  0  0  0  0
   70.1309   84.9828   85.7376 H   0  0  0  0  0  0  0  0  0  0  0  0
  1  2  2  0  0  0  0
  2  3  1  0  0  0  0
  3  4  2  0  0  0  0
  4  5  1  0  0  0  0
  5 21  1  0  0  0  0
  5  6  2  0  0  0  0
  6  1  1  0  0  0  0
  7  8  2  0  0  0  0
  8  9  1  0  0  0  0
  9 10  2  0  0  0  0
 10 11  1  0  0  0  0
 11  1  1  0  0  0  0
 11 12  2  0  0  0  0
 12  7  1  0  0  0  0
 13  7  1  0  0  0  0
 13 14  1  0  0  0  0
 15 16  2  0  0  0  0
 15 17  2  0  0  0  0
 15 13  1  0  0  0  0
 18 19  1  0  0  0  0
 19 20  1  0  0  0  0
 19 15  1  0  0  0  0
 21 22  1  0  0  0  0
 22 23  1  0  0  0  0
 23 24  2  0  0  0  0
 24 25  1  0  0  0  0
 25 26  2  0  0  0  0
 25 29  1  0  0  0  0
 26 27  1  0  0  0  0
 27 28  1  0  0  0  0
 29 30  2  0  0  0  0
 29 31  1  0  0  0  0
 31 32  1  0  0  0  0
M  END
>  <Activity>
8.6

>  <minimizedAffinity>
-8.03492

>  <RFScoreVS_v2>
5.97966762643

$$$$
HIPS6566
 OpenBabel05252300073D

 32 33  0  0  0  0  0  0  0  0999 V2000
   70.3492   80.4090   90.0687 C   0  0  0  0  0  0  0  0  0  0  0  0
   68.9439   80.3952   90.0101 C   0  0  0  0  0  0  0  0  0  0  0  0
   68.2339   79.2439   90.3612 C   0  0  0  0  0  0  0  0  0  0  0  0
   68.9154   78.0953   90.7745 C   0  0  0  0  0  0  0  0  0  0  0  0
   70.3171   78.0861   90.8275 C   0  0  0  0  0  0  0  0  0  0  0  0
   71.0287   79.2477   90.4846 C   0  0  0  0  0  0  0  0  0  0  0  0
   71.2387   83.7722   88.5223 C   0  0  0  0  0  0  0  0  0  0  0  0
   72.5390   83.9481   89.0204 C   0  0  0  0  0  0  0  0  0  0  0  0
   73.1168   82.9882   89.8539 C   0  0  0  0  0  0  0  0  0  0  0  0
   72.4046   81.8388   90.1978 C   0  0  0  0  0  0  0  0  0  0  0  0
   71.1055   81.6329   89.7039 C   0  0  0  0  0  0  0  0  0  0  0  0
   70.5295   82.6044   88.8647 C   0  0  0  0  0  0  0  0  0  0  0  0
   70.6727   84.7916   87.6777 N   0  0  0  0  0  0  0  0  0  0  0  0
   71.0359   84.8840   86.7673 H   0  0  0  0  0  0  0  0  0  0  0  0
   69.3952   85.8703   88.1487 S   0  0  0  0  0  0  0  0  0  0  0  0
   69.4683   87.1049   87.2930 O   0  0  0  0  0  0  0  0  0  0  0  0
   69.5750   86.2758   89.5841 O   0  0  0  0  0  0  0  0  0  0  0  0
   67.8701   84.0830   86.7571 C   0  0  0  0  0  0  0  0  0  0  0  0
   67.8023   85.0815   87.9144 C   0  0  0  0  0  0  0  0  0  0  0  0
   67.3621   84.3863   89.2066 C   0  0  0  0  0  0  0  0  0  0  0  0
   71.0435   76.8713   91.3263 C   0  0  0  0  0  0  0  0  0  0  0  0
   70.5714   76.5505   92.6329 O   0  0  0  0  0  0  0  0  0  0  0  0
   69.6960   75.4965   92.9351 C   0  0  0  0  0  0  0  0  0  0  0  0
   69.1191   75.3387   94.1369 C   0  0  0  0  0  0  0  0  0  0  0  0
   68.1838   74.2255   94.4394 C   0  0  0  0  0  0  0  0  0  0  0  0
   67.4199   74.3197   95.5437 C   0  0  0  0  0  0  0  0  0  0  0  0
   66.5782   73.2998   95.9891 O   0  0  0  0  0  0  0  0  0  0  0  0
   66.5234   72.4955   95.5115 H   0  0  0  0  0  0  0  0  0  0  0  0
   68.1221   73.0402   93.5555 C   0  0  0  0  0  0  0  0  0  0  0  0
   69.0817   72.2232   93.5333 O   0  0  0  0  0  0  0  0  0  0  0  0
   67.0288   72.8422   92.7174 O   0  0  0  0  0  0  0  0  0  0  0  0
   66.3130   73.4468   92.7302 H   0  0  0  0  0  0  0  0  0  0  0  0
  1  2  2  0  0  0  0
  2  3  1  0  0  0  0
  3  4  2  0  0  0  0
  4  5  1  0  0  0  0
  5 21  1  0  0  0  0
  5  6  2  0  0  0  0
  6  1  1  0  0  0  0
  7  8  2  0  0  0  0
  8  9  1  0  0  0  0
  9 10  2  0  0  0  0
 10 11  1  0  0  0  0
 11  1  1  0  0  0  0
 11 12  2  0  0  0  0
 12  7  1  0  0  0  0
 13  7  1  0  0  0  0
 13 14  1  0  0  0  0
 15 16  2  0  0  0  0
 15 17  2  0  0  0  0
 15 13  1  0  0  0  0
 18 19  1  0  0  0  0
 19 20  1  0  0  0  0
 19 15  1  0  0  0  0
 21 22  1  0  0  0  0
 22 23  1  0  0  0  0
 23 24  2  0  0  0  0
 24 25  1  0  0  0  0
 25 26  2  0  0  0  0
 25 29  1  0  0  0  0
 26 27  1  0  0  0  0
 27 28  1  0  0  0  0
 29 30  2  0  0  0  0
 29 31  1  0  0  0  0
 31 32  1  0  0  0  0
M  END
>  <Activity>
8.6

>  <minimizedAffinity>
-8.02186

>  <RFScoreVS_v2>
5.961233636

$$$$
HIPS6566
 OpenBabel05252300073D

 32 33  0  0  0  0  0  0  0  0999 V2000
   68.2436   77.7587   88.9722 C   0  0  0  0  0  0  0  0  0  0  0  0
   67.6821   76.7463   88.1730 C   0  0  0  0  0  0  0  0  0  0  0  0
   66.7064   77.0572   87.2221 C   0  0  0  0  0  0  0  0  0  0  0  0
   66.2801   78.3784   87.0570 C   0  0  0  0  0  0  0  0  0  0  0  0
   66.8194   79.3995   87.8533 C   0  0  0  0  0  0  0  0  0  0  0  0
   67.8080   79.0869   88.8010 C   0  0  0  0  0  0  0  0  0  0  0  0
   70.1118   76.0175   91.7957 C   0  0  0  0  0  0  0  0  0  0  0  0
   71.2622   76.8176   91.8742 C   0  0  0  0  0  0  0  0  0  0  0  0
   71.4313   77.9056   91.0155 C   0  0  0  0  0  0  0  0  0  0  0  0
   70.4520   78.2106   90.0696 C   0  0  0  0  0  0  0  0  0  0  0  0
   69.2858   77.4324   89.9775 C   0  0  0  0  0  0  0  0  0  0  0  0
   69.1221   76.3375   90.8458 C   0  0  0  0  0  0  0  0  0  0  0  0
   69.9813   74.8959   92.6890 N   0  0  0  0  0  0  0  0  0  0  0  0
   70.2889   74.0177   92.3674 H   0  0  0  0  0  0  0  0  0  0  0  0
   69.3202   74.9801   94.2932 S   0  0  0  0  0  0  0  0  0  0  0  0
   69.6992   76.3026   94.9006 O   0  0  0  0  0  0  0  0  0  0  0  0
   69.9009   73.8841   95.1409 O   0  0  0  0  0  0  0  0  0  0  0  0
   66.9949   74.3307   95.5690 C   0  0  0  0  0  0  0  0  0  0  0  0
   67.5333   74.8468   94.2331 C   0  0  0  0  0  0  0  0  0  0  0  0
   66.9140   76.2042   93.8856 C   0  0  0  0  0  0  0  0  0  0  0  0
   66.4023   80.8245   87.6345 C   0  0  0  0  0  0  0  0  0  0  0  0
   67.4661   81.5282   86.9974 O   0  0  0  0  0  0  0  0  0  0  0  0
   68.1627   82.6103   87.5565 C   0  0  0  0  0  0  0  0  0  0  0  0
   67.7850   83.8892   87.4025 C   0  0  0  0  0  0  0  0  0  0  0  0
   68.5243   85.0244   88.0110 C   0  0  0  0  0  0  0  0  0  0  0  0
   68.3372   85.2759   89.3199 C   0  0  0  0  0  0  0  0  0  0  0  0
   68.8942   86.3701   89.9828 O   0  0  0  0  0  0  0  0  0  0  0  0
   69.4317   86.9779   89.5141 H   0  0  0  0  0  0  0  0  0  0  0  0
   69.4198   85.8626   87.1829 C   0  0  0  0  0  0  0  0  0  0  0  0
   69.6414   87.0590   87.5120 O   0  0  0  0  0  0  0  0  0  0  0  0
   69.9876   85.3512   86.0197 O   0  0  0  0  0  0  0  0  0  0  0  0
   69.8258   84.4624   85.7710 H   0  0  0  0  0  0  0  0  0  0  0  0
  1  2  2  0  0  0  0
  2  3  1  0  0  0  0
  3  4  2  0  0  0  0
  4  5  1  0  0  0  0
  5 21  1  0  0  0  0
  5  6  2  0  0  0  0
  6  1  1  0  0  0  0
  7  8  2  0  0  0  0
  8  9  1  0  0  0  0
  9 10  2  0  0  0  0
 10 11  1  0  0  0  0
 11  1  1  0  0  0  0
 11 12  2  0  0  0  0
 12  7  1  0  0  0  0
 13  7  1  0  0  0  0
 13 14  1  0  0  0  0
 15 16  2  0  0  0  0
 15 17  2  0  0  0  0
 15 13  1  0  0  0  0
 18 19  1  0  0  0  0
 19 20  1  0  0  0  0
 19 15  1  0  0  0  0
 21 22  1  0  0  0  0
 22 23  1  0  0  0  0
 23 24  2  0  0  0  0
 24 25  1  0  0  0  0
 25 26  2  0  0  0  0
 25 29  1  0  0  0  0
 26 27  1  0  0  0  0
 27 28  1  0  0  0  0
 29 30  2  0  0  0  0
 29 31  1  0  0  0  0
 31 32  1  0  0  0  0
M  END
>  <Activity>
8.6

>  <minimizedAffinity>
-7.84350

>  <RFScoreVS_v2>
6.00221532275

$$$$
HIPS6566
 OpenBabel05252300073D

 32 33  0  0  0  0  0  0  0  0999 V2000
   67.4153   76.8593   89.0114 C   0  0  0  0  0  0  0  0  0  0  0  0
   67.4992   77.0219   87.6167 C   0  0  0  0  0  0  0  0  0  0  0  0
   67.1467   78.2380   87.0253 C   0  0  0  0  0  0  0  0  0  0  0  0
   66.7078   79.3041   87.8159 C   0  0  0  0  0  0  0  0  0  0  0  0
   66.6057   79.1569   89.2071 C   0  0  0  0  0  0  0  0  0  0  0  0
   66.9708   77.9374   89.8010 C   0  0  0  0  0  0  0  0  0  0  0  0
   68.9588   74.3340   91.4061 C   0  0  0  0  0  0  0  0  0  0  0  0
   68.5111   73.1324   90.8358 C   0  0  0  0  0  0  0  0  0  0  0  0
   67.7119   73.1433   89.6908 C   0  0  0  0  0  0  0  0  0  0  0  0
   67.3525   74.3545   89.0987 C   0  0  0  0  0  0  0  0  0  0  0  0
   67.7965   75.5713   89.6430 C   0  0  0  0  0  0  0  0  0  0  0  0
   68.6013   75.5527   90.7970 C   0  0  0  0  0  0  0  0  0  0  0  0
   69.7691   74.2812   92.5951 N   0  0  0  0  0  0  0  0  0  0  0  0
   70.7105   74.5591   92.5190 H   0  0  0  0  0  0  0  0  0  0  0  0
   69.2056   73.7627   94.1543 S   0  0  0  0  0  0  0  0  0  0  0  0
   70.0837   74.3745   95.2108 O   0  0  0  0  0  0  0  0  0  0  0  0
   69.3064   72.2675   94.2602 O   0  0  0  0  0  0  0  0  0  0  0  0
   67.0065   73.8212   95.7720 C   0  0  0  0  0  0  0  0  0  0  0  0
   67.5133   74.2971   94.4091 C   0  0  0  0  0  0  0  0  0  0  0  0
   67.4184   75.8219   94.2964 C   0  0  0  0  0  0  0  0  0  0  0  0
   66.1896   80.3205   90.0587 C   0  0  0  0  0  0  0  0  0  0  0  0
   66.8788   81.4888   89.6194 O   0  0  0  0  0  0  0  0  0  0  0  0
   68.2070   81.8072   89.9405 C   0  0  0  0  0  0  0  0  0  0  0  0
   69.1645   81.9923   89.0182 C   0  0  0  0  0  0  0  0  0  0  0  0
   70.5640   82.3420   89.3715 C   0  0  0  0  0  0  0  0  0  0  0  0
   71.1298   83.3972   88.7567 C   0  0  0  0  0  0  0  0  0  0  0  0
   72.4650   83.7649   88.9272 O   0  0  0  0  0  0  0  0  0  0  0  0
   73.0193   83.2667   89.4952 H   0  0  0  0  0  0  0  0  0  0  0  0
   71.3117   81.5284   90.3560 C   0  0  0  0  0  0  0  0  0  0  0  0
   71.7940   82.0746   91.3845 O   0  0  0  0  0  0  0  0  0  0  0  0
   71.5213   80.1706   90.1341 O   0  0  0  0  0  0  0  0  0  0  0  0
   71.1648   79.7600   89.3710 H   0  0  0  0  0  0  0  0  0  0  0  0
  1  2  2  0  0  0  0
  2  3  1  0  0  0  0
  3  4  2  0  0  0  0
  4  5  1  0  0  0  0
  5 21  1  0  0  0  0
  5  6  2  0  0  0  0
  6  1  1  0  0  0  0
  7  8  2  0  0  0  0
  8  9  1  0  0  0  0
  9 10  2  0  0  0  0
 10 11  1  0  0  0  0
 11  1  1  0  0  0  0
 11 12  2  0  0  0  0
 12  7  1  0  0  0  0
 13  7  1  0  0  0  0
 13 14  1  0  0  0  0
 15 16  2  0  0  0  0
 15 17  2  0  0  0  0
 15 13  1  0  0  0  0
 18 19  1  0  0  0  0
 19 20  1  0  0  0  0
 19 15  1  0  0  0  0
 21 22  1  0  0  0  0
 22 23  1  0  0  0  0
 23 24  2  0  0  0  0
 24 25  1  0  0  0  0
 25 26  2  0  0  0  0
 25 29  1  0  0  0  0
 26 27  1  0  0  0  0
 27 28  1  0  0  0  0
 29 30  2  0  0  0  0
 29 31  1  0  0  0  0
 31 32  1  0  0  0  0
M  END
>  <Activity>
8.6

>  <minimizedAffinity>
-7.81339

>  <RFScoreVS_v2>
5.98681370029

$$$$
HIPS6566
 OpenBabel05252300073D

 32 33  0  0  0  0  0  0  0  0999 V2000
   68.4926   78.1725   89.1202 C   0  0  0  0  0  0  0  0  0  0  0  0
   67.8169   77.1993   88.3619 C   0  0  0  0  0  0  0  0  0  0  0  0
   66.8751   77.5804   87.4024 C   0  0  0  0  0  0  0  0  0  0  0  0
   66.5968   78.9335   87.1879 C   0  0  0  0  0  0  0  0  0  0  0  0
   67.2514   79.9179   87.9430 C   0  0  0  0  0  0  0  0  0  0  0  0
   68.2058   79.5334   88.8994 C   0  0  0  0  0  0  0  0  0  0  0  0
   70.0659   76.6422   92.2310 C   0  0  0  0  0  0  0  0  0  0  0  0
   71.4078   77.0102   92.0476 C   0  0  0  0  0  0  0  0  0  0  0  0
   71.7972   77.7411   90.9234 C   0  0  0  0  0  0  0  0  0  0  0  0
   70.8508   78.1168   89.9695 C   0  0  0  0  0  0  0  0  0  0  0  0
   69.4991   77.7708   90.1345 C   0  0  0  0  0  0  0  0  0  0  0  0
   69.1139   77.0341   91.2697 C   0  0  0  0  0  0  0  0  0  0  0  0
   69.7068   75.8761   93.3960 N   0  0  0  0  0  0  0  0  0  0  0  0
   69.6837   76.3448   94.2615 H   0  0  0  0  0  0  0  0  0  0  0  0
   69.3113   74.1847   93.3849 S   0  0  0  0  0  0  0  0  0  0  0  0
   68.7954   73.8026   94.7448 O   0  0  0  0  0  0  0  0  0  0  0  0
   70.5448   73.3757   93.1002 O   0  0  0  0  0  0  0  0  0  0  0  0
   68.6836   73.3373   90.8660 C   0  0  0  0  0  0  0  0  0  0  0  0
   68.0468   73.8536   92.1578 C   0  0  0  0  0  0  0  0  0  0  0  0
   67.0320   72.8445   92.7043 C   0  0  0  0  0  0  0  0  0  0  0  0
   66.9934   81.3710   87.6709 C   0  0  0  0  0  0  0  0  0  0  0  0
   67.7576   82.1580   88.5816 O   0  0  0  0  0  0  0  0  0  0  0  0
   68.5282   83.2758   88.2277 C   0  0  0  0  0  0  0  0  0  0  0  0
   69.8594   83.3350   88.3899 C   0  0  0  0  0  0  0  0  0  0  0  0
   70.6648   84.5198   87.9987 C   0  0  0  0  0  0  0  0  0  0  0  0
   71.8958   84.6538   88.5264 C   0  0  0  0  0  0  0  0  0  0  0  0
   72.7081   85.7687   88.3167 O   0  0  0  0  0  0  0  0  0  0  0  0
   72.4038   86.4765   87.7834 H   0  0  0  0  0  0  0  0  0  0  0  0
   70.1065   85.5301   87.0724 C   0  0  0  0  0  0  0  0  0  0  0  0
   69.6803   86.6273   87.5232 O   0  0  0  0  0  0  0  0  0  0  0  0
   70.0112   85.2609   85.7103 O   0  0  0  0  0  0  0  0  0  0  0  0
   70.3267   84.4466   85.3704 H   0  0  0  0  0  0  0  0  0  0  0  0
  1  2  2  0  0  0  0
  2  3  1  0  0  0  0
  3  4  2  0  0  0  0
  4  5  1  0  0  0  0
  5 21  1  0  0  0  0
  5  6  2  0  0  0  0
  6  1  1  0  0  0  0
  7  8  2  0  0  0  0
  8  9  1  0  0  0  0
  9 10  2  0  0  0  0
 10 11  1  0  0  0  0
 11  1  1  0  0  0  0
 11 12  2  0  0  0  0
 12  7  1  0  0  0  0
 13  7  1  0  0  0  0
 13 14  1  0  0  0  0
 15 16  2  0  0  0  0
 15 17  2  0  0  0  0
 15 13  1  0  0  0  0
 18 19  1  0  0  0  0
 19 20  1  0  0  0  0
 19 15  1  0  0  0  0
 21 22  1  0  0  0  0
 22 23  1  0  0  0  0
 23 24  2  0  0  0  0
 24 25  1  0  0  0  0
 25 26  2  0  0  0  0
 25 29  1  0  0  0  0
 26 27  1  0  0  0  0
 27 28  1  0  0  0  0
 29 30  2  0  0  0  0
 29 31  1  0  0  0  0
 31 32  1  0  0  0  0
M  END
>  <Activity>
8.6

>  <minimizedAffinity>
-7.73604

>  <RFScoreVS_v2>
5.96630706782

$$$$
HIPS6566
 OpenBabel05252300073D

 32 33  0  0  0  0  0  0  0  0999 V2000
   70.1230   76.7716   91.8708 C   0  0  0  0  0  0  0  0  0  0  0  0
   71.4774   76.8441   91.4980 C   0  0  0  0  0  0  0  0  0  0  0  0
   71.8966   77.7679   90.5369 C   0  0  0  0  0  0  0  0  0  0  0  0
   70.9723   78.6287   89.9377 C   0  0  0  0  0  0  0  0  0  0  0  0
   69.6154   78.5627   90.2875 C   0  0  0  0  0  0  0  0  0  0  0  0
   69.1976   77.6410   91.2617 C   0  0  0  0  0  0  0  0  0  0  0  0
   69.2199   73.4903   93.5771 C   0  0  0  0  0  0  0  0  0  0  0  0
   68.8344   73.9568   94.8434 C   0  0  0  0  0  0  0  0  0  0  0  0
   68.8738   75.3206   95.1407 C   0  0  0  0  0  0  0  0  0  0  0  0
   69.2955   76.2362   94.1761 C   0  0  0  0  0  0  0  0  0  0  0  0
   69.6763   75.7967   92.8971 C   0  0  0  0  0  0  0  0  0  0  0  0
   69.6342   74.4211   92.6045 C   0  0  0  0  0  0  0  0  0  0  0  0
   69.1791   72.0752   93.3142 N   0  0  0  0  0  0  0  0  0  0  0  0
   68.3404   71.7006   92.9599 H   0  0  0  0  0  0  0  0  0  0  0  0
   70.5026   70.9813   93.5770 S   0  0  0  0  0  0  0  0  0  0  0  0
   70.5883   70.6745   95.0467 O   0  0  0  0  0  0  0  0  0  0  0  0
   71.7897   71.6284   93.1509 O   0  0  0  0  0  0  0  0  0  0  0  0
   70.3264   69.7156   91.1637 C   0  0  0  0  0  0  0  0  0  0  0  0
   70.2354   69.4585   92.6692 C   0  0  0  0  0  0  0  0  0  0  0  0
   71.2545   68.3998   93.1022 C   0  0  0  0  0  0  0  0  0  0  0  0
   68.6351   79.5264   89.6854 C   0  0  0  0  0  0  0  0  0  0  0  0
   68.5135   80.6613   90.5398 O   0  0  0  0  0  0  0  0  0  0  0  0
   69.2674   81.8391   90.4244 C   0  0  0  0  0  0  0  0  0  0  0  0
   69.8967   82.2041   89.2963 C   0  0  0  0  0  0  0  0  0  0  0  0
   70.6807   83.4604   89.1839 C   0  0  0  0  0  0  0  0  0  0  0  0
   70.0157   84.6046   88.9384 C   0  0  0  0  0  0  0  0  0  0  0  0
   70.6446   85.8295   88.7126 O   0  0  0  0  0  0  0  0  0  0  0  0
   71.5798   85.8857   88.7272 H   0  0  0  0  0  0  0  0  0  0  0  0
   72.1545   83.4358   89.3158 C   0  0  0  0  0  0  0  0  0  0  0  0
   72.8628   84.1752   88.5806 O   0  0  0  0  0  0  0  0  0  0  0  0
   72.7670   82.5715   90.2184 O   0  0  0  0  0  0  0  0  0  0  0  0
   72.2447   82.0200   90.7671 H   0  0  0  0  0  0  0  0  0  0  0  0
  1  2  2  0  0  0  0
  2  3  1  0  0  0  0
  3  4  2  0  0  0  0
  4  5  1  0  0  0  0
  5 21  1  0  0  0  0
  5  6  2  0  0  0  0
  6  1  1  0  0  0  0
  7  8  2  0  0  0  0
  8  9  1  0  0  0  0
  9 10  2  0  0  0  0
 10 11  1  0  0  0  0
 11  1  1  0  0  0  0
 11 12  2  0  0  0  0
 12  7  1  0  0  0  0
 13  7  1  0  0  0  0
 13 14  1  0  0  0  0
 15 16  2  0  0  0  0
 15 17  2  0  0  0  0
 15 13  1  0  0  0  0
 18 19  1  0  0  0  0
 19 20  1  0  0  0  0
 19 15  1  0  0  0  0
 21 22  1  0  0  0  0
 22 23  1  0  0  0  0
 23 24  2  0  0  0  0
 24 25  1  0  0  0  0
 25 26  2  0  0  0  0
 25 29  1  0  0  0  0
 26 27  1  0  0  0  0
 27 28  1  0  0  0  0
 29 30  2  0  0  0  0
 29 31  1  0  0  0  0
 31 32  1  0  0  0  0
M  END
>  <Activity>
8.6

>  <minimizedAffinity>
-7.66267

>  <RFScoreVS_v2>
5.96510993372

$$$$
HIPS6566
 OpenBabel05252300073D

 32 33  0  0  0  0  0  0  0  0999 V2000
   68.8330   72.5041   91.2299 C   0  0  0  0  0  0  0  0  0  0  0  0
   69.4059   71.2323   91.0486 C   0  0  0  0  0  0  0  0  0  0  0  0
   70.1011   70.6157   92.0923 C   0  0  0  0  0  0  0  0  0  0  0  0
   70.2326   71.2586   93.3268 C   0  0  0  0  0  0  0  0  0  0  0  0
   69.6788   72.5324   93.5226 C   0  0  0  0  0  0  0  0  0  0  0  0
   68.9710   73.1459   92.4758 C   0  0  0  0  0  0  0  0  0  0  0  0
   66.7251   72.9983   88.0985 C   0  0  0  0  0  0  0  0  0  0  0  0
   66.6750   74.3997   88.0410 C   0  0  0  0  0  0  0  0  0  0  0  0
   67.3132   75.1741   89.0120 C   0  0  0  0  0  0  0  0  0  0  0  0
   68.0124   74.5589   90.0509 C   0  0  0  0  0  0  0  0  0  0  0  0
   68.0874   73.1579   90.1255 C   0  0  0  0  0  0  0  0  0  0  0  0
   67.4418   72.3838   89.1438 C   0  0  0  0  0  0  0  0  0  0  0  0
   66.0419   72.2350   87.0866 N   0  0  0  0  0  0  0  0  0  0  0  0
   65.1492   71.8823   87.3056 H   0  0  0  0  0  0  0  0  0  0  0  0
   66.6790   71.8915   85.5075 S   0  0  0  0  0  0  0  0  0  0  0  0
   67.2268   73.1641   84.9227 O   0  0  0  0  0  0  0  0  0  0  0  0
   65.5800   71.3922   84.6131 O   0  0  0  0  0  0  0  0  0  0  0  0
   67.7078   69.6910   86.7549 C   0  0  0  0  0  0  0  0  0  0  0  0
   67.9944   70.6787   85.6221 C   0  0  0  0  0  0  0  0  0  0  0  0
   68.1526   69.9435   84.2874 C   0  0  0  0  0  0  0  0  0  0  0  0
   69.7717   73.1952   94.8659 C   0  0  0  0  0  0  0  0  0  0  0  0
   68.4611   73.5486   95.3021 O   0  0  0  0  0  0  0  0  0  0  0  0
   67.8598   74.8014   95.1085 C   0  0  0  0  0  0  0  0  0  0  0  0
   67.5510   75.2919   93.8977 C   0  0  0  0  0  0  0  0  0  0  0  0
   66.9025   76.6144   93.7078 C   0  0  0  0  0  0  0  0  0  0  0  0
   65.6961   76.8169   94.2692 C   0  0  0  0  0  0  0  0  0  0  0  0
   64.9421   77.9758   94.0809 O   0  0  0  0  0  0  0  0  0  0  0  0
   65.2709   78.6658   93.5388 H   0  0  0  0  0  0  0  0  0  0  0  0
   67.5654   77.6626   92.9003 C   0  0  0  0  0  0  0  0  0  0  0  0
   68.4746   77.3468   92.0865 O   0  0  0  0  0  0  0  0  0  0  0  0
   67.2199   79.0010   93.0625 O   0  0  0  0  0  0  0  0  0  0  0  0
   66.5446   79.2407   93.6662 H   0  0  0  0  0  0  0  0  0  0  0  0
  1  2  2  0  0  0  0
  2  3  1  0  0  0  0
  3  4  2  0  0  0  0
  4  5  1  0  0  0  0
  5 21  1  0  0  0  0
  5  6  2  0  0  0  0
  6  1  1  0  0  0  0
  7  8  2  0  0  0  0
  8  9  1  0  0  0  0
  9 10  2  0  0  0  0
 10 11  1  0  0  0  0
 11  1  1  0  0  0  0
 11 12  2  0  0  0  0
 12  7  1  0  0  0  0
 13  7  1  0  0  0  0
 13 14  1  0  0  0  0
 15 16  2  0  0  0  0
 15 17  2  0  0  0  0
 15 13  1  0  0  0  0
 18 19  1  0  0  0  0
 19 20  1  0  0  0  0
 19 15  1  0  0  0  0
 21 22  1  0  0  0  0
 22 23  1  0  0  0  0
 23 24  2  0  0  0  0
 24 25  1  0  0  0  0
 25 26  2  0  0  0  0
 25 29  1  0  0  0  0
 26 27  1  0  0  0  0
 27 28  1  0  0  0  0
 29 30  2  0  0  0  0
 29 31  1  0  0  0  0
 31 32  1  0  0  0  0
M  END
>  <Activity>
8.6

>  <minimizedAffinity>
-7.61454

>  <RFScoreVS_v2>
5.95853456713

$$$$
HIPS6566
 OpenBabel05252300073D

 32 33  0  0  0  0  0  0  0  0999 V2000
   68.4817   78.5368   89.1202 C   0  0  0  0  0  0  0  0  0  0  0  0
   67.7388   77.7496   88.2218 C   0  0  0  0  0  0  0  0  0  0  0  0
   66.8212   78.3459   87.3527 C   0  0  0  0  0  0  0  0  0  0  0  0
   66.6342   79.7313   87.3688 C   0  0  0  0  0  0  0  0  0  0  0  0
   67.3569   80.5314   88.2662 C   0  0  0  0  0  0  0  0  0  0  0  0
   68.2868   79.9315   89.1315 C   0  0  0  0  0  0  0  0  0  0  0  0
   70.0066   76.2322   91.7388 C   0  0  0  0  0  0  0  0  0  0  0  0
   71.3234   76.7166   91.7717 C   0  0  0  0  0  0  0  0  0  0  0  0
   71.7123   77.7749   90.9480 C   0  0  0  0  0  0  0  0  0  0  0  0
   70.7900   78.3654   90.0834 C   0  0  0  0  0  0  0  0  0  0  0  0
   69.4627   77.9069   90.0389 C   0  0  0  0  0  0  0  0  0  0  0  0
   69.0779   76.8399   90.8715 C   0  0  0  0  0  0  0  0  0  0  0  0
   69.6485   75.1297   92.5929 N   0  0  0  0  0  0  0  0  0  0  0  0
   69.8834   74.2227   92.2906 H   0  0  0  0  0  0  0  0  0  0  0  0
   68.8321   75.2844   94.1184 S   0  0  0  0  0  0  0  0  0  0  0  0
   67.8459   76.4157   94.0233 O   0  0  0  0  0  0  0  0  0  0  0  0
   69.8261   75.6099   95.1967 O   0  0  0  0  0  0  0  0  0  0  0  0
   67.0465   73.9781   95.7189 C   0  0  0  0  0  0  0  0  0  0  0  0
   67.9578   73.7684   94.5079 C   0  0  0  0  0  0  0  0  0  0  0  0
   67.1493   73.2984   93.2945 C   0  0  0  0  0  0  0  0  0  0  0  0
   67.1967   82.0233   88.2417 C   0  0  0  0  0  0  0  0  0  0  0  0
   68.0144   82.5623   87.2056 O   0  0  0  0  0  0  0  0  0  0  0  0
   69.2531   83.1909   87.4038 C   0  0  0  0  0  0  0  0  0  0  0  0
   69.8880   83.2127   88.5863 C   0  0  0  0  0  0  0  0  0  0  0  0
   71.2055   83.8705   88.7791 C   0  0  0  0  0  0  0  0  0  0  0  0
   72.1900   83.1623   89.3629 C   0  0  0  0  0  0  0  0  0  0  0  0
   73.4366   83.6975   89.6892 O   0  0  0  0  0  0  0  0  0  0  0  0
   73.6239   84.5964   89.5024 H   0  0  0  0  0  0  0  0  0  0  0  0
   71.4081   85.2749   88.3585 C   0  0  0  0  0  0  0  0  0  0  0  0
   72.4478   85.5956   87.7223 O   0  0  0  0  0  0  0  0  0  0  0  0
   70.4773   86.2529   88.6961 O   0  0  0  0  0  0  0  0  0  0  0  0
   69.7028   86.0194   89.1690 H   0  0  0  0  0  0  0  0  0  0  0  0
  1  2  2  0  0  0  0
  2  3  1  0  0  0  0
  3  4  2  0  0  0  0
  4  5  1  0  0  0  0
  5 21  1  0  0  0  0
  5  6  2  0  0  0  0
  6  1  1  0  0  0  0
  7  8  2  0  0  0  0
  8  9  1  0  0  0  0
  9 10  2  0  0  0  0
 10 11  1  0  0  0  0
 11  1  1  0  0  0  0
 11 12  2  0  0  0  0
 12  7  1  0  0  0  0
 13  7  1  0  0  0  0
 13 14  1  0  0  0  0
 15 16  2  0  0  0  0
 15 17  2  0  0  0  0
 15 13  1  0  0  0  0
 18 19  1  0  0  0  0
 19 20  1  0  0  0  0
 19 15  1  0  0  0  0
 21 22  1  0  0  0  0
 22 23  1  0  0  0  0
 23 24  2  0  0  0  0
 24 25  1  0  0  0  0
 25 26  2  0  0  0  0
 25 29  1  0  0  0  0
 26 27  1  0  0  0  0
 27 28  1  0  0  0  0
 29 30  2  0  0  0  0
 29 31  1  0  0  0  0
 31 32  1  0  0  0  0
M  END
>  <Activity>
8.6

>  <minimizedAffinity>
-7.61105

>  <RFScoreVS_v2>
5.97425028139

$$$$
HIPS6566
 OpenBabel05252300073D

 32 33  0  0  0  0  0  0  0  0999 V2000
   66.6935   77.6857   93.0244 C   0  0  0  0  0  0  0  0  0  0  0  0
   65.9861   78.8428   93.3977 C   0  0  0  0  0  0  0  0  0  0  0  0
   66.1465   80.0308   92.6795 C   0  0  0  0  0  0  0  0  0  0  0  0
   67.0121   80.0789   91.5827 C   0  0  0  0  0  0  0  0  0  0  0  0
   67.7355   78.9386   91.2031 C   0  0  0  0  0  0  0  0  0  0  0  0
   67.5647   77.7423   91.9194 C   0  0  0  0  0  0  0  0  0  0  0  0
   67.0094   74.0412   94.0788 C   0  0  0  0  0  0  0  0  0  0  0  0
   66.1887   74.0312   95.2173 C   0  0  0  0  0  0  0  0  0  0  0  0
   65.5459   75.1963   95.6405 C   0  0  0  0  0  0  0  0  0  0  0  0
   65.7118   76.3856   94.9301 C   0  0  0  0  0  0  0  0  0  0  0  0
   66.5190   76.4205   93.7807 C   0  0  0  0  0  0  0  0  0  0  0  0
   67.1638   75.2428   93.3601 C   0  0  0  0  0  0  0  0  0  0  0  0
   67.6664   72.8227   93.6831 N   0  0  0  0  0  0  0  0  0  0  0  0
   67.1152   72.0105   93.6071 H   0  0  0  0  0  0  0  0  0  0  0  0
   69.3614   72.6819   93.3301 S   0  0  0  0  0  0  0  0  0  0  0  0
   69.7699   71.2444   93.4986 O   0  0  0  0  0  0  0  0  0  0  0  0
   70.1532   73.5171   94.2958 O   0  0  0  0  0  0  0  0  0  0  0  0
   68.5039   72.8344   90.7421 C   0  0  0  0  0  0  0  0  0  0  0  0
   69.6863   73.1956   91.6434 C   0  0  0  0  0  0  0  0  0  0  0  0
   69.9667   74.7009   91.5946 C   0  0  0  0  0  0  0  0  0  0  0  0
   68.6196   78.9770   89.9910 C   0  0  0  0  0  0  0  0  0  0  0  0
   69.7957   79.7229   90.2963 O   0  0  0  0  0  0  0  0  0  0  0  0
   70.1193   80.9736   89.7489 C   0  0  0  0  0  0  0  0  0  0  0  0
   70.8980   81.8721   90.3720 C   0  0  0  0  0  0  0  0  0  0  0  0
   71.2433   83.1874   89.7752 C   0  0  0  0  0  0  0  0  0  0  0  0
   70.2624   84.0982   89.6337 C   0  0  0  0  0  0  0  0  0  0  0  0
   70.4371   85.3281   88.9983 O   0  0  0  0  0  0  0  0  0  0  0  0
   71.2731   85.5569   88.6421 H   0  0  0  0  0  0  0  0  0  0  0  0
   72.6270   83.4659   89.3301 C   0  0  0  0  0  0  0  0  0  0  0  0
   72.8315   83.9632   88.1902 O   0  0  0  0  0  0  0  0  0  0  0  0
   73.7078   83.1446   90.1460 O   0  0  0  0  0  0  0  0  0  0  0  0
   73.5609   82.7747   90.9942 H   0  0  0  0  0  0  0  0  0  0  0  0
  1  2  2  0  0  0  0
  2  3  1  0  0  0  0
  3  4  2  0  0  0  0
  4  5  1  0  0  0  0
  5 21  1  0  0  0  0
  5  6  2  0  0  0  0
  6  1  1  0  0  0  0
  7  8  2  0  0  0  0
  8  9  1  0  0  0  0
  9 10  2  0  0  0  0
 10 11  1  0  0  0  0
 11  1  1  0  0  0  0
 11 12  2  0  0  0  0
 12  7  1  0  0  0  0
 13  7  1  0  0  0  0
 13 14  1  0  0  0  0
 15 16  2  0  0  0  0
 15 17  2  0  0  0  0
 15 13  1  0  0  0  0
 18 19  1  0  0  0  0
 19 20  1  0  0  0  0
 19 15  1  0  0  0  0
 21 22  1  0  0  0  0
 22 23  1  0  0  0  0
 23 24  2  0  0  0  0
 24 25  1  0  0  0  0
 25 26  2  0  0  0  0
 25 29  1  0  0  0  0
 26 27  1  0  0  0  0
 27 28  1  0  0  0  0
 29 30  2  0  0  0  0
 29 31  1  0  0  0  0
 31 32  1  0  0  0  0
M  END
>  <Activity>
8.6

>  <minimizedAffinity>
-7.60131

>  <RFScoreVS_v2>
5.9711243559

$$$$
HIPS6566
 OpenBabel05252300073D

 32 33  0  0  0  0  0  0  0  0999 V2000
   66.4605   77.3012   93.6098 C   0  0  0  0  0  0  0  0  0  0  0  0
   65.4818   78.2247   94.0198 C   0  0  0  0  0  0  0  0  0  0  0  0
   65.3055   79.4228   93.3224 C   0  0  0  0  0  0  0  0  0  0  0  0
   66.1009   79.7133   92.2100 C   0  0  0  0  0  0  0  0  0  0  0  0
   67.0903   78.8103   91.7936 C   0  0  0  0  0  0  0  0  0  0  0  0
   67.2588   77.6016   92.4892 C   0  0  0  0  0  0  0  0  0  0  0  0
   68.0277   74.0905   94.9249 C   0  0  0  0  0  0  0  0  0  0  0  0
   66.9889   73.6120   95.7382 C   0  0  0  0  0  0  0  0  0  0  0  0
   65.7963   74.3276   95.8626 C   0  0  0  0  0  0  0  0  0  0  0  0
   65.6247   75.5286   95.1735 C   0  0  0  0  0  0  0  0  0  0  0  0
   66.6445   76.0244   94.3440 C   0  0  0  0  0  0  0  0  0  0  0  0
   67.8436   75.2981   94.2235 C   0  0  0  0  0  0  0  0  0  0  0  0
   69.2475   73.3309   94.8343 N   0  0  0  0  0  0  0  0  0  0  0  0
   69.6519   73.0145   95.6742 H   0  0  0  0  0  0  0  0  0  0  0  0
   70.0573   72.9325   93.3500 S   0  0  0  0  0  0  0  0  0  0  0  0
   71.3048   72.1584   93.6756 O   0  0  0  0  0  0  0  0  0  0  0  0
   70.4532   74.1917   92.6326 O   0  0  0  0  0  0  0  0  0  0  0  0
   68.4338   72.7648   91.1607 C   0  0  0  0  0  0  0  0  0  0  0  0
   68.9916   71.9292   92.3146 C   0  0  0  0  0  0  0  0  0  0  0  0
   69.7614   70.7156   91.7840 C   0  0  0  0  0  0  0  0  0  0  0  0
   67.9034   79.0981   90.5655 C   0  0  0  0  0  0  0  0  0  0  0  0
   68.6432   77.9314   90.2131 O   0  0  0  0  0  0  0  0  0  0  0  0
   68.3430   77.0839   89.1359 C   0  0  0  0  0  0  0  0  0  0  0  0
   67.2320   76.3329   89.0759 C   0  0  0  0  0  0  0  0  0  0  0  0
   66.9202   75.4498   87.9233 C   0  0  0  0  0  0  0  0  0  0  0  0
   66.7324   74.1382   88.1603 C   0  0  0  0  0  0  0  0  0  0  0  0
   66.5335   73.1928   87.1534 O   0  0  0  0  0  0  0  0  0  0  0  0
   66.5258   73.4596   86.2552 H   0  0  0  0  0  0  0  0  0  0  0  0
   66.8457   76.0065   86.5541 C   0  0  0  0  0  0  0  0  0  0  0  0
   67.2140   75.3081   85.5717 O   0  0  0  0  0  0  0  0  0  0  0  0
   66.4095   77.3118   86.3469 O   0  0  0  0  0  0  0  0  0  0  0  0
   66.1346   77.8350   87.0740 H   0  0  0  0  0  0  0  0  0  0  0  0
  1  2  2  0  0  0  0
  2  3  1  0  0  0  0
  3  4  2  0  0  0  0
  4  5  1  0  0  0  0
  5 21  1  0  0  0  0
  5  6  2  0  0  0  0
  6  1  1  0  0  0  0
  7  8  2  0  0  0  0
  8  9  1  0  0  0  0
  9 10  2  0  0  0  0
 10 11  1  0  0  0  0
 11  1  1  0  0  0  0
 11 12  2  0  0  0  0
 12  7  1  0  0  0  0
 13  7  1  0  0  0  0
 13 14  1  0  0  0  0
 15 16  2  0  0  0  0
 15 17  2  0  0  0  0
 15 13  1  0  0  0  0
 18 19  1  0  0  0  0
 19 20  1  0  0  0  0
 19 15  1  0  0  0  0
 21 22  1  0  0  0  0
 22 23  1  0  0  0  0
 23 24  2  0  0  0  0
 24 25  1  0  0  0  0
 25 26  2  0  0  0  0
 25 29  1  0  0  0  0
 26 27  1  0  0  0  0
 27 28  1  0  0  0  0
 29 30  2  0  0  0  0
 29 31  1  0  0  0  0
 31 32  1  0  0  0  0
M  END
>  <Activity>
8.6

>  <minimizedAffinity>
-7.59075

>  <RFScoreVS_v2>
5.97155443974

$$$$
HIPS6295
 OpenBabel05252300073D

 36 39  0  0  0  0  0  0  0  0999 V2000
   69.7455   79.1482   90.1025 C   0  0  0  0  0  0  0  0  0  0  0  0
   68.5278   79.8415   90.0389 C   0  0  0  0  0  0  0  0  0  0  0  0
   67.3179   79.1422   90.0412 C   0  0  0  0  0  0  0  0  0  0  0  0
   65.7998   80.0183   89.9762 Cl  0  0  0  0  0  0  0  0  0  0  0  0
   67.3161   77.7464   90.1141 C   0  0  0  0  0  0  0  0  0  0  0  0
   68.5276   77.0369   90.1642 C   0  0  0  0  0  0  0  0  0  0  0  0
   69.7402   77.7451   90.1411 C   0  0  0  0  0  0  0  0  0  0  0  0
   68.5299   75.5646   90.3120 C   0  0  0  0  0  0  0  0  0  0  0  0
   69.2985   74.9454   91.3108 C   0  0  0  0  0  0  0  0  0  0  0  0
   69.2570   73.5584   91.4712 C   0  0  0  0  0  0  0  0  0  0  0  0
   68.4277   72.7819   90.6579 C   0  0  0  0  0  0  0  0  0  0  0  0
   67.6337   73.3831   89.6750 C   0  0  0  0  0  0  0  0  0  0  0  0
   67.7151   74.7755   89.4844 C   0  0  0  0  0  0  0  0  0  0  0  0
   66.7657   72.5702   88.9273 O   0  0  0  0  0  0  0  0  0  0  0  0
   66.3841   72.8074   87.5702 C   0  0  0  0  0  0  0  0  0  0  0  0
   66.9052   71.7170   86.6685 C   0  0  0  0  0  0  0  0  0  0  0  0
   66.5749   71.7157   85.3038 C   0  0  0  0  0  0  0  0  0  0  0  0
   67.0812   70.7246   84.4576 C   0  0  0  0  0  0  0  0  0  0  0  0
   67.9166   69.7269   84.9670 C   0  0  0  0  0  0  0  0  0  0  0  0
   68.2436   69.7144   86.3267 C   0  0  0  0  0  0  0  0  0  0  0  0
   69.3018   68.4685   86.9640 Cl  0  0  0  0  0  0  0  0  0  0  0  0
   67.7325   70.7010   87.1777 C   0  0  0  0  0  0  0  0  0  0  0  0
   71.0403   79.9130   90.1700 C   0  0  0  0  0  0  0  0  0  0  0  0
   70.7933   81.2848   90.4830 O   0  0  0  0  0  0  0  0  0  0  0  0
   70.7926   84.1342   88.1079 C   0  0  0  0  0  0  0  0  0  0  0  0
   70.3887   83.0195   88.8667 C   0  0  0  0  0  0  0  0  0  0  0  0
   71.2689   82.3855   89.7503 C   0  0  0  0  0  0  0  0  0  0  0  0
   72.5842   82.8653   89.8696 C   0  0  0  0  0  0  0  0  0  0  0  0
   73.0016   83.9661   89.1210 C   0  0  0  0  0  0  0  0  0  0  0  0
   72.1196   84.6039   88.2385 C   0  0  0  0  0  0  0  0  0  0  0  0
   72.5667   85.6962   87.4948 O   0  0  0  0  0  0  0  0  0  0  0  0
   73.4485   85.9984   87.5900 H   0  0  0  0  0  0  0  0  0  0  0  0
   68.5883   84.8134   87.4751 O   0  0  0  0  0  0  0  0  0  0  0  0
   69.8166   84.7817   87.1942 C   0  0  0  0  0  0  0  0  0  0  0  0
   70.2519   85.3619   86.0050 O   0  0  0  0  0  0  0  0  0  0  0  0
   71.1619   85.3465   85.7819 H   0  0  0  0  0  0  0  0  0  0  0  0
  1  2  2  0  0  0  0
  2  3  1  0  0  0  0
  3  4  1  0  0  0  0
  3  5  2  0  0  0  0
  5  6  1  0  0  0  0
  6  8  1  0  0  0  0
  6  7  2  0  0  0  0
  7  1  1  0  0  0  0
  8  9  2  0  0  0  0
  9 10  1  0  0  0  0
 10 11  2  0  0  0  0
 11 12  1  0  0  0  0
 12 14  1  0  0  0  0
 12 13  2  0  0  0  0
 13  8  1  0  0  0  0
 14 15  1  0  0  0  0
 15 16  1  0  0  0  0
 16 17  2  0  0  0  0
 17 18  1  0  0  0  0
 18 19  2  0  0  0  0
 19 20  1  0  0  0  0
 20 21  1  0  0  0  0
 20 22  2  0  0  0  0
 22 16  1  0  0  0  0
 23  1  1  0  0  0  0
 24 23  1  0  0  0  0
 25 26  2  0  0  0  0
 26 27  1  0  0  0  0
 27 24  1  0  0  0  0
 27 28  2  0  0  0  0
 28 29  1  0  0  0  0
 29 30  2  0  0  0  0
 30 31  1  0  0  0  0
 30 25  1  0  0  0  0
 31 32  1  0  0  0  0
 33 34  2  0  0  0  0
 34 35  1  0  0  0  0
 34 25  1  0  0  0  0
 35 36  1  0  0  0  0
M  END
>  <Activity>
14.5

>  <minimizedAffinity>
-10.16083

>  <RFScoreVS_v2>
5.99811656869

$$$$
HIPS6295
 OpenBabel05252300073D

 36 39  0  0  0  0  0  0  0  0999 V2000
   69.8801   79.0455   90.1266 C   0  0  0  0  0  0  0  0  0  0  0  0
   68.6435   79.6645   89.8916 C   0  0  0  0  0  0  0  0  0  0  0  0
   67.4666   78.9109   89.8934 C   0  0  0  0  0  0  0  0  0  0  0  0
   65.9234   79.6958   89.6130 Cl  0  0  0  0  0  0  0  0  0  0  0  0
   67.5164   77.5354   90.1371 C   0  0  0  0  0  0  0  0  0  0  0  0
   68.7485   76.8985   90.3603 C   0  0  0  0  0  0  0  0  0  0  0  0
   69.9293   77.6586   90.3370 C   0  0  0  0  0  0  0  0  0  0  0  0
   68.7998   75.4564   90.6878 C   0  0  0  0  0  0  0  0  0  0  0  0
   68.0385   74.5282   89.9594 C   0  0  0  0  0  0  0  0  0  0  0  0
   68.1299   73.1643   90.2467 C   0  0  0  0  0  0  0  0  0  0  0  0
   69.0018   72.7129   91.2408 C   0  0  0  0  0  0  0  0  0  0  0  0
   69.7889   73.6198   91.9591 C   0  0  0  0  0  0  0  0  0  0  0  0
   69.6579   74.9972   91.7000 C   0  0  0  0  0  0  0  0  0  0  0  0
   70.6996   73.1142   92.9016 O   0  0  0  0  0  0  0  0  0  0  0  0
   70.3606   72.2526   93.9907 C   0  0  0  0  0  0  0  0  0  0  0  0
   71.1759   70.9851   93.9453 C   0  0  0  0  0  0  0  0  0  0  0  0
   70.9584   69.9750   94.8960 C   0  0  0  0  0  0  0  0  0  0  0  0
   71.6900   68.7849   94.8391 C   0  0  0  0  0  0  0  0  0  0  0  0
   72.6451   68.5959   93.8367 C   0  0  0  0  0  0  0  0  0  0  0  0
   72.8754   69.6000   92.8909 C   0  0  0  0  0  0  0  0  0  0  0  0
   74.0663   69.3580   91.6255 Cl  0  0  0  0  0  0  0  0  0  0  0  0
   72.1498   70.7953   92.9495 C   0  0  0  0  0  0  0  0  0  0  0  0
   71.1334   79.8767   90.1918 C   0  0  0  0  0  0  0  0  0  0  0  0
   70.8127   81.2418   90.4647 O   0  0  0  0  0  0  0  0  0  0  0  0
   70.7966   84.1237   88.1291 C   0  0  0  0  0  0  0  0  0  0  0  0
   70.3963   83.0012   88.8783 C   0  0  0  0  0  0  0  0  0  0  0  0
   71.2849   82.3495   89.7403 C   0  0  0  0  0  0  0  0  0  0  0  0
   72.6049   82.8194   89.8473 C   0  0  0  0  0  0  0  0  0  0  0  0
   73.0187   83.9277   89.1080 C   0  0  0  0  0  0  0  0  0  0  0  0
   72.1283   84.5832   88.2471 C   0  0  0  0  0  0  0  0  0  0  0  0
   72.5718   85.6828   87.5122 O   0  0  0  0  0  0  0  0  0  0  0  0
   73.4568   85.9781   87.5988 H   0  0  0  0  0  0  0  0  0  0  0  0
   68.6018   84.8961   87.5748 O   0  0  0  0  0  0  0  0  0  0  0  0
   69.8119   84.7899   87.2384 C   0  0  0  0  0  0  0  0  0  0  0  0
   70.2183   85.3049   86.0097 O   0  0  0  0  0  0  0  0  0  0  0  0
   71.1143   85.2338   85.7452 H   0  0  0  0  0  0  0  0  0  0  0  0
  1  2  2  0  0  0  0
  2  3  1  0  0  0  0
  3  4  1  0  0  0  0
  3  5  2  0  0  0  0
  5  6  1  0  0  0  0
  6  8  1  0  0  0  0
  6  7  2  0  0  0  0
  7  1  1  0  0  0  0
  8  9  2  0  0  0  0
  9 10  1  0  0  0  0
 10 11  2  0  0  0  0
 11 12  1  0  0  0  0
 12 14  1  0  0  0  0
 12 13  2  0  0  0  0
 13  8  1  0  0  0  0
 14 15  1  0  0  0  0
 15 16  1  0  0  0  0
 16 17  2  0  0  0  0
 17 18  1  0  0  0  0
 18 19  2  0  0  0  0
 19 20  1  0  0  0  0
 20 21  1  0  0  0  0
 20 22  2  0  0  0  0
 22 16  1  0  0  0  0
 23  1  1  0  0  0  0
 24 23  1  0  0  0  0
 25 26  2  0  0  0  0
 26 27  1  0  0  0  0
 27 24  1  0  0  0  0
 27 28  2  0  0  0  0
 28 29  1  0  0  0  0
 29 30  2  0  0  0  0
 30 31  1  0  0  0  0
 30 25  1  0  0  0  0
 31 32  1  0  0  0  0
 33 34  2  0  0  0  0
 34 35  1  0  0  0  0
 34 25  1  0  0  0  0
 35 36  1  0  0  0  0
M  END
>  <Activity>
14.5

>  <minimizedAffinity>
-9.79209

>  <RFScoreVS_v2>
6.0089322268

$$$$
HIPS6295
 OpenBabel05252300073D

 36 39  0  0  0  0  0  0  0  0999 V2000
   68.7547   74.8310   91.0152 C   0  0  0  0  0  0  0  0  0  0  0  0
   68.1442   73.8041   90.2800 C   0  0  0  0  0  0  0  0  0  0  0  0
   67.3774   74.1056   89.1513 C   0  0  0  0  0  0  0  0  0  0  0  0
   66.6299   72.8140   88.2296 Cl  0  0  0  0  0  0  0  0  0  0  0  0
   67.2212   75.4340   88.7454 C   0  0  0  0  0  0  0  0  0  0  0  0
   67.8146   76.4746   89.4791 C   0  0  0  0  0  0  0  0  0  0  0  0
   68.5671   76.1659   90.6241 C   0  0  0  0  0  0  0  0  0  0  0  0
   67.7105   77.8755   89.0140 C   0  0  0  0  0  0  0  0  0  0  0  0
   66.8291   78.2233   87.9778 C   0  0  0  0  0  0  0  0  0  0  0  0
   66.7048   79.5561   87.5782 C   0  0  0  0  0  0  0  0  0  0  0  0
   67.4350   80.5549   88.2275 C   0  0  0  0  0  0  0  0  0  0  0  0
   68.2980   80.2317   89.2804 C   0  0  0  0  0  0  0  0  0  0  0  0
   68.4570   78.8820   89.6475 C   0  0  0  0  0  0  0  0  0  0  0  0
   68.9595   81.2763   89.9471 O   0  0  0  0  0  0  0  0  0  0  0  0
   70.3485   81.2850   90.2850 C   0  0  0  0  0  0  0  0  0  0  0  0
   71.0739   82.3788   89.5428 C   0  0  0  0  0  0  0  0  0  0  0  0
   72.4082   82.6787   89.8608 C   0  0  0  0  0  0  0  0  0  0  0  0
   73.0948   83.6706   89.1541 C   0  0  0  0  0  0  0  0  0  0  0  0
   72.4547   84.3720   88.1289 C   0  0  0  0  0  0  0  0  0  0  0  0
   71.1229   84.0869   87.8112 C   0  0  0  0  0  0  0  0  0  0  0  0
   70.3229   84.9595   86.5163 Cl  0  0  0  0  0  0  0  0  0  0  0  0
   70.4307   83.0996   88.5216 C   0  0  0  0  0  0  0  0  0  0  0  0
   69.6354   74.4911   92.1877 C   0  0  0  0  0  0  0  0  0  0  0  0
   69.1502   73.3243   92.8540 O   0  0  0  0  0  0  0  0  0  0  0  0
   71.7411   70.7058   93.2912 C   0  0  0  0  0  0  0  0  0  0  0  0
   71.0734   71.9450   93.2833 C   0  0  0  0  0  0  0  0  0  0  0  0
   69.7571   72.0573   92.8225 C   0  0  0  0  0  0  0  0  0  0  0  0
   69.0973   70.9115   92.3470 C   0  0  0  0  0  0  0  0  0  0  0  0
   69.7466   69.6767   92.3436 C   0  0  0  0  0  0  0  0  0  0  0  0
   71.0637   69.5627   92.8083 C   0  0  0  0  0  0  0  0  0  0  0  0
   71.6923   68.3176   92.7840 O   0  0  0  0  0  0  0  0  0  0  0  0
   71.2331   67.5672   92.4616 H   0  0  0  0  0  0  0  0  0  0  0  0
   73.4109   69.9692   94.8370 O   0  0  0  0  0  0  0  0  0  0  0  0
   73.1336   70.6355   93.8038 C   0  0  0  0  0  0  0  0  0  0  0  0
   74.1555   71.3147   93.1444 O   0  0  0  0  0  0  0  0  0  0  0  0
   73.9654   71.8144   92.3749 H   0  0  0  0  0  0  0  0  0  0  0  0
  1  2  2  0  0  0  0
  2  3  1  0  0  0  0
  3  4  1  0  0  0  0
  3  5  2  0  0  0  0
  5  6  1  0  0  0  0
  6  8  1  0  0  0  0
  6  7  2  0  0  0  0
  7  1  1  0  0  0  0
  8  9  2  0  0  0  0
  9 10  1  0  0  0  0
 10 11  2  0  0  0  0
 11 12  1  0  0  0  0
 12 14  1  0  0  0  0
 12 13  2  0  0  0  0
 13  8  1  0  0  0  0
 14 15  1  0  0  0  0
 15 16  1  0  0  0  0
 16 17  2  0  0  0  0
 17 18  1  0  0  0  0
 18 19  2  0  0  0  0
 19 20  1  0  0  0  0
 20 21  1  0  0  0  0
 20 22  2  0  0  0  0
 22 16  1  0  0  0  0
 23  1  1  0  0  0  0
 24 23  1  0  0  0  0
 25 26  2  0  0  0  0
 26 27  1  0  0  0  0
 27 24  1  0  0  0  0
 27 28  2  0  0  0  0
 28 29  1  0  0  0  0
 29 30  2  0  0  0  0
 30 31  1  0  0  0  0
 30 25  1  0  0  0  0
 31 32  1  0  0  0  0
 33 34  2  0  0  0  0
 34 35  1  0  0  0  0
 34 25  1  0  0  0  0
 35 36  1  0  0  0  0
M  END
>  <Activity>
14.5

>  <minimizedAffinity>
-9.73758

>  <RFScoreVS_v2>
6.01783886513

$$$$
HIPS6295
 OpenBabel05252300073D

 36 39  0  0  0  0  0  0  0  0999 V2000
   70.3020   78.3444   90.6471 C   0  0  0  0  0  0  0  0  0  0  0  0
   68.9117   78.3013   90.4662 C   0  0  0  0  0  0  0  0  0  0  0  0
   68.2237   79.4332   90.0206 C   0  0  0  0  0  0  0  0  0  0  0  0
   66.4872   79.3657   89.7832 Cl  0  0  0  0  0  0  0  0  0  0  0  0
   68.9207   80.6132   89.7460 C   0  0  0  0  0  0  0  0  0  0  0  0
   70.3113   80.6764   89.9355 C   0  0  0  0  0  0  0  0  0  0  0  0
   70.9935   79.5413   90.4030 C   0  0  0  0  0  0  0  0  0  0  0  0
   71.0626   81.9006   89.5798 C   0  0  0  0  0  0  0  0  0  0  0  0
   72.3401   82.1379   90.1122 C   0  0  0  0  0  0  0  0  0  0  0  0
   73.0596   83.2738   89.7334 C   0  0  0  0  0  0  0  0  0  0  0  0
   72.5244   84.1651   88.7999 C   0  0  0  0  0  0  0  0  0  0  0  0
   71.2646   83.9317   88.2376 C   0  0  0  0  0  0  0  0  0  0  0  0
   70.5224   82.8120   88.6584 C   0  0  0  0  0  0  0  0  0  0  0  0
   70.7970   84.8186   87.2537 O   0  0  0  0  0  0  0  0  0  0  0  0
   69.5526   85.5202   87.3055 C   0  0  0  0  0  0  0  0  0  0  0  0
   69.4930   86.4173   88.5159 C   0  0  0  0  0  0  0  0  0  0  0  0
   70.0557   87.7027   88.4665 C   0  0  0  0  0  0  0  0  0  0  0  0
   69.9753   88.5498   89.5759 C   0  0  0  0  0  0  0  0  0  0  0  0
   69.3369   88.1196   90.7422 C   0  0  0  0  0  0  0  0  0  0  0  0
   68.7817   86.8375   90.8042 C   0  0  0  0  0  0  0  0  0  0  0  0
   67.9701   86.3017   92.2644 Cl  0  0  0  0  0  0  0  0  0  0  0  0
   68.8669   85.9846   89.6978 C   0  0  0  0  0  0  0  0  0  0  0  0
   71.0425   77.1006   91.0601 C   0  0  0  0  0  0  0  0  0  0  0  0
   70.4221   76.5069   92.2017 O   0  0  0  0  0  0  0  0  0  0  0  0
   67.8996   74.0546   93.3781 C   0  0  0  0  0  0  0  0  0  0  0  0
   68.8191   75.1197   93.3382 C   0  0  0  0  0  0  0  0  0  0  0  0
   69.5286   75.4228   92.1710 C   0  0  0  0  0  0  0  0  0  0  0  0
   69.3265   74.6383   91.0229 C   0  0  0  0  0  0  0  0  0  0  0  0
   68.4223   73.5761   91.0473 C   0  0  0  0  0  0  0  0  0  0  0  0
   67.7086   73.2742   92.2149 C   0  0  0  0  0  0  0  0  0  0  0  0
   66.8185   72.2001   92.2140 O   0  0  0  0  0  0  0  0  0  0  0  0
   66.7003   71.6902   91.4369 H   0  0  0  0  0  0  0  0  0  0  0  0
   67.7739   73.5011   95.7016 O   0  0  0  0  0  0  0  0  0  0  0  0
   67.1600   73.7817   94.6372 C   0  0  0  0  0  0  0  0  0  0  0  0
   65.7680   73.8294   94.6537 O   0  0  0  0  0  0  0  0  0  0  0  0
   65.2970   74.0366   93.8706 H   0  0  0  0  0  0  0  0  0  0  0  0
  1  2  2  0  0  0  0
  2  3  1  0  0  0  0
  3  4  1  0  0  0  0
  3  5  2  0  0  0  0
  5  6  1  0  0  0  0
  6  8  1  0  0  0  0
  6  7  2  0  0  0  0
  7  1  1  0  0  0  0
  8  9  2  0  0  0  0
  9 10  1  0  0  0  0
 10 11  2  0  0  0  0
 11 12  1  0  0  0  0
 12 14  1  0  0  0  0
 12 13  2  0  0  0  0
 13  8  1  0  0  0  0
 14 15  1  0  0  0  0
 15 16  1  0  0  0  0
 16 17  2  0  0  0  0
 17 18  1  0  0  0  0
 18 19  2  0  0  0  0
 19 20  1  0  0  0  0
 20 21  1  0  0  0  0
 20 22  2  0  0  0  0
 22 16  1  0  0  0  0
 23  1  1  0  0  0  0
 24 23  1  0  0  0  0
 25 26  2  0  0  0  0
 26 27  1  0  0  0  0
 27 24  1  0  0  0  0
 27 28  2  0  0  0  0
 28 29  1  0  0  0  0
 29 30  2  0  0  0  0
 30 31  1  0  0  0  0
 30 25  1  0  0  0  0
 31 32  1  0  0  0  0
 33 34  2  0  0  0  0
 34 35  1  0  0  0  0
 34 25  1  0  0  0  0
 35 36  1  0  0  0  0
M  END
>  <Activity>
14.5

>  <minimizedAffinity>
-9.64167

>  <RFScoreVS_v2>
6.03478330761

$$$$
HIPS6295
 OpenBabel05252300073D

 36 39  0  0  0  0  0  0  0  0999 V2000
   68.2982   77.6742   90.5678 C   0  0  0  0  0  0  0  0  0  0  0  0
   69.6572   77.3859   90.3743 C   0  0  0  0  0  0  0  0  0  0  0  0
   70.5603   78.4113   90.0812 C   0  0  0  0  0  0  0  0  0  0  0  0
   72.2603   78.0433   89.8554 Cl  0  0  0  0  0  0  0  0  0  0  0  0
   70.1132   79.7322   89.9865 C   0  0  0  0  0  0  0  0  0  0  0  0
   68.7529   80.0353   90.1638 C   0  0  0  0  0  0  0  0  0  0  0  0
   67.8476   78.9972   90.4381 C   0  0  0  0  0  0  0  0  0  0  0  0
   68.2864   81.4393   90.1339 C   0  0  0  0  0  0  0  0  0  0  0  0
   68.2157   82.1966   91.3142 C   0  0  0  0  0  0  0  0  0  0  0  0
   67.8183   83.5350   91.2680 C   0  0  0  0  0  0  0  0  0  0  0  0
   67.5174   84.1363   90.0431 C   0  0  0  0  0  0  0  0  0  0  0  0
   67.6083   83.4058   88.8531 C   0  0  0  0  0  0  0  0  0  0  0  0
   67.9619   82.0444   88.9091 C   0  0  0  0  0  0  0  0  0  0  0  0
   67.3618   84.0704   87.6403 O   0  0  0  0  0  0  0  0  0  0  0  0
   68.3248   84.2696   86.6029 C   0  0  0  0  0  0  0  0  0  0  0  0
   69.6026   84.8438   87.1606 C   0  0  0  0  0  0  0  0  0  0  0  0
   70.7833   84.0843   87.1378 C   0  0  0  0  0  0  0  0  0  0  0  0
   71.9774   84.6241   87.6251 C   0  0  0  0  0  0  0  0  0  0  0  0
   72.0012   85.9225   88.1412 C   0  0  0  0  0  0  0  0  0  0  0  0
   70.8283   86.6833   88.1768 C   0  0  0  0  0  0  0  0  0  0  0  0
   70.8606   88.3176   88.8142 Cl  0  0  0  0  0  0  0  0  0  0  0  0
   69.6298   86.1432   87.6964 C   0  0  0  0  0  0  0  0  0  0  0  0
   67.3462   76.5732   90.9517 C   0  0  0  0  0  0  0  0  0  0  0  0
   66.8223   76.8012   92.2611 O   0  0  0  0  0  0  0  0  0  0  0  0
   68.1567   74.1926   94.5359 C   0  0  0  0  0  0  0  0  0  0  0  0
   68.0311   75.1191   93.4837 C   0  0  0  0  0  0  0  0  0  0  0  0
   66.8730   75.8887   93.3285 C   0  0  0  0  0  0  0  0  0  0  0  0
   65.8121   75.7209   94.2345 C   0  0  0  0  0  0  0  0  0  0  0  0
   65.9188   74.8034   95.2800 C   0  0  0  0  0  0  0  0  0  0  0  0
   67.0798   74.0348   95.4382 C   0  0  0  0  0  0  0  0  0  0  0  0
   67.1554   73.1176   96.4865 O   0  0  0  0  0  0  0  0  0  0  0  0
   66.4352   73.0219   97.0782 H   0  0  0  0  0  0  0  0  0  0  0  0
   69.6471   72.7297   95.7018 O   0  0  0  0  0  0  0  0  0  0  0  0
   69.4122   73.4094   94.6667 C   0  0  0  0  0  0  0  0  0  0  0  0
   70.3530   73.4216   93.6396 O   0  0  0  0  0  0  0  0  0  0  0  0
   70.1930   73.9220   92.8637 H   0  0  0  0  0  0  0  0  0  0  0  0
  1  2  2  0  0  0  0
  2  3  1  0  0  0  0
  3  4  1  0  0  0  0
  3  5  2  0  0  0  0
  5  6  1  0  0  0  0
  6  8  1  0  0  0  0
  6  7  2  0  0  0  0
  7  1  1  0  0  0  0
  8  9  2  0  0  0  0
  9 10  1  0  0  0  0
 10 11  2  0  0  0  0
 11 12  1  0  0  0  0
 12 14  1  0  0  0  0
 12 13  2  0  0  0  0
 13  8  1  0  0  0  0
 14 15  1  0  0  0  0
 15 16  1  0  0  0  0
 16 17  2  0  0  0  0
 17 18  1  0  0  0  0
 18 19  2  0  0  0  0
 19 20  1  0  0  0  0
 20 21  1  0  0  0  0
 20 22  2  0  0  0  0
 22 16  1  0  0  0  0
 23  1  1  0  0  0  0
 24 23  1  0  0  0  0
 25 26  2  0  0  0  0
 26 27  1  0  0  0  0
 27 24  1  0  0  0  0
 27 28  2  0  0  0  0
 28 29  1  0  0  0  0
 29 30  2  0  0  0  0
 30 31  1  0  0  0  0
 30 25  1  0  0  0  0
 31 32  1  0  0  0  0
 33 34  2  0  0  0  0
 34 35  1  0  0  0  0
 34 25  1  0  0  0  0
 35 36  1  0  0  0  0
M  END
>  <Activity>
14.5

>  <minimizedAffinity>
-9.61627

>  <RFScoreVS_v2>
6.04683603044

$$$$
HIPS6295
 OpenBabel05252300073D

 36 39  0  0  0  0  0  0  0  0999 V2000
   67.1017   75.4660   88.7043 C   0  0  0  0  0  0  0  0  0  0  0  0
   67.0801   75.4168   87.3026 C   0  0  0  0  0  0  0  0  0  0  0  0
   66.9839   76.5953   86.5576 C   0  0  0  0  0  0  0  0  0  0  0  0
   66.9724   76.5252   84.8051 Cl  0  0  0  0  0  0  0  0  0  0  0  0
   66.9158   77.8308   87.2076 C   0  0  0  0  0  0  0  0  0  0  0  0
   66.9222   77.8957   88.6109 C   0  0  0  0  0  0  0  0  0  0  0  0
   66.9986   76.7062   89.3535 C   0  0  0  0  0  0  0  0  0  0  0  0
   66.9210   79.2042   89.3020 C   0  0  0  0  0  0  0  0  0  0  0  0
   65.7169   79.7930   89.7202 C   0  0  0  0  0  0  0  0  0  0  0  0
   65.7309   81.0060   90.4129 C   0  0  0  0  0  0  0  0  0  0  0  0
   66.9451   81.6256   90.7195 C   0  0  0  0  0  0  0  0  0  0  0  0
   68.1568   81.0408   90.3352 C   0  0  0  0  0  0  0  0  0  0  0  0
   68.1363   79.8435   89.5951 C   0  0  0  0  0  0  0  0  0  0  0  0
   69.3535   81.6652   90.7242 O   0  0  0  0  0  0  0  0  0  0  0  0
   70.6538   81.3217   90.2398 C   0  0  0  0  0  0  0  0  0  0  0  0
   71.2674   82.4752   89.4871 C   0  0  0  0  0  0  0  0  0  0  0  0
   72.5492   82.9352   89.8289 C   0  0  0  0  0  0  0  0  0  0  0  0
   73.1350   83.9838   89.1134 C   0  0  0  0  0  0  0  0  0  0  0  0
   72.4456   84.5826   88.0556 C   0  0  0  0  0  0  0  0  0  0  0  0
   71.1646   84.1376   87.7138 C   0  0  0  0  0  0  0  0  0  0  0  0
   70.3038   84.8816   86.3784 Cl  0  0  0  0  0  0  0  0  0  0  0  0
   70.5725   83.0929   88.4328 C   0  0  0  0  0  0  0  0  0  0  0  0
   67.2758   74.1974   89.4957 C   0  0  0  0  0  0  0  0  0  0  0  0
   68.5816   74.1451   90.0727 O   0  0  0  0  0  0  0  0  0  0  0  0
   68.9058   74.4235   93.7575 C   0  0  0  0  0  0  0  0  0  0  0  0
   68.5715   73.9605   92.4709 C   0  0  0  0  0  0  0  0  0  0  0  0
   68.9402   74.6730   91.3246 C   0  0  0  0  0  0  0  0  0  0  0  0
   69.6457   75.8801   91.4652 C   0  0  0  0  0  0  0  0  0  0  0  0
   69.9805   76.3551   92.7335 C   0  0  0  0  0  0  0  0  0  0  0  0
   69.6148   75.6403   93.8819 C   0  0  0  0  0  0  0  0  0  0  0  0
   69.9537   76.1437   95.1380 O   0  0  0  0  0  0  0  0  0  0  0  0
   70.4237   76.9513   95.2078 H   0  0  0  0  0  0  0  0  0  0  0  0
   69.3700   73.1036   95.6974 O   0  0  0  0  0  0  0  0  0  0  0  0
   68.5044   73.6236   94.9431 C   0  0  0  0  0  0  0  0  0  0  0  0
   67.1552   73.4347   95.2338 O   0  0  0  0  0  0  0  0  0  0  0  0
   66.4996   73.8147   94.6827 H   0  0  0  0  0  0  0  0  0  0  0  0
  1  2  2  0  0  0  0
  2  3  1  0  0  0  0
  3  4  1  0  0  0  0
  3  5  2  0  0  0  0
  5  6  1  0  0  0  0
  6  8  1  0  0  0  0
  6  7  2  0  0  0  0
  7  1  1  0  0  0  0
  8  9  2  0  0  0  0
  9 10  1  0  0  0  0
 10 11  2  0  0  0  0
 11 12  1  0  0  0  0
 12 14  1  0  0  0  0
 12 13  2  0  0  0  0
 13  8  1  0  0  0  0
 14 15  1  0  0  0  0
 15 16  1  0  0  0  0
 16 17  2  0  0  0  0
 17 18  1  0  0  0  0
 18 19  2  0  0  0  0
 19 20  1  0  0  0  0
 20 21  1  0  0  0  0
 20 22  2  0  0  0  0
 22 16  1  0  0  0  0
 23  1  1  0  0  0  0
 24 23  1  0  0  0  0
 25 26  2  0  0  0  0
 26 27  1  0  0  0  0
 27 24  1  0  0  0  0
 27 28  2  0  0  0  0
 28 29  1  0  0  0  0
 29 30  2  0  0  0  0
 30 31  1  0  0  0  0
 30 25  1  0  0  0  0
 31 32  1  0  0  0  0
 33 34  2  0  0  0  0
 34 35  1  0  0  0  0
 34 25  1  0  0  0  0
 35 36  1  0  0  0  0
M  END
>  <Activity>
14.5

>  <minimizedAffinity>
-9.57594

>  <RFScoreVS_v2>
6.03890894901

$$$$
HIPS6295
 OpenBabel05252300073D

 36 39  0  0  0  0  0  0  0  0999 V2000
   69.1326   79.1039   89.8712 C   0  0  0  0  0  0  0  0  0  0  0  0
   67.9933   79.9184   89.9495 C   0  0  0  0  0  0  0  0  0  0  0  0
   66.7180   79.3595   89.8303 C   0  0  0  0  0  0  0  0  0  0  0  0
   65.2987   80.3836   89.9441 Cl  0  0  0  0  0  0  0  0  0  0  0  0
   66.5721   77.9826   89.6393 C   0  0  0  0  0  0  0  0  0  0  0  0
   67.7037   77.1554   89.5448 C   0  0  0  0  0  0  0  0  0  0  0  0
   68.9828   77.7267   89.6452 C   0  0  0  0  0  0  0  0  0  0  0  0
   67.5532   75.6893   89.4129 C   0  0  0  0  0  0  0  0  0  0  0  0
   66.8041   75.1372   88.3614 C   0  0  0  0  0  0  0  0  0  0  0  0
   66.7071   73.7509   88.2197 C   0  0  0  0  0  0  0  0  0  0  0  0
   67.3794   72.9056   89.1061 C   0  0  0  0  0  0  0  0  0  0  0  0
   68.1531   73.4369   90.1440 C   0  0  0  0  0  0  0  0  0  0  0  0
   68.2086   74.8334   90.3126 C   0  0  0  0  0  0  0  0  0  0  0  0
   68.8649   72.5500   90.9686 O   0  0  0  0  0  0  0  0  0  0  0  0
   68.3369   71.9063   92.1306 C   0  0  0  0  0  0  0  0  0  0  0  0
   68.2990   72.8577   93.2998 C   0  0  0  0  0  0  0  0  0  0  0  0
   69.4752   73.1444   94.0110 C   0  0  0  0  0  0  0  0  0  0  0  0
   69.4512   74.0499   95.0760 C   0  0  0  0  0  0  0  0  0  0  0  0
   68.2544   74.6722   95.4408 C   0  0  0  0  0  0  0  0  0  0  0  0
   67.0758   74.3859   94.7444 C   0  0  0  0  0  0  0  0  0  0  0  0
   65.5755   75.1759   95.1951 Cl  0  0  0  0  0  0  0  0  0  0  0  0
   67.0952   73.4744   93.6825 C   0  0  0  0  0  0  0  0  0  0  0  0
   70.4982   79.7050   90.0705 C   0  0  0  0  0  0  0  0  0  0  0  0
   70.3882   81.0789   90.4461 O   0  0  0  0  0  0  0  0  0  0  0  0
   70.6127   83.9360   88.0910 C   0  0  0  0  0  0  0  0  0  0  0  0
   70.1292   82.8357   88.8239 C   0  0  0  0  0  0  0  0  0  0  0  0
   70.9416   82.1621   89.7425 C   0  0  0  0  0  0  0  0  0  0  0  0
   72.2686   82.5866   89.9241 C   0  0  0  0  0  0  0  0  0  0  0  0
   72.7646   83.6724   89.2020 C   0  0  0  0  0  0  0  0  0  0  0  0
   71.9506   84.3499   88.2844 C   0  0  0  0  0  0  0  0  0  0  0  0
   72.4755   85.4259   87.5685 O   0  0  0  0  0  0  0  0  0  0  0  0
   73.3638   85.6910   87.7054 H   0  0  0  0  0  0  0  0  0  0  0  0
   68.4633   84.6687   87.3400 O   0  0  0  0  0  0  0  0  0  0  0  0
   69.7067   84.6272   87.1380 C   0  0  0  0  0  0  0  0  0  0  0  0
   70.2260   85.2384   85.9991 O   0  0  0  0  0  0  0  0  0  0  0  0
   71.1482   85.2163   85.8348 H   0  0  0  0  0  0  0  0  0  0  0  0
  1  2  2  0  0  0  0
  2  3  1  0  0  0  0
  3  4  1  0  0  0  0
  3  5  2  0  0  0  0
  5  6  1  0  0  0  0
  6  8  1  0  0  0  0
  6  7  2  0  0  0  0
  7  1  1  0  0  0  0
  8  9  2  0  0  0  0
  9 10  1  0  0  0  0
 10 11  2  0  0  0  0
 11 12  1  0  0  0  0
 12 14  1  0  0  0  0
 12 13  2  0  0  0  0
 13  8  1  0  0  0  0
 14 15  1  0  0  0  0
 15 16  1  0  0  0  0
 16 17  2  0  0  0  0
 17 18  1  0  0  0  0
 18 19  2  0  0  0  0
 19 20  1  0  0  0  0
 20 21  1  0  0  0  0
 20 22  2  0  0  0  0
 22 16  1  0  0  0  0
 23  1  1  0  0  0  0
 24 23  1  0  0  0  0
 25 26  2  0  0  0  0
 26 27  1  0  0  0  0
 27 24  1  0  0  0  0
 27 28  2  0  0  0  0
 28 29  1  0  0  0  0
 29 30  2  0  0  0  0
 30 31  1  0  0  0  0
 30 25  1  0  0  0  0
 31 32  1  0  0  0  0
 33 34  2  0  0  0  0
 34 35  1  0  0  0  0
 34 25  1  0  0  0  0
 35 36  1  0  0  0  0
M  END
>  <Activity>
14.5

>  <minimizedAffinity>
-9.52977

>  <RFScoreVS_v2>
5.99018223861

$$$$
HIPS6295
 OpenBabel05252300073D

 36 39  0  0  0  0  0  0  0  0999 V2000
   68.3404   78.9220   89.6910 C   0  0  0  0  0  0  0  0  0  0  0  0
   67.6052   78.8894   88.4969 C   0  0  0  0  0  0  0  0  0  0  0  0
   67.1890   77.6686   87.9589 C   0  0  0  0  0  0  0  0  0  0  0  0
   66.2575   77.6383   86.4731 Cl  0  0  0  0  0  0  0  0  0  0  0  0
   67.4983   76.4731   88.6137 C   0  0  0  0  0  0  0  0  0  0  0  0
   68.2459   76.4883   89.8030 C   0  0  0  0  0  0  0  0  0  0  0  0
   68.6783   77.7173   90.3273 C   0  0  0  0  0  0  0  0  0  0  0  0
   68.5156   75.2317   90.5365 C   0  0  0  0  0  0  0  0  0  0  0  0
   68.1852   73.9882   89.9741 C   0  0  0  0  0  0  0  0  0  0  0  0
   68.4866   72.8063   90.6550 C   0  0  0  0  0  0  0  0  0  0  0  0
   69.1454   72.8537   91.8863 C   0  0  0  0  0  0  0  0  0  0  0  0
   69.5073   74.0821   92.4503 C   0  0  0  0  0  0  0  0  0  0  0  0
   69.1584   75.2722   91.7841 C   0  0  0  0  0  0  0  0  0  0  0  0
   70.2276   74.0776   93.6562 O   0  0  0  0  0  0  0  0  0  0  0  0
   69.6716   73.8003   94.9436 C   0  0  0  0  0  0  0  0  0  0  0  0
   68.2613   74.3245   95.0425 C   0  0  0  0  0  0  0  0  0  0  0  0
   67.3092   73.6393   95.8142 C   0  0  0  0  0  0  0  0  0  0  0  0
   66.0088   74.1385   95.9344 C   0  0  0  0  0  0  0  0  0  0  0  0
   65.6485   75.3214   95.2835 C   0  0  0  0  0  0  0  0  0  0  0  0
   66.5872   76.0060   94.5051 C   0  0  0  0  0  0  0  0  0  0  0  0
   66.1382   77.4973   93.6974 Cl  0  0  0  0  0  0  0  0  0  0  0  0
   67.8878   75.5050   94.3769 C   0  0  0  0  0  0  0  0  0  0  0  0
   68.7236   80.2448   90.2988 C   0  0  0  0  0  0  0  0  0  0  0  0
   70.0970   80.5358   90.0344 O   0  0  0  0  0  0  0  0  0  0  0  0
   70.2351   83.6639   88.0453 C   0  0  0  0  0  0  0  0  0  0  0  0
   69.8108   82.4364   88.5883 C   0  0  0  0  0  0  0  0  0  0  0  0
   70.5888   81.7506   89.5274 C   0  0  0  0  0  0  0  0  0  0  0  0
   71.8226   82.2941   89.9233 C   0  0  0  0  0  0  0  0  0  0  0  0
   72.2598   83.5073   89.3910 C   0  0  0  0  0  0  0  0  0  0  0  0
   71.4795   84.1966   88.4531 C   0  0  0  0  0  0  0  0  0  0  0  0
   71.9457   85.4027   87.9296 O   0  0  0  0  0  0  0  0  0  0  0  0
   72.7721   85.7458   88.2076 H   0  0  0  0  0  0  0  0  0  0  0  0
   68.2999   83.8312   86.6498 O   0  0  0  0  0  0  0  0  0  0  0  0
   69.3666   84.3609   87.0621 C   0  0  0  0  0  0  0  0  0  0  0  0
   69.7274   85.6163   86.5783 O   0  0  0  0  0  0  0  0  0  0  0  0
   70.5175   86.0234   86.8751 H   0  0  0  0  0  0  0  0  0  0  0  0
  1  2  2  0  0  0  0
  2  3  1  0  0  0  0
  3  4  1  0  0  0  0
  3  5  2  0  0  0  0
  5  6  1  0  0  0  0
  6  8  1  0  0  0  0
  6  7  2  0  0  0  0
  7  1  1  0  0  0  0
  8  9  2  0  0  0  0
  9 10  1  0  0  0  0
 10 11  2  0  0  0  0
 11 12  1  0  0  0  0
 12 14  1  0  0  0  0
 12 13  2  0  0  0  0
 13  8  1  0  0  0  0
 14 15  1  0  0  0  0
 15 16  1  0  0  0  0
 16 17  2  0  0  0  0
 17 18  1  0  0  0  0
 18 19  2  0  0  0  0
 19 20  1  0  0  0  0
 20 21  1  0  0  0  0
 20 22  2  0  0  0  0
 22 16  1  0  0  0  0
 23  1  1  0  0  0  0
 24 23  1  0  0  0  0
 25 26  2  0  0  0  0
 26 27  1  0  0  0  0
 27 24  1  0  0  0  0
 27 28  2  0  0  0  0
 28 29  1  0  0  0  0
 29 30  2  0  0  0  0
 30 31  1  0  0  0  0
 30 25  1  0  0  0  0
 31 32  1  0  0  0  0
 33 34  2  0  0  0  0
 34 35  1  0  0  0  0
 34 25  1  0  0  0  0
 35 36  1  0  0  0  0
M  END
>  <Activity>
14.5

>  <minimizedAffinity>
-9.51464

>  <RFScoreVS_v2>
6.02352145203

$$$$
HIPS6295
 OpenBabel05252300073D

 36 39  0  0  0  0  0  0  0  0999 V2000
   67.1745   75.7730   88.4905 C   0  0  0  0  0  0  0  0  0  0  0  0
   67.0135   75.5859   87.1097 C   0  0  0  0  0  0  0  0  0  0  0  0
   67.0664   76.6783   86.2397 C   0  0  0  0  0  0  0  0  0  0  0  0
   66.8786   76.4330   84.5132 Cl  0  0  0  0  0  0  0  0  0  0  0  0
   67.2876   77.9636   86.7424 C   0  0  0  0  0  0  0  0  0  0  0  0
   67.4368   78.1692   88.1241 C   0  0  0  0  0  0  0  0  0  0  0  0
   67.3623   77.0696   88.9945 C   0  0  0  0  0  0  0  0  0  0  0  0
   67.7407   79.5170   88.6542 C   0  0  0  0  0  0  0  0  0  0  0  0
   68.5280   79.6736   89.8062 C   0  0  0  0  0  0  0  0  0  0  0  0
   68.8473   80.9516   90.2711 C   0  0  0  0  0  0  0  0  0  0  0  0
   68.4096   82.0816   89.5754 C   0  0  0  0  0  0  0  0  0  0  0  0
   67.6470   81.9458   88.4101 C   0  0  0  0  0  0  0  0  0  0  0  0
   67.2866   80.6573   87.9724 C   0  0  0  0  0  0  0  0  0  0  0  0
   67.2871   83.1078   87.7076 O   0  0  0  0  0  0  0  0  0  0  0  0
   67.9991   83.6455   86.5907 C   0  0  0  0  0  0  0  0  0  0  0  0
   69.2066   84.4236   87.0489 C   0  0  0  0  0  0  0  0  0  0  0  0
   70.4864   83.8535   86.9574 C   0  0  0  0  0  0  0  0  0  0  0  0
   71.6121   84.5829   87.3517 C   0  0  0  0  0  0  0  0  0  0  0  0
   71.4688   85.8832   87.8429 C   0  0  0  0  0  0  0  0  0  0  0  0
   70.1972   86.4562   87.9465 C   0  0  0  0  0  0  0  0  0  0  0  0
   70.0184   88.0930   88.5522 Cl  0  0  0  0  0  0  0  0  0  0  0  0
   69.0678   85.7260   87.5594 C   0  0  0  0  0  0  0  0  0  0  0  0
   67.1856   74.5824   89.4115 C   0  0  0  0  0  0  0  0  0  0  0  0
   68.4773   74.4190   89.9995 O   0  0  0  0  0  0  0  0  0  0  0  0
   68.8088   74.4998   93.6933 C   0  0  0  0  0  0  0  0  0  0  0  0
   68.4591   74.1144   92.3854 C   0  0  0  0  0  0  0  0  0  0  0  0
   68.8536   74.8702   91.2760 C   0  0  0  0  0  0  0  0  0  0  0  0
   69.6015   76.0427   91.4765 C   0  0  0  0  0  0  0  0  0  0  0  0
   69.9522   76.4411   92.7667 C   0  0  0  0  0  0  0  0  0  0  0  0
   69.5605   75.6827   93.8780 C   0  0  0  0  0  0  0  0  0  0  0  0
   69.9163   76.1099   95.1574 O   0  0  0  0  0  0  0  0  0  0  0  0
   70.4148   76.8957   95.2673 H   0  0  0  0  0  0  0  0  0  0  0  0
   67.1563   73.4504   95.0676 O   0  0  0  0  0  0  0  0  0  0  0  0
   68.3783   73.6559   94.8376 C   0  0  0  0  0  0  0  0  0  0  0  0
   69.3291   73.0814   95.6781 O   0  0  0  0  0  0  0  0  0  0  0  0
   70.2415   73.2248   95.5204 H   0  0  0  0  0  0  0  0  0  0  0  0
  1  2  2  0  0  0  0
  2  3  1  0  0  0  0
  3  4  1  0  0  0  0
  3  5  2  0  0  0  0
  5  6  1  0  0  0  0
  6  8  1  0  0  0  0
  6  7  2  0  0  0  0
  7  1  1  0  0  0  0
  8  9  2  0  0  0  0
  9 10  1  0  0  0  0
 10 11  2  0  0  0  0
 11 12  1  0  0  0  0
 12 14  1  0  0  0  0
 12 13  2  0  0  0  0
 13  8  1  0  0  0  0
 14 15  1  0  0  0  0
 15 16  1  0  0  0  0
 16 17  2  0  0  0  0
 17 18  1  0  0  0  0
 18 19  2  0  0  0  0
 19 20  1  0  0  0  0
 20 21  1  0  0  0  0
 20 22  2  0  0  0  0
 22 16  1  0  0  0  0
 23  1  1  0  0  0  0
 24 23  1  0  0  0  0
 25 26  2  0  0  0  0
 26 27  1  0  0  0  0
 27 24  1  0  0  0  0
 27 28  2  0  0  0  0
 28 29  1  0  0  0  0
 29 30  2  0  0  0  0
 30 31  1  0  0  0  0
 30 25  1  0  0  0  0
 31 32  1  0  0  0  0
 33 34  2  0  0  0  0
 34 35  1  0  0  0  0
 34 25  1  0  0  0  0
 35 36  1  0  0  0  0
M  END
>  <Activity>
14.5

>  <minimizedAffinity>
-9.49424

>  <RFScoreVS_v2>
6.01533817457

$$$$
HIPS6295
 OpenBabel05252300073D

 36 39  0  0  0  0  0  0  0  0999 V2000
   69.0508   76.9760   92.4012 C   0  0  0  0  0  0  0  0  0  0  0  0
   70.4321   76.7643   92.2805 C   0  0  0  0  0  0  0  0  0  0  0  0
   71.1364   77.3063   91.2020 C   0  0  0  0  0  0  0  0  0  0  0  0
   72.8661   77.0486   91.0671 Cl  0  0  0  0  0  0  0  0  0  0  0  0
   70.4670   78.0691   90.2410 C   0  0  0  0  0  0  0  0  0  0  0  0
   69.0814   78.2785   90.3403 C   0  0  0  0  0  0  0  0  0  0  0  0
   68.3764   77.7139   91.4158 C   0  0  0  0  0  0  0  0  0  0  0  0
   68.3808   79.1428   89.3647 C   0  0  0  0  0  0  0  0  0  0  0  0
   67.3949   78.6136   88.5164 C   0  0  0  0  0  0  0  0  0  0  0  0
   66.7072   79.4478   87.6317 C   0  0  0  0  0  0  0  0  0  0  0  0
   66.9758   80.8188   87.6068 C   0  0  0  0  0  0  0  0  0  0  0  0
   67.9353   81.3693   88.4636 C   0  0  0  0  0  0  0  0  0  0  0  0
   68.6603   80.5180   89.3189 C   0  0  0  0  0  0  0  0  0  0  0  0
   68.1231   82.7613   88.4506 O   0  0  0  0  0  0  0  0  0  0  0  0
   68.6403   83.5097   87.3479 C   0  0  0  0  0  0  0  0  0  0  0  0
   69.9975   84.0789   87.6758 C   0  0  0  0  0  0  0  0  0  0  0  0
   70.3470   85.3639   87.2308 C   0  0  0  0  0  0  0  0  0  0  0  0
   71.5922   85.9083   87.5590 C   0  0  0  0  0  0  0  0  0  0  0  0
   72.4978   85.1741   88.3294 C   0  0  0  0  0  0  0  0  0  0  0  0
   72.1624   83.8896   88.7693 C   0  0  0  0  0  0  0  0  0  0  0  0
   73.2948   82.9724   89.7463 Cl  0  0  0  0  0  0  0  0  0  0  0  0
   70.9195   83.3390   88.4363 C   0  0  0  0  0  0  0  0  0  0  0  0
   68.3141   76.4472   93.6027 C   0  0  0  0  0  0  0  0  0  0  0  0
   67.6050   75.2533   93.2672 O   0  0  0  0  0  0  0  0  0  0  0  0
   69.6524   72.1880   92.8515 C   0  0  0  0  0  0  0  0  0  0  0  0
   69.0613   73.3434   93.3967 C   0  0  0  0  0  0  0  0  0  0  0  0
   68.1644   74.1192   92.6543 C   0  0  0  0  0  0  0  0  0  0  0  0
   67.8607   73.7420   91.3353 C   0  0  0  0  0  0  0  0  0  0  0  0
   68.4417   72.6023   90.7785 C   0  0  0  0  0  0  0  0  0  0  0  0
   69.3374   71.8228   91.5226 C   0  0  0  0  0  0  0  0  0  0  0  0
   69.9114   70.6941   90.9374 O   0  0  0  0  0  0  0  0  0  0  0  0
   69.6948   70.4620   90.0558 H   0  0  0  0  0  0  0  0  0  0  0  0
   71.6609   71.8905   94.1156 O   0  0  0  0  0  0  0  0  0  0  0  0
   70.5875   71.3895   93.6849 C   0  0  0  0  0  0  0  0  0  0  0  0
   70.2872   70.0659   93.9983 O   0  0  0  0  0  0  0  0  0  0  0  0
   69.4931   69.6790   93.6857 H   0  0  0  0  0  0  0  0  0  0  0  0
  1  2  2  0  0  0  0
  2  3  1  0  0  0  0
  3  4  1  0  0  0  0
  3  5  2  0  0  0  0
  5  6  1  0  0  0  0
  6  8  1  0  0  0  0
  6  7  2  0  0  0  0
  7  1  1  0  0  0  0
  8  9  2  0  0  0  0
  9 10  1  0  0  0  0
 10 11  2  0  0  0  0
 11 12  1  0  0  0  0
 12 14  1  0  0  0  0
 12 13  2  0  0  0  0
 13  8  1  0  0  0  0
 14 15  1  0  0  0  0
 15 16  1  0  0  0  0
 16 17  2  0  0  0  0
 17 18  1  0  0  0  0
 18 19  2  0  0  0  0
 19 20  1  0  0  0  0
 20 21  1  0  0  0  0
 20 22  2  0  0  0  0
 22 16  1  0  0  0  0
 23  1  1  0  0  0  0
 24 23  1  0  0  0  0
 25 26  2  0  0  0  0
 26 27  1  0  0  0  0
 27 24  1  0  0  0  0
 27 28  2  0  0  0  0
 28 29  1  0  0  0  0
 29 30  2  0  0  0  0
 30 31  1  0  0  0  0
 30 25  1  0  0  0  0
 31 32  1  0  0  0  0
 33 34  2  0  0  0  0
 34 35  1  0  0  0  0
 34 25  1  0  0  0  0
 35 36  1  0  0  0  0
M  END
>  <Activity>
14.5

>  <minimizedAffinity>
-9.38326

>  <RFScoreVS_v2>
5.98132986269

$$$$
HIPS6774
 OpenBabel05252300073D

 35 38  0  0  0  0  0  0  0  0999 V2000
   68.2547   79.8519   89.6602 C   0  0  0  0  0  0  0  0  0  0  0  0
   67.6024   80.1013   88.4447 C   0  0  0  0  0  0  0  0  0  0  0  0
   67.1270   79.0326   87.6875 C   0  0  0  0  0  0  0  0  0  0  0  0
   67.3002   77.7592   88.1260 N   0  0  0  0  0  0  0  0  0  0  0  0
   67.9254   77.4687   89.3048 C   0  0  0  0  0  0  0  0  0  0  0  0
   68.4269   78.5264   90.0881 C   0  0  0  0  0  0  0  0  0  0  0  0
   68.0877   76.0455   89.6992 C   0  0  0  0  0  0  0  0  0  0  0  0
   68.9023   75.6679   90.7853 C   0  0  0  0  0  0  0  0  0  0  0  0
   68.9989   74.3246   91.1632 C   0  0  0  0  0  0  0  0  0  0  0  0
   68.2839   73.3473   90.4718 C   0  0  0  0  0  0  0  0  0  0  0  0
   67.4644   73.6944   89.3898 C   0  0  0  0  0  0  0  0  0  0  0  0
   67.3816   75.0463   89.0030 C   0  0  0  0  0  0  0  0  0  0  0  0
   66.7581   72.6736   88.7288 O   0  0  0  0  0  0  0  0  0  0  0  0
   66.3662   72.7035   87.3580 C   0  0  0  0  0  0  0  0  0  0  0  0
   67.0014   71.5708   86.5911 C   0  0  0  0  0  0  0  0  0  0  0  0
   66.7855   71.4305   85.2090 C   0  0  0  0  0  0  0  0  0  0  0  0
   67.3726   70.3732   84.5075 C   0  0  0  0  0  0  0  0  0  0  0  0
   68.2003   69.4633   85.1767 C   0  0  0  0  0  0  0  0  0  0  0  0
   68.4368   69.6064   86.5495 C   0  0  0  0  0  0  0  0  0  0  0  0
   69.4881   68.4713   87.3823 Cl  0  0  0  0  0  0  0  0  0  0  0  0
   67.8388   70.6566   87.2559 C   0  0  0  0  0  0  0  0  0  0  0  0
   68.8522   80.9972   90.4313 C   0  0  0  0  0  0  0  0  0  0  0  0
   70.2526   81.1229   90.1941 O   0  0  0  0  0  0  0  0  0  0  0  0
   70.5816   84.0940   87.9952 C   0  0  0  0  0  0  0  0  0  0  0  0
   70.0690   82.9466   88.6257 C   0  0  0  0  0  0  0  0  0  0  0  0
   70.8381   82.2191   89.5468 C   0  0  0  0  0  0  0  0  0  0  0  0
   72.1566   82.6235   89.8086 C   0  0  0  0  0  0  0  0  0  0  0  0
   72.6956   83.7300   89.1571 C   0  0  0  0  0  0  0  0  0  0  0  0
   71.9224   84.4743   88.2540 C   0  0  0  0  0  0  0  0  0  0  0  0
   72.4852   85.5831   87.6220 O   0  0  0  0  0  0  0  0  0  0  0  0
   73.3726   85.8243   87.8014 H   0  0  0  0  0  0  0  0  0  0  0  0
   68.4955   85.1070   87.4006 O   0  0  0  0  0  0  0  0  0  0  0  0
   69.6982   84.8888   87.0989 C   0  0  0  0  0  0  0  0  0  0  0  0
   70.1920   85.3798   85.8927 O   0  0  0  0  0  0  0  0  0  0  0  0
   71.0850   85.2253   85.6545 H   0  0  0  0  0  0  0  0  0  0  0  0
  1  2  2  0  0  0  0
  2  3  1  0  0  0  0
  3  4  2  0  0  0  0
  4  5  2  0  0  0  0
  5  7  1  0  0  0  0
  5  6  2  0  0  0  0
  6  1  1  0  0  0  0
  7  8  2  0  0  0  0
  8  9  1  0  0  0  0
  9 10  2  0  0  0  0
 10 11  1  0  0  0  0
 11 13  1  0  0  0  0
 11 12  2  0  0  0  0
 12  7  1  0  0  0  0
 13 14  1  0  0  0  0
 14 15  1  0  0  0  0
 15 16  2  0  0  0  0
 16 17  1  0  0  0  0
 17 18  2  0  0  0  0
 18 19  1  0  0  0  0
 19 20  1  0  0  0  0
 19 21  2  0  0  0  0
 21 15  1  0  0  0  0
 22  1  1  0  0  0  0
 23 22  1  0  0  0  0
 24 25  2  0  0  0  0
 25 26  1  0  0  0  0
 26 23  1  0  0  0  0
 26 27  2  0  0  0  0
 27 28  1  0  0  0  0
 28 29  2  0  0  0  0
 29 30  1  0  0  0  0
 29 24  1  0  0  0  0
 30 31  1  0  0  0  0
 32 33  2  0  0  0  0
 33 34  1  0  0  0  0
 33 24  1  0  0  0  0
 34 35  1  0  0  0  0
M  END
>  <Activity>
15.2

>  <minimizedAffinity>
-9.54797

>  <RFScoreVS_v2>
5.97484522364

$$$$
HIPS6774
 OpenBabel05252300073D

 35 38  0  0  0  0  0  0  0  0999 V2000
   68.9499   79.0660   89.6250 C   0  0  0  0  0  0  0  0  0  0  0  0
   67.8835   79.8094   89.1000 C   0  0  0  0  0  0  0  0  0  0  0  0
   66.7436   79.1498   88.6450 C   0  0  0  0  0  0  0  0  0  0  0  0
   66.6721   77.7952   88.7078 N   0  0  0  0  0  0  0  0  0  0  0  0
   67.6836   77.0306   89.2146 C   0  0  0  0  0  0  0  0  0  0  0  0
   68.8538   77.6667   89.6729 C   0  0  0  0  0  0  0  0  0  0  0  0
   67.5284   75.5531   89.2286 C   0  0  0  0  0  0  0  0  0  0  0  0
   66.7620   74.8813   88.2554 C   0  0  0  0  0  0  0  0  0  0  0  0
   66.6722   73.4854   88.2659 C   0  0  0  0  0  0  0  0  0  0  0  0
   67.3464   72.7455   89.2366 C   0  0  0  0  0  0  0  0  0  0  0  0
   68.1175   73.3869   90.2148 C   0  0  0  0  0  0  0  0  0  0  0  0
   68.1932   74.7935   90.2097 C   0  0  0  0  0  0  0  0  0  0  0  0
   68.7841   72.5967   91.1682 O   0  0  0  0  0  0  0  0  0  0  0  0
   68.1931   72.0717   92.3550 C   0  0  0  0  0  0  0  0  0  0  0  0
   67.7666   73.1826   93.2816 C   0  0  0  0  0  0  0  0  0  0  0  0
   66.4242   73.3092   93.6795 C   0  0  0  0  0  0  0  0  0  0  0  0
   66.0366   74.3465   94.5331 C   0  0  0  0  0  0  0  0  0  0  0  0
   66.9918   75.2495   95.0158 C   0  0  0  0  0  0  0  0  0  0  0  0
   68.3347   75.1196   94.6405 C   0  0  0  0  0  0  0  0  0  0  0  0
   69.5324   76.2458   95.2604 Cl  0  0  0  0  0  0  0  0  0  0  0  0
   68.7220   74.0897   93.7752 C   0  0  0  0  0  0  0  0  0  0  0  0
   70.2178   79.7684   90.0278 C   0  0  0  0  0  0  0  0  0  0  0  0
   69.9920   81.1465   90.3159 O   0  0  0  0  0  0  0  0  0  0  0  0
   70.5445   84.0942   88.1304 C   0  0  0  0  0  0  0  0  0  0  0  0
   69.9460   82.9871   88.7573 C   0  0  0  0  0  0  0  0  0  0  0  0
   70.6592   82.1969   89.6717 C   0  0  0  0  0  0  0  0  0  0  0  0
   72.0061   82.4956   89.9302 C   0  0  0  0  0  0  0  0  0  0  0  0
   72.6278   83.5599   89.2820 C   0  0  0  0  0  0  0  0  0  0  0  0
   71.9119   84.3671   88.3856 C   0  0  0  0  0  0  0  0  0  0  0  0
   72.5574   85.4318   87.7569 O   0  0  0  0  0  0  0  0  0  0  0  0
   73.4616   85.6019   87.9339 H   0  0  0  0  0  0  0  0  0  0  0  0
   68.5959   85.3839   87.6099 O   0  0  0  0  0  0  0  0  0  0  0  0
   69.7227   84.9602   87.2415 C   0  0  0  0  0  0  0  0  0  0  0  0
   70.1861   85.2903   85.9702 O   0  0  0  0  0  0  0  0  0  0  0  0
   71.0228   84.9824   85.6819 H   0  0  0  0  0  0  0  0  0  0  0  0
  1  2  2  0  0  0  0
  2  3  1  0  0  0  0
  3  4  2  0  0  0  0
  4  5  2  0  0  0  0
  5  7  1  0  0  0  0
  5  6  2  0  0  0  0
  6  1  1  0  0  0  0
  7  8  2  0  0  0  0
  8  9  1  0  0  0  0
  9 10  2  0  0  0  0
 10 11  1  0  0  0  0
 11 13  1  0  0  0  0
 11 12  2  0  0  0  0
 12  7  1  0  0  0  0
 13 14  1  0  0  0  0
 14 15  1  0  0  0  0
 15 16  2  0  0  0  0
 16 17  1  0  0  0  0
 17 18  2  0  0  0  0
 18 19  1  0  0  0  0
 19 20  1  0  0  0  0
 19 21  2  0  0  0  0
 21 15  1  0  0  0  0
 22  1  1  0  0  0  0
 23 22  1  0  0  0  0
 24 25  2  0  0  0  0
 25 26  1  0  0  0  0
 26 23  1  0  0  0  0
 26 27  2  0  0  0  0
 27 28  1  0  0  0  0
 28 29  2  0  0  0  0
 29 30  1  0  0  0  0
 29 24  1  0  0  0  0
 30 31  1  0  0  0  0
 32 33  2  0  0  0  0
 33 34  1  0  0  0  0
 33 24  1  0  0  0  0
 34 35  1  0  0  0  0
M  END
>  <Activity>
15.2

>  <minimizedAffinity>
-9.33046

>  <RFScoreVS_v2>
5.97405074929

$$$$
HIPS6774
 OpenBabel05252300073D

 35 38  0  0  0  0  0  0  0  0999 V2000
   70.0947   78.6641   90.4799 C   0  0  0  0  0  0  0  0  0  0  0  0
   68.7060   78.8399   90.5580 C   0  0  0  0  0  0  0  0  0  0  0  0
   68.1539   80.0876   90.2750 C   0  0  0  0  0  0  0  0  0  0  0  0
   68.9597   81.1246   89.9301 N   0  0  0  0  0  0  0  0  0  0  0  0
   70.3163   80.9992   89.8372 C   0  0  0  0  0  0  0  0  0  0  0  0
   70.9062   79.7535   90.1276 C   0  0  0  0  0  0  0  0  0  0  0  0
   71.1237   82.1912   89.4706 C   0  0  0  0  0  0  0  0  0  0  0  0
   72.4101   82.4053   90.0047 C   0  0  0  0  0  0  0  0  0  0  0  0
   73.1664   83.5121   89.6052 C   0  0  0  0  0  0  0  0  0  0  0  0
   72.6560   84.4105   88.6689 C   0  0  0  0  0  0  0  0  0  0  0  0
   71.3811   84.2211   88.1195 C   0  0  0  0  0  0  0  0  0  0  0  0
   70.6168   83.1135   88.5358 C   0  0  0  0  0  0  0  0  0  0  0  0
   70.9133   85.1509   87.1738 O   0  0  0  0  0  0  0  0  0  0  0  0
   69.6603   85.8284   87.2412 C   0  0  0  0  0  0  0  0  0  0  0  0
   69.5512   86.6347   88.5110 C   0  0  0  0  0  0  0  0  0  0  0  0
   70.1306   87.9125   88.6014 C   0  0  0  0  0  0  0  0  0  0  0  0
   70.0306   88.6499   89.7850 C   0  0  0  0  0  0  0  0  0  0  0  0
   69.3292   88.1269   90.8782 C   0  0  0  0  0  0  0  0  0  0  0  0
   68.7321   86.8632   90.7909 C   0  0  0  0  0  0  0  0  0  0  0  0
   67.8401   86.2172   92.1599 Cl  0  0  0  0  0  0  0  0  0  0  0  0
   68.8428   86.1180   89.6112 C   0  0  0  0  0  0  0  0  0  0  0  0
   70.6999   77.3455   90.8773 C   0  0  0  0  0  0  0  0  0  0  0  0
   70.1496   76.8557   92.0982 O   0  0  0  0  0  0  0  0  0  0  0  0
   67.6212   74.4894   93.4316 C   0  0  0  0  0  0  0  0  0  0  0  0
   68.5172   75.5672   93.3205 C   0  0  0  0  0  0  0  0  0  0  0  0
   69.3240   75.7268   92.1834 C   0  0  0  0  0  0  0  0  0  0  0  0
   69.2625   74.7680   91.1601 C   0  0  0  0  0  0  0  0  0  0  0  0
   68.4149   73.6690   91.2755 C   0  0  0  0  0  0  0  0  0  0  0  0
   67.5891   73.5185   92.3992 C   0  0  0  0  0  0  0  0  0  0  0  0
   66.7437   72.4124   92.4848 O   0  0  0  0  0  0  0  0  0  0  0  0
   66.7316   71.7775   91.7958 H   0  0  0  0  0  0  0  0  0  0  0  0
   65.8756   75.3200   94.8439 O   0  0  0  0  0  0  0  0  0  0  0  0
   66.7167   74.4126   94.6112 C   0  0  0  0  0  0  0  0  0  0  0  0
   66.8130   73.3384   95.4926 O   0  0  0  0  0  0  0  0  0  0  0  0
   67.4343   72.6554   95.3327 H   0  0  0  0  0  0  0  0  0  0  0  0
  1  2  2  0  0  0  0
  2  3  1  0  0  0  0
  3  4  2  0  0  0  0
  4  5  2  0  0  0  0
  5  7  1  0  0  0  0
  5  6  2  0  0  0  0
  6  1  1  0  0  0  0
  7  8  2  0  0  0  0
  8  9  1  0  0  0  0
  9 10  2  0  0  0  0
 10 11  1  0  0  0  0
 11 13  1  0  0  0  0
 11 12  2  0  0  0  0
 12  7  1  0  0  0  0
 13 14  1  0  0  0  0
 14 15  1  0  0  0  0
 15 16  2  0  0  0  0
 16 17  1  0  0  0  0
 17 18  2  0  0  0  0
 18 19  1  0  0  0  0
 19 20  1  0  0  0  0
 19 21  2  0  0  0  0
 21 15  1  0  0  0  0
 22  1  1  0  0  0  0
 23 22  1  0  0  0  0
 24 25  2  0  0  0  0
 25 26  1  0  0  0  0
 26 23  1  0  0  0  0
 26 27  2  0  0  0  0
 27 28  1  0  0  0  0
 28 29  2  0  0  0  0
 29 30  1  0  0  0  0
 29 24  1  0  0  0  0
 30 31  1  0  0  0  0
 32 33  2  0  0  0  0
 33 34  1  0  0  0  0
 33 24  1  0  0  0  0
 34 35  1  0  0  0  0
M  END
>  <Activity>
15.2

>  <minimizedAffinity>
-9.16035

>  <RFScoreVS_v2>
5.98144213131

$$$$
HIPS6774
 OpenBabel05252300073D

 35 38  0  0  0  0  0  0  0  0999 V2000
   69.6220   76.4392   92.0583 C   0  0  0  0  0  0  0  0  0  0  0  0
   71.0108   76.6086   91.9698 C   0  0  0  0  0  0  0  0  0  0  0  0
   71.5357   77.5166   91.0524 C   0  0  0  0  0  0  0  0  0  0  0  0
   70.7039   78.2277   90.2485 N   0  0  0  0  0  0  0  0  0  0  0  0
   69.3455   78.0989   90.3022 C   0  0  0  0  0  0  0  0  0  0  0  0
   68.7841   77.1814   91.2116 C   0  0  0  0  0  0  0  0  0  0  0  0
   68.5112   78.9035   89.3728 C   0  0  0  0  0  0  0  0  0  0  0  0
   67.5353   78.3059   88.5502 C   0  0  0  0  0  0  0  0  0  0  0  0
   66.7321   79.0939   87.7193 C   0  0  0  0  0  0  0  0  0  0  0  0
   66.8856   80.4797   87.7028 C   0  0  0  0  0  0  0  0  0  0  0  0
   67.8459   81.1009   88.5120 C   0  0  0  0  0  0  0  0  0  0  0  0
   68.6630   80.3024   89.3361 C   0  0  0  0  0  0  0  0  0  0  0  0
   67.9579   82.5019   88.4651 O   0  0  0  0  0  0  0  0  0  0  0  0
   68.3948   83.2517   87.3335 C   0  0  0  0  0  0  0  0  0  0  0  0
   69.7178   83.9213   87.6087 C   0  0  0  0  0  0  0  0  0  0  0  0
   69.9834   85.2127   87.1208 C   0  0  0  0  0  0  0  0  0  0  0  0
   71.2154   85.8229   87.3748 C   0  0  0  0  0  0  0  0  0  0  0  0
   72.1813   85.1577   88.1398 C   0  0  0  0  0  0  0  0  0  0  0  0
   71.9183   83.8789   88.6465 C   0  0  0  0  0  0  0  0  0  0  0  0
   73.1273   83.0540   89.6185 Cl  0  0  0  0  0  0  0  0  0  0  0  0
   70.6904   83.2612   88.3816 C   0  0  0  0  0  0  0  0  0  0  0  0
   69.0586   75.3918   92.9795 C   0  0  0  0  0  0  0  0  0  0  0  0
   70.0529   74.4549   93.3881 O   0  0  0  0  0  0  0  0  0  0  0  0
   70.5487   70.7858   93.6382 C   0  0  0  0  0  0  0  0  0  0  0  0
   70.5895   72.1633   93.9170 C   0  0  0  0  0  0  0  0  0  0  0  0
   70.0431   73.1010   93.0274 C   0  0  0  0  0  0  0  0  0  0  0  0
   69.4845   72.6543   91.8196 C   0  0  0  0  0  0  0  0  0  0  0  0
   69.4785   71.2974   91.5064 C   0  0  0  0  0  0  0  0  0  0  0  0
   70.0017   70.3547   92.4035 C   0  0  0  0  0  0  0  0  0  0  0  0
   69.9750   69.0011   92.0678 O   0  0  0  0  0  0  0  0  0  0  0  0
   69.6107   68.7287   91.2486 H   0  0  0  0  0  0  0  0  0  0  0  0
   70.2780   69.0035   95.2135 O   0  0  0  0  0  0  0  0  0  0  0  0
   71.0538   69.8217   94.6535 C   0  0  0  0  0  0  0  0  0  0  0  0
   72.3983   69.8352   95.0169 O   0  0  0  0  0  0  0  0  0  0  0  0
   72.9879   70.4385   94.6089 H   0  0  0  0  0  0  0  0  0  0  0  0
  1  2  2  0  0  0  0
  2  3  1  0  0  0  0
  3  4  2  0  0  0  0
  4  5  2  0  0  0  0
  5  7  1  0  0  0  0
  5  6  2  0  0  0  0
  6  1  1  0  0  0  0
  7  8  2  0  0  0  0
  8  9  1  0  0  0  0
  9 10  2  0  0  0  0
 10 11  1  0  0  0  0
 11 13  1  0  0  0  0
 11 12  2  0  0  0  0
 12  7  1  0  0  0  0
 13 14  1  0  0  0  0
 14 15  1  0  0  0  0
 15 16  2  0  0  0  0
 16 17  1  0  0  0  0
 17 18  2  0  0  0  0
 18 19  1  0  0  0  0
 19 20  1  0  0  0  0
 19 21  2  0  0  0  0
 21 15  1  0  0  0  0
 22  1  1  0  0  0  0
 23 22  1  0  0  0  0
 24 25  2  0  0  0  0
 25 26  1  0  0  0  0
 26 23  1  0  0  0  0
 26 27  2  0  0  0  0
 27 28  1  0  0  0  0
 28 29  2  0  0  0  0
 29 30  1  0  0  0  0
 29 24  1  0  0  0  0
 30 31  1  0  0  0  0
 32 33  2  0  0  0  0
 33 34  1  0  0  0  0
 33 24  1  0  0  0  0
 34 35  1  0  0  0  0
M  END
>  <Activity>
15.2

>  <minimizedAffinity>
-9.10467

>  <RFScoreVS_v2>
5.97810243979

$$$$
HIPS6774
 OpenBabel05252300073D

 35 38  0  0  0  0  0  0  0  0999 V2000
   66.9747   75.0114   88.7626 C   0  0  0  0  0  0  0  0  0  0  0  0
   66.4379   74.1255   87.8179 C   0  0  0  0  0  0  0  0  0  0  0  0
   66.6807   72.7590   87.9408 C   0  0  0  0  0  0  0  0  0  0  0  0
   67.4362   72.2931   88.9684 N   0  0  0  0  0  0  0  0  0  0  0  0
   67.9758   73.1174   89.9140 C   0  0  0  0  0  0  0  0  0  0  0  0
   67.7576   74.5052   89.8116 C   0  0  0  0  0  0  0  0  0  0  0  0
   68.8050   72.5240   90.9944 C   0  0  0  0  0  0  0  0  0  0  0  0
   69.3062   71.2099   90.9042 C   0  0  0  0  0  0  0  0  0  0  0  0
   70.1235   70.6940   91.9153 C   0  0  0  0  0  0  0  0  0  0  0  0
   70.4553   71.4786   93.0191 C   0  0  0  0  0  0  0  0  0  0  0  0
   69.9734   72.7892   93.1337 C   0  0  0  0  0  0  0  0  0  0  0  0
   69.1384   73.2998   92.1207 C   0  0  0  0  0  0  0  0  0  0  0  0
   70.3416   73.5430   94.2623 O   0  0  0  0  0  0  0  0  0  0  0  0
   69.5110   73.7780   95.3975 C   0  0  0  0  0  0  0  0  0  0  0  0
   68.2215   74.4470   94.9925 C   0  0  0  0  0  0  0  0  0  0  0  0
   66.9857   73.8118   95.2066 C   0  0  0  0  0  0  0  0  0  0  0  0
   65.7957   74.4364   94.8213 C   0  0  0  0  0  0  0  0  0  0  0  0
   65.8299   75.7112   94.2430 C   0  0  0  0  0  0  0  0  0  0  0  0
   67.0548   76.3601   94.0437 C   0  0  0  0  0  0  0  0  0  0  0  0
   67.0920   77.9658   93.3315 Cl  0  0  0  0  0  0  0  0  0  0  0  0
   68.2480   75.7302   94.4164 C   0  0  0  0  0  0  0  0  0  0  0  0
   66.7937   76.4933   88.5781 C   0  0  0  0  0  0  0  0  0  0  0  0
   67.0845   77.2159   89.7725 O   0  0  0  0  0  0  0  0  0  0  0  0
   70.5862   78.2976   90.3543 C   0  0  0  0  0  0  0  0  0  0  0  0
   69.4301   77.5033   90.2569 C   0  0  0  0  0  0  0  0  0  0  0  0
   68.1891   78.0653   89.9202 C   0  0  0  0  0  0  0  0  0  0  0  0
   68.0969   79.4514   89.7192 C   0  0  0  0  0  0  0  0  0  0  0  0
   69.2230   80.2590   89.8582 C   0  0  0  0  0  0  0  0  0  0  0  0
   70.4701   79.6984   90.1708 C   0  0  0  0  0  0  0  0  0  0  0  0
   71.5831   80.5299   90.2956 O   0  0  0  0  0  0  0  0  0  0  0  0
   71.4934   81.4544   90.1719 H   0  0  0  0  0  0  0  0  0  0  0  0
   72.8204   77.6726   89.7633 O   0  0  0  0  0  0  0  0  0  0  0  0
   71.8978   77.6456   90.6194 C   0  0  0  0  0  0  0  0  0  0  0  0
   72.1083   76.9692   91.8186 O   0  0  0  0  0  0  0  0  0  0  0  0
   71.4310   76.9404   92.4654 H   0  0  0  0  0  0  0  0  0  0  0  0
  1  2  2  0  0  0  0
  2  3  1  0  0  0  0
  3  4  2  0  0  0  0
  4  5  2  0  0  0  0
  5  7  1  0  0  0  0
  5  6  2  0  0  0  0
  6  1  1  0  0  0  0
  7  8  2  0  0  0  0
  8  9  1  0  0  0  0
  9 10  2  0  0  0  0
 10 11  1  0  0  0  0
 11 13  1  0  0  0  0
 11 12  2  0  0  0  0
 12  7  1  0  0  0  0
 13 14  1  0  0  0  0
 14 15  1  0  0  0  0
 15 16  2  0  0  0  0
 16 17  1  0  0  0  0
 17 18  2  0  0  0  0
 18 19  1  0  0  0  0
 19 20  1  0  0  0  0
 19 21  2  0  0  0  0
 21 15  1  0  0  0  0
 22  1  1  0  0  0  0
 23 22  1  0  0  0  0
 24 25  2  0  0  0  0
 25 26  1  0  0  0  0
 26 23  1  0  0  0  0
 26 27  2  0  0  0  0
 27 28  1  0  0  0  0
 28 29  2  0  0  0  0
 29 30  1  0  0  0  0
 29 24  1  0  0  0  0
 30 31  1  0  0  0  0
 32 33  2  0  0  0  0
 33 34  1  0  0  0  0
 33 24  1  0  0  0  0
 34 35  1  0  0  0  0
M  END
>  <Activity>
15.2

>  <minimizedAffinity>
-9.02707

>  <RFScoreVS_v2>
5.98303992889

$$$$
HIPS6774
 OpenBabel05252300073D

 35 38  0  0  0  0  0  0  0  0999 V2000
   67.2375   79.1583   88.8157 C   0  0  0  0  0  0  0  0  0  0  0  0
   67.1251   79.2116   87.4193 C   0  0  0  0  0  0  0  0  0  0  0  0
   67.1693   78.0312   86.6803 C   0  0  0  0  0  0  0  0  0  0  0  0
   67.3244   76.8394   87.3124 N   0  0  0  0  0  0  0  0  0  0  0  0
   67.4339   76.7386   88.6698 C   0  0  0  0  0  0  0  0  0  0  0  0
   67.4037   77.9146   89.4444 C   0  0  0  0  0  0  0  0  0  0  0  0
   67.6193   75.3954   89.2769 C   0  0  0  0  0  0  0  0  0  0  0  0
   66.9843   74.2525   88.7508 C   0  0  0  0  0  0  0  0  0  0  0  0
   67.2146   72.9932   89.3143 C   0  0  0  0  0  0  0  0  0  0  0  0
   68.0807   72.8567   90.3986 C   0  0  0  0  0  0  0  0  0  0  0  0
   68.7274   73.9752   90.9404 C   0  0  0  0  0  0  0  0  0  0  0  0
   68.4811   75.2436   90.3794 C   0  0  0  0  0  0  0  0  0  0  0  0
   69.5968   73.7852   92.0293 O   0  0  0  0  0  0  0  0  0  0  0  0
   69.6064   74.5738   93.2175 C   0  0  0  0  0  0  0  0  0  0  0  0
   68.2086   74.7588   93.7529 C   0  0  0  0  0  0  0  0  0  0  0  0
   67.5368   73.6985   94.3860 C   0  0  0  0  0  0  0  0  0  0  0  0
   66.2385   73.8770   94.8729 C   0  0  0  0  0  0  0  0  0  0  0  0
   65.6115   75.1233   94.7537 C   0  0  0  0  0  0  0  0  0  0  0  0
   66.2803   76.1910   94.1420 C   0  0  0  0  0  0  0  0  0  0  0  0
   65.4956   77.7573   94.0081 Cl  0  0  0  0  0  0  0  0  0  0  0  0
   67.5751   76.0100   93.6419 C   0  0  0  0  0  0  0  0  0  0  0  0
   67.2860   80.4372   89.6063 C   0  0  0  0  0  0  0  0  0  0  0  0
   67.7419   81.5326   88.8155 O   0  0  0  0  0  0  0  0  0  0  0  0
   70.6502   83.7232   88.0985 C   0  0  0  0  0  0  0  0  0  0  0  0
   69.3847   83.1144   88.0291 C   0  0  0  0  0  0  0  0  0  0  0  0
   69.0396   82.0566   88.8843 C   0  0  0  0  0  0  0  0  0  0  0  0
   69.9925   81.5734   89.7948 C   0  0  0  0  0  0  0  0  0  0  0  0
   71.2664   82.1339   89.8439 C   0  0  0  0  0  0  0  0  0  0  0  0
   71.6075   83.2072   89.0078 C   0  0  0  0  0  0  0  0  0  0  0  0
   72.8881   83.7549   89.0841 O   0  0  0  0  0  0  0  0  0  0  0  0
   73.5120   83.4050   89.6892 H   0  0  0  0  0  0  0  0  0  0  0  0
   71.8324   85.7325   87.5541 O   0  0  0  0  0  0  0  0  0  0  0  0
   70.9389   84.9034   87.2388 C   0  0  0  0  0  0  0  0  0  0  0  0
   70.1965   85.1180   86.0801 O   0  0  0  0  0  0  0  0  0  0  0  0
   69.5282   84.5097   85.8325 H   0  0  0  0  0  0  0  0  0  0  0  0
  1  2  2  0  0  0  0
  2  3  1  0  0  0  0
  3  4  2  0  0  0  0
  4  5  2  0  0  0  0
  5  7  1  0  0  0  0
  5  6  2  0  0  0  0
  6  1  1  0  0  0  0
  7  8  2  0  0  0  0
  8  9  1  0  0  0  0
  9 10  2  0  0  0  0
 10 11  1  0  0  0  0
 11 13  1  0  0  0  0
 11 12  2  0  0  0  0
 12  7  1  0  0  0  0
 13 14  1  0  0  0  0
 14 15  1  0  0  0  0
 15 16  2  0  0  0  0
 16 17  1  0  0  0  0
 17 18  2  0  0  0  0
 18 19  1  0  0  0  0
 19 20  1  0  0  0  0
 19 21  2  0  0  0  0
 21 15  1  0  0  0  0
 22  1  1  0  0  0  0
 23 22  1  0  0  0  0
 24 25  2  0  0  0  0
 25 26  1  0  0  0  0
 26 23  1  0  0  0  0
 26 27  2  0  0  0  0
 27 28  1  0  0  0  0
 28 29  2  0  0  0  0
 29 30  1  0  0  0  0
 29 24  1  0  0  0  0
 30 31  1  0  0  0  0
 32 33  2  0  0  0  0
 33 34  1  0  0  0  0
 33 24  1  0  0  0  0
 34 35  1  0  0  0  0
M  END
>  <Activity>
15.2

>  <minimizedAffinity>
-8.99476

>  <RFScoreVS_v2>
5.95788892252

$$$$
HIPS6774
 OpenBabel05252300073D

 35 38  0  0  0  0  0  0  0  0999 V2000
   67.3850   80.4727   88.3822 C   0  0  0  0  0  0  0  0  0  0  0  0
   66.6970   79.5920   87.5358 C   0  0  0  0  0  0  0  0  0  0  0  0
   67.0110   78.2346   87.5539 C   0  0  0  0  0  0  0  0  0  0  0  0
   67.9806   77.7727   88.3849 N   0  0  0  0  0  0  0  0  0  0  0  0
   68.6738   78.5921   89.2292 C   0  0  0  0  0  0  0  0  0  0  0  0
   68.3874   79.9712   89.2269 C   0  0  0  0  0  0  0  0  0  0  0  0
   69.7312   78.0046   90.0917 C   0  0  0  0  0  0  0  0  0  0  0  0
   71.0091   78.5894   90.1964 C   0  0  0  0  0  0  0  0  0  0  0  0
   71.9696   78.0410   91.0527 C   0  0  0  0  0  0  0  0  0  0  0  0
   71.6684   76.9137   91.8159 C   0  0  0  0  0  0  0  0  0  0  0  0
   70.4053   76.3130   91.7337 C   0  0  0  0  0  0  0  0  0  0  0  0
   69.4459   76.8595   90.8590 C   0  0  0  0  0  0  0  0  0  0  0  0
   70.1474   75.1819   92.5285 O   0  0  0  0  0  0  0  0  0  0  0  0
   69.0351   74.3040   92.3681 C   0  0  0  0  0  0  0  0  0  0  0  0
   67.9698   74.5902   93.3966 C   0  0  0  0  0  0  0  0  0  0  0  0
   67.7425   73.7001   94.4607 C   0  0  0  0  0  0  0  0  0  0  0  0
   66.7479   73.9700   95.4054 C   0  0  0  0  0  0  0  0  0  0  0  0
   65.9906   75.1438   95.3085 C   0  0  0  0  0  0  0  0  0  0  0  0
   66.2232   76.0461   94.2631 C   0  0  0  0  0  0  0  0  0  0  0  0
   65.2810   77.5250   94.1538 Cl  0  0  0  0  0  0  0  0  0  0  0  0
   67.2094   75.7706   93.3087 C   0  0  0  0  0  0  0  0  0  0  0  0
   67.1144   81.9499   88.2955 C   0  0  0  0  0  0  0  0  0  0  0  0
   67.8034   82.5520   87.2018 O   0  0  0  0  0  0  0  0  0  0  0  0
   71.0260   83.9356   88.4146 C   0  0  0  0  0  0  0  0  0  0  0  0
   69.8908   83.1188   88.2699 C   0  0  0  0  0  0  0  0  0  0  0  0
   68.8793   83.4372   87.3507 C   0  0  0  0  0  0  0  0  0  0  0  0
   68.9870   84.6150   86.5947 C   0  0  0  0  0  0  0  0  0  0  0  0
   70.0820   85.4595   86.7599 C   0  0  0  0  0  0  0  0  0  0  0  0
   71.1070   85.1328   87.6599 C   0  0  0  0  0  0  0  0  0  0  0  0
   72.1963   85.9927   87.7991 O   0  0  0  0  0  0  0  0  0  0  0  0
   72.2383   86.7812   87.2945 H   0  0  0  0  0  0  0  0  0  0  0  0
   73.3215   83.7762   89.0755 O   0  0  0  0  0  0  0  0  0  0  0  0
   72.1182   83.5091   89.3316 C   0  0  0  0  0  0  0  0  0  0  0  0
   71.8175   82.7792   90.4791 O   0  0  0  0  0  0  0  0  0  0  0  0
   70.9265   82.5727   90.6829 H   0  0  0  0  0  0  0  0  0  0  0  0
  1  2  2  0  0  0  0
  2  3  1  0  0  0  0
  3  4  2  0  0  0  0
  4  5  2  0  0  0  0
  5  7  1  0  0  0  0
  5  6  2  0  0  0  0
  6  1  1  0  0  0  0
  7  8  2  0  0  0  0
  8  9  1  0  0  0  0
  9 10  2  0  0  0  0
 10 11  1  0  0  0  0
 11 13  1  0  0  0  0
 11 12  2  0  0  0  0
 12  7  1  0  0  0  0
 13 14  1  0  0  0  0
 14 15  1  0  0  0  0
 15 16  2  0  0  0  0
 16 17  1  0  0  0  0
 17 18  2  0  0  0  0
 18 19  1  0  0  0  0
 19 20  1  0  0  0  0
 19 21  2  0  0  0  0
 21 15  1  0  0  0  0
 22  1  1  0  0  0  0
 23 22  1  0  0  0  0
 24 25  2  0  0  0  0
 25 26  1  0  0  0  0
 26 23  1  0  0  0  0
 26 27  2  0  0  0  0
 27 28  1  0  0  0  0
 28 29  2  0  0  0  0
 29 30  1  0  0  0  0
 29 24  1  0  0  0  0
 30 31  1  0  0  0  0
 32 33  2  0  0  0  0
 33 34  1  0  0  0  0
 33 24  1  0  0  0  0
 34 35  1  0  0  0  0
M  END
>  <Activity>
15.2

>  <minimizedAffinity>
-8.94070

>  <RFScoreVS_v2>
5.96477936417

$$$$
HIPS6774
 OpenBabel05252300073D

 35 38  0  0  0  0  0  0  0  0999 V2000
   70.1737   78.6766   90.4840 C   0  0  0  0  0  0  0  0  0  0  0  0
   68.7951   78.8516   90.6692 C   0  0  0  0  0  0  0  0  0  0  0  0
   68.2265   80.1058   90.4566 C   0  0  0  0  0  0  0  0  0  0  0  0
   69.0069   81.1499   90.0765 N   0  0  0  0  0  0  0  0  0  0  0  0
   70.3526   81.0257   89.8801 C   0  0  0  0  0  0  0  0  0  0  0  0
   70.9594   79.7732   90.0973 C   0  0  0  0  0  0  0  0  0  0  0  0
   71.1333   82.2252   89.4818 C   0  0  0  0  0  0  0  0  0  0  0  0
   72.4039   82.4951   90.0284 C   0  0  0  0  0  0  0  0  0  0  0  0
   73.1365   83.6068   89.5996 C   0  0  0  0  0  0  0  0  0  0  0  0
   72.6181   84.4549   88.6217 C   0  0  0  0  0  0  0  0  0  0  0  0
   71.3587   84.2094   88.0591 C   0  0  0  0  0  0  0  0  0  0  0  0
   70.6178   83.0973   88.5044 C   0  0  0  0  0  0  0  0  0  0  0  0
   70.8822   85.0897   87.0712 O   0  0  0  0  0  0  0  0  0  0  0  0
   69.6612   85.8226   87.1467 C   0  0  0  0  0  0  0  0  0  0  0  0
   69.5922   86.6250   88.4218 C   0  0  0  0  0  0  0  0  0  0  0  0
   70.2451   87.8658   88.5246 C   0  0  0  0  0  0  0  0  0  0  0  0
   70.1817   88.5995   89.7131 C   0  0  0  0  0  0  0  0  0  0  0  0
   69.4443   88.1110   90.7986 C   0  0  0  0  0  0  0  0  0  0  0  0
   68.7745   86.8853   90.6988 C   0  0  0  0  0  0  0  0  0  0  0  0
   67.8381   86.2832   92.0581 Cl  0  0  0  0  0  0  0  0  0  0  0  0
   68.8483   86.1431   89.5142 C   0  0  0  0  0  0  0  0  0  0  0  0
   70.8036   77.3487   90.8050 C   0  0  0  0  0  0  0  0  0  0  0  0
   70.2600   76.7772   91.9929 O   0  0  0  0  0  0  0  0  0  0  0  0
   67.9913   74.1169   90.7495 C   0  0  0  0  0  0  0  0  0  0  0  0
   68.7879   75.2737   90.8133 C   0  0  0  0  0  0  0  0  0  0  0  0
   69.4251   75.6520   92.0050 C   0  0  0  0  0  0  0  0  0  0  0  0
   69.2268   74.8820   93.1618 C   0  0  0  0  0  0  0  0  0  0  0  0
   68.4029   73.7598   93.1275 C   0  0  0  0  0  0  0  0  0  0  0  0
   67.7835   73.3644   91.9328 C   0  0  0  0  0  0  0  0  0  0  0  0
   66.9701   72.2313   91.9252 O   0  0  0  0  0  0  0  0  0  0  0  0
   66.8406   71.7423   92.7139 H   0  0  0  0  0  0  0  0  0  0  0  0
   67.3410   72.4864   89.1216 O   0  0  0  0  0  0  0  0  0  0  0  0
   67.4132   73.7017   89.4423 C   0  0  0  0  0  0  0  0  0  0  0  0
   66.9676   74.6659   88.5413 O   0  0  0  0  0  0  0  0  0  0  0  0
   67.0150   75.5744   88.7658 H   0  0  0  0  0  0  0  0  0  0  0  0
  1  2  2  0  0  0  0
  2  3  1  0  0  0  0
  3  4  2  0  0  0  0
  4  5  2  0  0  0  0
  5  7  1  0  0  0  0
  5  6  2  0  0  0  0
  6  1  1  0  0  0  0
  7  8  2  0  0  0  0
  8  9  1  0  0  0  0
  9 10  2  0  0  0  0
 10 11  1  0  0  0  0
 11 13  1  0  0  0  0
 11 12  2  0  0  0  0
 12  7  1  0  0  0  0
 13 14  1  0  0  0  0
 14 15  1  0  0  0  0
 15 16  2  0  0  0  0
 16 17  1  0  0  0  0
 17 18  2  0  0  0  0
 18 19  1  0  0  0  0
 19 20  1  0  0  0  0
 19 21  2  0  0  0  0
 21 15  1  0  0  0  0
 22  1  1  0  0  0  0
 23 22  1  0  0  0  0
 24 25  2  0  0  0  0
 25 26  1  0  0  0  0
 26 23  1  0  0  0  0
 26 27  2  0  0  0  0
 27 28  1  0  0  0  0
 28 29  2  0  0  0  0
 29 30  1  0  0  0  0
 29 24  1  0  0  0  0
 30 31  1  0  0  0  0
 32 33  2  0  0  0  0
 33 34  1  0  0  0  0
 33 24  1  0  0  0  0
 34 35  1  0  0  0  0
M  END
>  <Activity>
15.2

>  <minimizedAffinity>
-8.93681

>  <RFScoreVS_v2>
5.98259635777

$$$$
HIPS6774
 OpenBabel05252300073D

 35 38  0  0  0  0  0  0  0  0999 V2000
   69.0193   73.5223   90.9529 C   0  0  0  0  0  0  0  0  0  0  0  0
   68.1610   72.6068   90.3281 C   0  0  0  0  0  0  0  0  0  0  0  0
   67.2512   73.0581   89.3739 C   0  0  0  0  0  0  0  0  0  0  0  0
   67.1972   74.3774   89.0574 N   0  0  0  0  0  0  0  0  0  0  0  0
   68.0159   75.3042   89.6367 C   0  0  0  0  0  0  0  0  0  0  0  0
   68.9391   74.8815   90.6129 C   0  0  0  0  0  0  0  0  0  0  0  0
   67.8764   76.7302   89.2439 C   0  0  0  0  0  0  0  0  0  0  0  0
   66.9304   77.1433   88.2844 C   0  0  0  0  0  0  0  0  0  0  0  0
   66.7891   78.4987   87.9688 C   0  0  0  0  0  0  0  0  0  0  0  0
   67.5792   79.4544   88.6063 C   0  0  0  0  0  0  0  0  0  0  0  0
   68.5259   79.0725   89.5659 C   0  0  0  0  0  0  0  0  0  0  0  0
   68.6755   77.7052   89.8700 C   0  0  0  0  0  0  0  0  0  0  0  0
   69.2941   80.0740   90.1861 O   0  0  0  0  0  0  0  0  0  0  0  0
   68.9793   81.4649   90.1880 C   0  0  0  0  0  0  0  0  0  0  0  0
   70.1244   82.2774   89.6374 C   0  0  0  0  0  0  0  0  0  0  0  0
   71.3936   82.2286   90.2400 C   0  0  0  0  0  0  0  0  0  0  0  0
   72.4475   82.9907   89.7271 C   0  0  0  0  0  0  0  0  0  0  0  0
   72.2478   83.7872   88.5929 C   0  0  0  0  0  0  0  0  0  0  0  0
   70.9922   83.8271   87.9741 C   0  0  0  0  0  0  0  0  0  0  0  0
   70.7500   84.8162   86.5423 Cl  0  0  0  0  0  0  0  0  0  0  0  0
   69.9325   83.0751   88.4946 C   0  0  0  0  0  0  0  0  0  0  0  0
   69.9346   73.0524   92.0504 C   0  0  0  0  0  0  0  0  0  0  0  0
   69.9686   73.9696   93.1417 O   0  0  0  0  0  0  0  0  0  0  0  0
   67.1289   76.1338   94.1530 C   0  0  0  0  0  0  0  0  0  0  0  0
   68.3074   75.6728   93.5404 C   0  0  0  0  0  0  0  0  0  0  0  0
   68.8285   74.4027   93.8316 C   0  0  0  0  0  0  0  0  0  0  0  0
   68.1815   73.5988   94.7831 C   0  0  0  0  0  0  0  0  0  0  0  0
   67.0397   74.0594   95.4339 C   0  0  0  0  0  0  0  0  0  0  0  0
   66.5018   75.3182   95.1283 C   0  0  0  0  0  0  0  0  0  0  0  0
   65.3523   75.7509   95.7894 O   0  0  0  0  0  0  0  0  0  0  0  0
   64.9471   75.2026   96.4321 H   0  0  0  0  0  0  0  0  0  0  0  0
   67.2593   78.2914   93.1238 O   0  0  0  0  0  0  0  0  0  0  0  0
   66.5604   77.4469   93.7431 C   0  0  0  0  0  0  0  0  0  0  0  0
   65.2447   77.7673   94.0688 O   0  0  0  0  0  0  0  0  0  0  0  0
   64.7123   77.1491   94.5296 H   0  0  0  0  0  0  0  0  0  0  0  0
  1  2  2  0  0  0  0
  2  3  1  0  0  0  0
  3  4  2  0  0  0  0
  4  5  2  0  0  0  0
  5  7  1  0  0  0  0
  5  6  2  0  0  0  0
  6  1  1  0  0  0  0
  7  8  2  0  0  0  0
  8  9  1  0  0  0  0
  9 10  2  0  0  0  0
 10 11  1  0  0  0  0
 11 13  1  0  0  0  0
 11 12  2  0  0  0  0
 12  7  1  0  0  0  0
 13 14  1  0  0  0  0
 14 15  1  0  0  0  0
 15 16  2  0  0  0  0
 16 17  1  0  0  0  0
 17 18  2  0  0  0  0
 18 19  1  0  0  0  0
 19 20  1  0  0  0  0
 19 21  2  0  0  0  0
 21 15  1  0  0  0  0
 22  1  1  0  0  0  0
 23 22  1  0  0  0  0
 24 25  2  0  0  0  0
 25 26  1  0  0  0  0
 26 23  1  0  0  0  0
 26 27  2  0  0  0  0
 27 28  1  0  0  0  0
 28 29  2  0  0  0  0
 29 30  1  0  0  0  0
 29 24  1  0  0  0  0
 30 31  1  0  0  0  0
 32 33  2  0  0  0  0
 33 34  1  0  0  0  0
 33 24  1  0  0  0  0
 34 35  1  0  0  0  0
M  END
>  <Activity>
15.2

>  <minimizedAffinity>
-8.90395

>  <RFScoreVS_v2>
5.96764213471

$$$$
HIPS6774
 OpenBabel05252300073D

 35 38  0  0  0  0  0  0  0  0999 V2000
   67.3616   80.5334   88.5516 C   0  0  0  0  0  0  0  0  0  0  0  0
   66.5777   79.6317   87.8182 C   0  0  0  0  0  0  0  0  0  0  0  0
   66.8741   78.2709   87.8601 C   0  0  0  0  0  0  0  0  0  0  0  0
   67.9188   77.8258   88.6045 N   0  0  0  0  0  0  0  0  0  0  0  0
   68.7069   78.6661   89.3378 C   0  0  0  0  0  0  0  0  0  0  0  0
   68.4399   80.0487   89.3080 C   0  0  0  0  0  0  0  0  0  0  0  0
   69.8406   78.0952   90.1097 C   0  0  0  0  0  0  0  0  0  0  0  0
   71.1794   78.3948   89.7873 C   0  0  0  0  0  0  0  0  0  0  0  0
   72.2251   77.8804   90.5610 C   0  0  0  0  0  0  0  0  0  0  0  0
   71.9512   77.0715   91.6632 C   0  0  0  0  0  0  0  0  0  0  0  0
   70.6297   76.7594   92.0084 C   0  0  0  0  0  0  0  0  0  0  0  0
   69.5802   77.2671   91.2178 C   0  0  0  0  0  0  0  0  0  0  0  0
   70.4045   75.9453   93.1328 O   0  0  0  0  0  0  0  0  0  0  0  0
   69.2175   75.1931   93.3753 C   0  0  0  0  0  0  0  0  0  0  0  0
   69.1693   73.9653   92.5009 C   0  0  0  0  0  0  0  0  0  0  0  0
   69.9362   72.8299   92.8158 C   0  0  0  0  0  0  0  0  0  0  0  0
   69.8909   71.6987   91.9954 C   0  0  0  0  0  0  0  0  0  0  0  0
   69.0595   71.6841   90.8688 C   0  0  0  0  0  0  0  0  0  0  0  0
   68.2771   72.8032   90.5581 C   0  0  0  0  0  0  0  0  0  0  0  0
   67.2239   72.7751   89.1519 Cl  0  0  0  0  0  0  0  0  0  0  0  0
   68.3317   73.9416   91.3709 C   0  0  0  0  0  0  0  0  0  0  0  0
   67.1027   82.0105   88.4322 C   0  0  0  0  0  0  0  0  0  0  0  0
   67.7671   82.5758   87.3042 O   0  0  0  0  0  0  0  0  0  0  0  0
   71.0578   83.9263   88.3614 C   0  0  0  0  0  0  0  0  0  0  0  0
   69.9077   83.1224   88.2727 C   0  0  0  0  0  0  0  0  0  0  0  0
   68.8588   83.4489   87.3995 C   0  0  0  0  0  0  0  0  0  0  0  0
   68.9453   84.6222   86.6339 C   0  0  0  0  0  0  0  0  0  0  0  0
   70.0564   85.4545   86.7448 C   0  0  0  0  0  0  0  0  0  0  0  0
   71.1178   85.1194   87.5983 C   0  0  0  0  0  0  0  0  0  0  0  0
   72.2223   85.9671   87.6834 O   0  0  0  0  0  0  0  0  0  0  0  0
   72.2501   86.7529   87.1738 H   0  0  0  0  0  0  0  0  0  0  0  0
   72.0868   82.4686   89.9575 O   0  0  0  0  0  0  0  0  0  0  0  0
   72.1859   83.4908   89.2293 C   0  0  0  0  0  0  0  0  0  0  0  0
   73.3633   84.2339   89.2644 O   0  0  0  0  0  0  0  0  0  0  0  0
   73.4518   84.9971   88.7281 H   0  0  0  0  0  0  0  0  0  0  0  0
  1  2  2  0  0  0  0
  2  3  1  0  0  0  0
  3  4  2  0  0  0  0
  4  5  2  0  0  0  0
  5  7  1  0  0  0  0
  5  6  2  0  0  0  0
  6  1  1  0  0  0  0
  7  8  2  0  0  0  0
  8  9  1  0  0  0  0
  9 10  2  0  0  0  0
 10 11  1  0  0  0  0
 11 13  1  0  0  0  0
 11 12  2  0  0  0  0
 12  7  1  0  0  0  0
 13 14  1  0  0  0  0
 14 15  1  0  0  0  0
 15 16  2  0  0  0  0
 16 17  1  0  0  0  0
 17 18  2  0  0  0  0
 18 19  1  0  0  0  0
 19 20  1  0  0  0  0
 19 21  2  0  0  0  0
 21 15  1  0  0  0  0
 22  1  1  0  0  0  0
 23 22  1  0  0  0  0
 24 25  2  0  0  0  0
 25 26  1  0  0  0  0
 26 23  1  0  0  0  0
 26 27  2  0  0  0  0
 27 28  1  0  0  0  0
 28 29  2  0  0  0  0
 29 30  1  0  0  0  0
 29 24  1  0  0  0  0
 30 31  1  0  0  0  0
 32 33  2  0  0  0  0
 33 34  1  0  0  0  0
 33 24  1  0  0  0  0
 34 35  1  0  0  0  0
M  END
>  <Activity>
15.2

>  <minimizedAffinity>
-8.90361

>  <RFScoreVS_v2>
5.98307869558

$$$$
HIPS6066
 OpenBabel05252300073D

 34 37  0  0  0  0  0  0  0  0999 V2000
   70.0521   78.5642   90.6387 C   0  0  0  0  0  0  0  0  0  0  0  0
   68.6552   78.6789   90.6379 C   0  0  0  0  0  0  0  0  0  0  0  0
   68.0513   79.8786   90.2618 C   0  0  0  0  0  0  0  0  0  0  0  0
   68.8348   80.9736   89.8891 C   0  0  0  0  0  0  0  0  0  0  0  0
   70.2358   80.8809   89.8964 C   0  0  0  0  0  0  0  0  0  0  0  0
   70.8360   79.6710   90.2798 C   0  0  0  0  0  0  0  0  0  0  0  0
   71.0714   82.0375   89.4912 C   0  0  0  0  0  0  0  0  0  0  0  0
   72.3548   82.2133   90.0356 C   0  0  0  0  0  0  0  0  0  0  0  0
   73.1303   83.3163   89.6720 C   0  0  0  0  0  0  0  0  0  0  0  0
   72.6387   84.2510   88.7589 C   0  0  0  0  0  0  0  0  0  0  0  0
   71.3722   84.0863   88.1882 C   0  0  0  0  0  0  0  0  0  0  0  0
   70.5854   82.9793   88.5651 C   0  0  0  0  0  0  0  0  0  0  0  0
   70.9411   85.0348   87.2463 O   0  0  0  0  0  0  0  0  0  0  0  0
   69.6843   85.7159   87.2818 C   0  0  0  0  0  0  0  0  0  0  0  0
   69.5532   86.5484   88.5335 C   0  0  0  0  0  0  0  0  0  0  0  0
   70.1652   87.8124   88.6187 C   0  0  0  0  0  0  0  0  0  0  0  0
   70.0225   88.5877   89.7728 C   0  0  0  0  0  0  0  0  0  0  0  0
   69.2747   88.1061   90.8512 C   0  0  0  0  0  0  0  0  0  0  0  0
   68.6876   86.8388   90.7865 C   0  0  0  0  0  0  0  0  0  0  0  0
   68.8274   86.0592   89.6342 C   0  0  0  0  0  0  0  0  0  0  0  0
   70.7180   77.2585   90.9845 C   0  0  0  0  0  0  0  0  0  0  0  0
   70.0849   76.6658   92.1193 O   0  0  0  0  0  0  0  0  0  0  0  0
   67.6416   74.1134   93.2556 C   0  0  0  0  0  0  0  0  0  0  0  0
   68.4855   75.2407   93.2212 C   0  0  0  0  0  0  0  0  0  0  0  0
   69.2282   75.5529   92.0768 C   0  0  0  0  0  0  0  0  0  0  0  0
   69.0969   74.7482   90.9332 C   0  0  0  0  0  0  0  0  0  0  0  0
   68.2530   73.6371   90.9501 C   0  0  0  0  0  0  0  0  0  0  0  0
   67.5313   73.3054   92.1029 C   0  0  0  0  0  0  0  0  0  0  0  0
   66.7055   72.1793   92.0942 O   0  0  0  0  0  0  0  0  0  0  0  0
   66.6412   71.6514   91.3228 H   0  0  0  0  0  0  0  0  0  0  0  0
   67.5288   73.5158   95.5580 O   0  0  0  0  0  0  0  0  0  0  0  0
   66.9023   73.7890   94.4992 C   0  0  0  0  0  0  0  0  0  0  0  0
   65.5103   73.7707   94.5149 O   0  0  0  0  0  0  0  0  0  0  0  0
   65.0304   73.9716   93.7356 H   0  0  0  0  0  0  0  0  0  0  0  0
  1  2  2  0  0  0  0
  2  3  1  0  0  0  0
  3  4  2  0  0  0  0
  4  5  1  0  0  0  0
  5  7  1  0  0  0  0
  5  6  2  0  0  0  0
  6  1  1  0  0  0  0
  7  8  2  0  0  0  0
  8  9  1  0  0  0  0
  9 10  2  0  0  0  0
 10 11  1  0  0  0  0
 11 13  1  0  0  0  0
 11 12  2  0  0  0  0
 12  7  1  0  0  0  0
 13 14  1  0  0  0  0
 14 15  1  0  0  0  0
 15 16  2  0  0  0  0
 16 17  1  0  0  0  0
 17 18  2  0  0  0  0
 18 19  1  0  0  0  0
 19 20  2  0  0  0  0
 20 15  1  0  0  0  0
 21  1  1  0  0  0  0
 22 21  1  0  0  0  0
 23 24  2  0  0  0  0
 24 25  1  0  0  0  0
 25 22  1  0  0  0  0
 25 26  2  0  0  0  0
 26 27  1  0  0  0  0
 27 28  2  0  0  0  0
 28 29  1  0  0  0  0
 28 23  1  0  0  0  0
 29 30  1  0  0  0  0
 31 32  2  0  0  0  0
 32 33  1  0  0  0  0
 32 23  1  0  0  0  0
 33 34  1  0  0  0  0
M  END
>  <Activity>
15.4

>  <minimizedAffinity>
-9.49865

>  <RFScoreVS_v2>
5.97198352225

$$$$
HIPS6066
 OpenBabel05252300073D

 34 37  0  0  0  0  0  0  0  0999 V2000
   69.0680   73.6500   91.1115 C   0  0  0  0  0  0  0  0  0  0  0  0
   68.2537   72.6702   90.5275 C   0  0  0  0  0  0  0  0  0  0  0  0
   67.3366   73.0211   89.5370 C   0  0  0  0  0  0  0  0  0  0  0  0
   67.2209   74.3510   89.1253 C   0  0  0  0  0  0  0  0  0  0  0  0
   68.0195   75.3479   89.7082 C   0  0  0  0  0  0  0  0  0  0  0  0
   68.9375   74.9871   90.7072 C   0  0  0  0  0  0  0  0  0  0  0  0
   67.9077   76.7596   89.2667 C   0  0  0  0  0  0  0  0  0  0  0  0
   66.9666   77.1271   88.2901 C   0  0  0  0  0  0  0  0  0  0  0  0
   66.8798   78.4520   87.8575 C   0  0  0  0  0  0  0  0  0  0  0  0
   67.7240   79.4244   88.3967 C   0  0  0  0  0  0  0  0  0  0  0  0
   68.6549   79.0863   89.3847 C   0  0  0  0  0  0  0  0  0  0  0  0
   68.7501   77.7466   89.8119 C   0  0  0  0  0  0  0  0  0  0  0  0
   69.4534   80.1097   89.9211 O   0  0  0  0  0  0  0  0  0  0  0  0
   69.1888   81.5094   89.7963 C   0  0  0  0  0  0  0  0  0  0  0  0
   70.4521   82.2754   89.4887 C   0  0  0  0  0  0  0  0  0  0  0  0
   70.4811   83.2158   88.4428 C   0  0  0  0  0  0  0  0  0  0  0  0
   71.6481   83.9373   88.1764 C   0  0  0  0  0  0  0  0  0  0  0  0
   72.7949   83.7218   88.9462 C   0  0  0  0  0  0  0  0  0  0  0  0
   72.7837   82.7680   89.9685 C   0  0  0  0  0  0  0  0  0  0  0  0
   71.6188   82.0436   90.2389 C   0  0  0  0  0  0  0  0  0  0  0  0
   70.1043   73.2787   92.1392 C   0  0  0  0  0  0  0  0  0  0  0  0
   70.0126   74.1465   93.2698 O   0  0  0  0  0  0  0  0  0  0  0  0
   66.9319   76.0366   94.1138 C   0  0  0  0  0  0  0  0  0  0  0  0
   68.1112   75.6118   93.4711 C   0  0  0  0  0  0  0  0  0  0  0  0
   68.8202   74.4944   93.9266 C   0  0  0  0  0  0  0  0  0  0  0  0
   68.3227   73.7647   95.0186 C   0  0  0  0  0  0  0  0  0  0  0  0
   67.1475   74.1670   95.6545 C   0  0  0  0  0  0  0  0  0  0  0  0
   66.4520   75.3015   95.2196 C   0  0  0  0  0  0  0  0  0  0  0  0
   65.2865   75.6877   95.8848 O   0  0  0  0  0  0  0  0  0  0  0  0
   64.9788   75.1911   96.6174 H   0  0  0  0  0  0  0  0  0  0  0  0
   66.4743   77.7106   92.4830 O   0  0  0  0  0  0  0  0  0  0  0  0
   66.2300   77.2499   93.6302 C   0  0  0  0  0  0  0  0  0  0  0  0
   65.3015   77.9030   94.4361 O   0  0  0  0  0  0  0  0  0  0  0  0
   65.1091   77.5725   95.2916 H   0  0  0  0  0  0  0  0  0  0  0  0
  1  2  2  0  0  0  0
  2  3  1  0  0  0  0
  3  4  2  0  0  0  0
  4  5  1  0  0  0  0
  5  7  1  0  0  0  0
  5  6  2  0  0  0  0
  6  1  1  0  0  0  0
  7  8  2  0  0  0  0
  8  9  1  0  0  0  0
  9 10  2  0  0  0  0
 10 11  1  0  0  0  0
 11 13  1  0  0  0  0
 11 12  2  0  0  0  0
 12  7  1  0  0  0  0
 13 14  1  0  0  0  0
 14 15  1  0  0  0  0
 15 16  2  0  0  0  0
 16 17  1  0  0  0  0
 17 18  2  0  0  0  0
 18 19  1  0  0  0  0
 19 20  2  0  0  0  0
 20 15  1  0  0  0  0
 21  1  1  0  0  0  0
 22 21  1  0  0  0  0
 23 24  2  0  0  0  0
 24 25  1  0  0  0  0
 25 22  1  0  0  0  0
 25 26  2  0  0  0  0
 26 27  1  0  0  0  0
 27 28  2  0  0  0  0
 28 29  1  0  0  0  0
 28 23  1  0  0  0  0
 29 30  1  0  0  0  0
 31 32  2  0  0  0  0
 32 33  1  0  0  0  0
 32 23  1  0  0  0  0
 33 34  1  0  0  0  0
M  END
>  <Activity>
15.4

>  <minimizedAffinity>
-9.45888

>  <RFScoreVS_v2>
5.97905586274

$$$$
HIPS6066
 OpenBabel05252300073D

 34 37  0  0  0  0  0  0  0  0999 V2000
   67.2104   79.2762   88.8140 C   0  0  0  0  0  0  0  0  0  0  0  0
   66.8439   79.0817   87.4753 C   0  0  0  0  0  0  0  0  0  0  0  0
   66.8852   77.8045   86.9163 C   0  0  0  0  0  0  0  0  0  0  0  0
   67.2968   76.7134   87.6855 C   0  0  0  0  0  0  0  0  0  0  0  0
   67.6799   76.8914   89.0246 C   0  0  0  0  0  0  0  0  0  0  0  0
   67.6390   78.1808   89.5786 C   0  0  0  0  0  0  0  0  0  0  0  0
   68.1074   75.7343   89.8482 C   0  0  0  0  0  0  0  0  0  0  0  0
   67.7407   74.4277   89.4840 C   0  0  0  0  0  0  0  0  0  0  0  0
   68.1228   73.3415   90.2742 C   0  0  0  0  0  0  0  0  0  0  0  0
   68.8783   73.5447   91.4305 C   0  0  0  0  0  0  0  0  0  0  0  0
   69.2724   74.8344   91.8023 C   0  0  0  0  0  0  0  0  0  0  0  0
   68.8759   75.9310   91.0108 C   0  0  0  0  0  0  0  0  0  0  0  0
   70.0639   74.9795   92.9535 O   0  0  0  0  0  0  0  0  0  0  0  0
   69.6670   75.6679   94.1424 C   0  0  0  0  0  0  0  0  0  0  0  0
   68.2600   75.2956   94.5412 C   0  0  0  0  0  0  0  0  0  0  0  0
   67.1675   76.0753   94.1195 C   0  0  0  0  0  0  0  0  0  0  0  0
   65.8651   75.7133   94.4746 C   0  0  0  0  0  0  0  0  0  0  0  0
   65.6437   74.5762   95.2570 C   0  0  0  0  0  0  0  0  0  0  0  0
   66.7257   73.8123   95.7051 C   0  0  0  0  0  0  0  0  0  0  0  0
   68.0305   74.1702   95.3526 C   0  0  0  0  0  0  0  0  0  0  0  0
   67.1146   80.6382   89.4494 C   0  0  0  0  0  0  0  0  0  0  0  0
   68.3910   81.2790   89.4404 O   0  0  0  0  0  0  0  0  0  0  0  0
   70.4791   83.9189   87.8763 C   0  0  0  0  0  0  0  0  0  0  0  0
   70.0541   82.8542   88.6948 C   0  0  0  0  0  0  0  0  0  0  0  0
   68.7709   82.3107   88.5655 C   0  0  0  0  0  0  0  0  0  0  0  0
   67.9100   82.8124   87.5757 C   0  0  0  0  0  0  0  0  0  0  0  0
   68.3247   83.8571   86.7488 C   0  0  0  0  0  0  0  0  0  0  0  0
   69.5971   84.4225   86.8954 C   0  0  0  0  0  0  0  0  0  0  0  0
   69.9788   85.4765   86.0627 O   0  0  0  0  0  0  0  0  0  0  0  0
   69.3840   85.8015   85.4157 H   0  0  0  0  0  0  0  0  0  0  0  0
   72.7395   83.8201   88.6190 O   0  0  0  0  0  0  0  0  0  0  0  0
   71.8301   84.4981   88.0699 C   0  0  0  0  0  0  0  0  0  0  0  0
   72.1120   85.7983   87.6596 O   0  0  0  0  0  0  0  0  0  0  0  0
   71.4463   86.3149   87.2498 H   0  0  0  0  0  0  0  0  0  0  0  0
  1  2  2  0  0  0  0
  2  3  1  0  0  0  0
  3  4  2  0  0  0  0
  4  5  1  0  0  0  0
  5  7  1  0  0  0  0
  5  6  2  0  0  0  0
  6  1  1  0  0  0  0
  7  8  2  0  0  0  0
  8  9  1  0  0  0  0
  9 10  2  0  0  0  0
 10 11  1  0  0  0  0
 11 13  1  0  0  0  0
 11 12  2  0  0  0  0
 12  7  1  0  0  0  0
 13 14  1  0  0  0  0
 14 15  1  0  0  0  0
 15 16  2  0  0  0  0
 16 17  1  0  0  0  0
 17 18  2  0  0  0  0
 18 19  1  0  0  0  0
 19 20  2  0  0  0  0
 20 15  1  0  0  0  0
 21  1  1  0  0  0  0
 22 21  1  0  0  0  0
 23 24  2  0  0  0  0
 24 25  1  0  0  0  0
 25 22  1  0  0  0  0
 25 26  2  0  0  0  0
 26 27  1  0  0  0  0
 27 28  2  0  0  0  0
 28 29  1  0  0  0  0
 28 23  1  0  0  0  0
 29 30  1  0  0  0  0
 31 32  2  0  0  0  0
 32 33  1  0  0  0  0
 32 23  1  0  0  0  0
 33 34  1  0  0  0  0
M  END
>  <Activity>
15.4

>  <minimizedAffinity>
-9.41643

>  <RFScoreVS_v2>
6.02789082638

$$$$
HIPS6066
 OpenBabel05252300073D

 34 37  0  0  0  0  0  0  0  0999 V2000
   66.8751   79.3809   87.9976 C   0  0  0  0  0  0  0  0  0  0  0  0
   66.3561   78.2975   87.2756 C   0  0  0  0  0  0  0  0  0  0  0  0
   66.8571   77.0126   87.4840 C   0  0  0  0  0  0  0  0  0  0  0  0
   67.8819   76.7991   88.4092 C   0  0  0  0  0  0  0  0  0  0  0  0
   68.4227   77.8743   89.1321 C   0  0  0  0  0  0  0  0  0  0  0  0
   67.9155   79.1651   88.9138 C   0  0  0  0  0  0  0  0  0  0  0  0
   69.5035   77.6508   90.1232 C   0  0  0  0  0  0  0  0  0  0  0  0
   70.7666   78.2394   89.9433 C   0  0  0  0  0  0  0  0  0  0  0  0
   71.7905   78.0076   90.8642 C   0  0  0  0  0  0  0  0  0  0  0  0
   71.5654   77.1933   91.9756 C   0  0  0  0  0  0  0  0  0  0  0  0
   70.3102   76.6128   92.1866 C   0  0  0  0  0  0  0  0  0  0  0  0
   69.2811   76.8374   91.2502 C   0  0  0  0  0  0  0  0  0  0  0  0
   70.1259   75.8335   93.3404 O   0  0  0  0  0  0  0  0  0  0  0  0
   69.4354   76.2592   94.5181 C   0  0  0  0  0  0  0  0  0  0  0  0
   68.1066   75.5568   94.6521 C   0  0  0  0  0  0  0  0  0  0  0  0
   67.9781   74.4206   95.4718 C   0  0  0  0  0  0  0  0  0  0  0  0
   66.7399   73.7869   95.6083 C   0  0  0  0  0  0  0  0  0  0  0  0
   65.6237   74.2774   94.9244 C   0  0  0  0  0  0  0  0  0  0  0  0
   65.7488   75.3883   94.0846 C   0  0  0  0  0  0  0  0  0  0  0  0
   66.9854   76.0257   93.9445 C   0  0  0  0  0  0  0  0  0  0  0  0
   66.3049   80.7643   87.8279 C   0  0  0  0  0  0  0  0  0  0  0  0
   67.0923   81.7152   88.5461 O   0  0  0  0  0  0  0  0  0  0  0  0
   70.1244   83.7457   87.8686 C   0  0  0  0  0  0  0  0  0  0  0  0
   69.2530   82.7684   88.3880 C   0  0  0  0  0  0  0  0  0  0  0  0
   67.9236   82.6838   87.9588 C   0  0  0  0  0  0  0  0  0  0  0  0
   67.4662   83.5648   86.9652 C   0  0  0  0  0  0  0  0  0  0  0  0
   68.3240   84.5279   86.4324 C   0  0  0  0  0  0  0  0  0  0  0  0
   69.6459   84.6341   86.8809 C   0  0  0  0  0  0  0  0  0  0  0  0
   70.4766   85.6171   86.3390 O   0  0  0  0  0  0  0  0  0  0  0  0
   70.1468   86.2004   85.6841 H   0  0  0  0  0  0  0  0  0  0  0  0
   71.7709   83.5461   89.5775 O   0  0  0  0  0  0  0  0  0  0  0  0
   71.5142   83.8334   88.3776 C   0  0  0  0  0  0  0  0  0  0  0  0
   72.5520   84.2428   87.5447 O   0  0  0  0  0  0  0  0  0  0  0  0
   72.3770   84.4598   86.6502 H   0  0  0  0  0  0  0  0  0  0  0  0
  1  2  2  0  0  0  0
  2  3  1  0  0  0  0
  3  4  2  0  0  0  0
  4  5  1  0  0  0  0
  5  7  1  0  0  0  0
  5  6  2  0  0  0  0
  6  1  1  0  0  0  0
  7  8  2  0  0  0  0
  8  9  1  0  0  0  0
  9 10  2  0  0  0  0
 10 11  1  0  0  0  0
 11 13  1  0  0  0  0
 11 12  2  0  0  0  0
 12  7  1  0  0  0  0
 13 14  1  0  0  0  0
 14 15  1  0  0  0  0
 15 16  2  0  0  0  0
 16 17  1  0  0  0  0
 17 18  2  0  0  0  0
 18 19  1  0  0  0  0
 19 20  2  0  0  0  0
 20 15  1  0  0  0  0
 21  1  1  0  0  0  0
 22 21  1  0  0  0  0
 23 24  2  0  0  0  0
 24 25  1  0  0  0  0
 25 22  1  0  0  0  0
 25 26  2  0  0  0  0
 26 27  1  0  0  0  0
 27 28  2  0  0  0  0
 28 29  1  0  0  0  0
 28 23  1  0  0  0  0
 29 30  1  0  0  0  0
 31 32  2  0  0  0  0
 32 33  1  0  0  0  0
 32 23  1  0  0  0  0
 33 34  1  0  0  0  0
M  END
>  <Activity>
15.4

>  <minimizedAffinity>
-9.40348

>  <RFScoreVS_v2>
5.9883429367

$$$$
HIPS6066
 OpenBabel05252300073D

 34 37  0  0  0  0  0  0  0  0999 V2000
   67.5255   79.1680   88.4890 C   0  0  0  0  0  0  0  0  0  0  0  0
   66.8619   78.8610   87.2933 C   0  0  0  0  0  0  0  0  0  0  0  0
   66.6253   77.5313   86.9451 C   0  0  0  0  0  0  0  0  0  0  0  0
   67.0527   76.4984   87.7830 C   0  0  0  0  0  0  0  0  0  0  0  0
   67.7303   76.7868   88.9785 C   0  0  0  0  0  0  0  0  0  0  0  0
   67.9678   78.1278   89.3199 C   0  0  0  0  0  0  0  0  0  0  0  0
   68.1765   75.6938   89.8765 C   0  0  0  0  0  0  0  0  0  0  0  0
   67.8355   74.3596   89.5971 C   0  0  0  0  0  0  0  0  0  0  0  0
   68.2351   73.3344   90.4570 C   0  0  0  0  0  0  0  0  0  0  0  0
   68.9826   73.6264   91.5993 C   0  0  0  0  0  0  0  0  0  0  0  0
   69.3512   74.9447   91.8876 C   0  0  0  0  0  0  0  0  0  0  0  0
   68.9371   75.9800   91.0256 C   0  0  0  0  0  0  0  0  0  0  0  0
   70.1359   75.1792   93.0287 O   0  0  0  0  0  0  0  0  0  0  0  0
   69.6803   75.8237   94.2211 C   0  0  0  0  0  0  0  0  0  0  0  0
   68.2704   75.4054   94.5596 C   0  0  0  0  0  0  0  0  0  0  0  0
   67.1751   76.1889   94.1525 C   0  0  0  0  0  0  0  0  0  0  0  0
   65.8707   75.7851   94.4509 C   0  0  0  0  0  0  0  0  0  0  0  0
   65.6498   74.6019   95.1617 C   0  0  0  0  0  0  0  0  0  0  0  0
   66.7337   73.8324   95.5956 C   0  0  0  0  0  0  0  0  0  0  0  0
   68.0405   74.2320   95.2998 C   0  0  0  0  0  0  0  0  0  0  0  0
   67.7359   80.5990   88.9083 C   0  0  0  0  0  0  0  0  0  0  0  0
   68.8259   80.6901   89.8267 O   0  0  0  0  0  0  0  0  0  0  0  0
   70.8558   83.5760   88.6750 C   0  0  0  0  0  0  0  0  0  0  0  0
   69.7815   82.6881   88.8792 C   0  0  0  0  0  0  0  0  0  0  0  0
   69.9209   81.5610   89.6972 C   0  0  0  0  0  0  0  0  0  0  0  0
   71.1418   81.3370   90.3542 C   0  0  0  0  0  0  0  0  0  0  0  0
   72.2089   82.2173   90.1715 C   0  0  0  0  0  0  0  0  0  0  0  0
   72.0818   83.3295   89.3307 C   0  0  0  0  0  0  0  0  0  0  0  0
   73.1717   84.1850   89.1563 O   0  0  0  0  0  0  0  0  0  0  0  0
   73.9798   84.0101   89.5972 H   0  0  0  0  0  0  0  0  0  0  0  0
   70.9263   85.9038   88.1774 O   0  0  0  0  0  0  0  0  0  0  0  0
   70.6852   84.7365   87.7681 C   0  0  0  0  0  0  0  0  0  0  0  0
   70.2478   84.5574   86.4586 O   0  0  0  0  0  0  0  0  0  0  0  0
   70.0644   83.6957   86.1396 H   0  0  0  0  0  0  0  0  0  0  0  0
  1  2  2  0  0  0  0
  2  3  1  0  0  0  0
  3  4  2  0  0  0  0
  4  5  1  0  0  0  0
  5  7  1  0  0  0  0
  5  6  2  0  0  0  0
  6  1  1  0  0  0  0
  7  8  2  0  0  0  0
  8  9  1  0  0  0  0
  9 10  2  0  0  0  0
 10 11  1  0  0  0  0
 11 13  1  0  0  0  0
 11 12  2  0  0  0  0
 12  7  1  0  0  0  0
 13 14  1  0  0  0  0
 14 15  1  0  0  0  0
 15 16  2  0  0  0  0
 16 17  1  0  0  0  0
 17 18  2  0  0  0  0
 18 19  1  0  0  0  0
 19 20  2  0  0  0  0
 20 15  1  0  0  0  0
 21  1  1  0  0  0  0
 22 21  1  0  0  0  0
 23 24  2  0  0  0  0
 24 25  1  0  0  0  0
 25 22  1  0  0  0  0
 25 26  2  0  0  0  0
 26 27  1  0  0  0  0
 27 28  2  0  0  0  0
 28 29  1  0  0  0  0
 28 23  1  0  0  0  0
 29 30  1  0  0  0  0
 31 32  2  0  0  0  0
 32 33  1  0  0  0  0
 32 23  1  0  0  0  0
 33 34  1  0  0  0  0
M  END
>  <Activity>
15.4

>  <minimizedAffinity>
-9.38846

>  <RFScoreVS_v2>
5.97467025208

$$$$
HIPS6066
 OpenBabel05252300073D

 34 37  0  0  0  0  0  0  0  0999 V2000
   69.7898   76.5055   91.9598 C   0  0  0  0  0  0  0  0  0  0  0  0
   71.1660   76.7572   91.8760 C   0  0  0  0  0  0  0  0  0  0  0  0
   71.6538   77.6829   90.9537 C   0  0  0  0  0  0  0  0  0  0  0  0
   70.7745   78.3601   90.1052 C   0  0  0  0  0  0  0  0  0  0  0  0
   69.3940   78.1112   90.1662 C   0  0  0  0  0  0  0  0  0  0  0  0
   68.9115   77.1753   91.0948 C   0  0  0  0  0  0  0  0  0  0  0  0
   68.4557   78.8357   89.2747 C   0  0  0  0  0  0  0  0  0  0  0  0
   67.6289   78.1279   88.3860 C   0  0  0  0  0  0  0  0  0  0  0  0
   66.7641   78.8127   87.5297 C   0  0  0  0  0  0  0  0  0  0  0  0
   66.7095   80.2074   87.5539 C   0  0  0  0  0  0  0  0  0  0  0  0
   67.5083   80.9329   88.4441 C   0  0  0  0  0  0  0  0  0  0  0  0
   68.3896   80.2414   89.2994 C   0  0  0  0  0  0  0  0  0  0  0  0
   67.3867   82.3321   88.4545 O   0  0  0  0  0  0  0  0  0  0  0  0
   67.4324   83.1697   87.2964 C   0  0  0  0  0  0  0  0  0  0  0  0
   68.7091   83.9732   87.2576 C   0  0  0  0  0  0  0  0  0  0  0  0
   68.6678   85.3782   87.1972 C   0  0  0  0  0  0  0  0  0  0  0  0
   69.8537   86.1178   87.1828 C   0  0  0  0  0  0  0  0  0  0  0  0
   71.0877   85.4621   87.2223 C   0  0  0  0  0  0  0  0  0  0  0  0
   71.1383   84.0651   87.2526 C   0  0  0  0  0  0  0  0  0  0  0  0
   69.9548   83.3207   87.2671 C   0  0  0  0  0  0  0  0  0  0  0  0
   69.2416   75.5538   92.9901 C   0  0  0  0  0  0  0  0  0  0  0  0
   70.1945   74.5279   93.2722 O   0  0  0  0  0  0  0  0  0  0  0  0
   70.4051   70.8299   93.5086 C   0  0  0  0  0  0  0  0  0  0  0  0
   70.4784   72.2005   93.8251 C   0  0  0  0  0  0  0  0  0  0  0  0
   70.0558   73.1761   92.9150 C   0  0  0  0  0  0  0  0  0  0  0  0
   69.5140   72.7757   91.6826 C   0  0  0  0  0  0  0  0  0  0  0  0
   69.4225   71.4204   91.3634 C   0  0  0  0  0  0  0  0  0  0  0  0
   69.8717   70.4433   92.2597 C   0  0  0  0  0  0  0  0  0  0  0  0
   69.7803   69.0953   91.9065 O   0  0  0  0  0  0  0  0  0  0  0  0
   69.4243   68.8521   91.0746 H   0  0  0  0  0  0  0  0  0  0  0  0
   70.6393   69.9447   95.7069 O   0  0  0  0  0  0  0  0  0  0  0  0
   70.9015   69.8258   94.4800 C   0  0  0  0  0  0  0  0  0  0  0  0
   71.6708   68.7457   94.0559 O   0  0  0  0  0  0  0  0  0  0  0  0
   71.8741   68.6436   93.1470 H   0  0  0  0  0  0  0  0  0  0  0  0
  1  2  2  0  0  0  0
  2  3  1  0  0  0  0
  3  4  2  0  0  0  0
  4  5  1  0  0  0  0
  5  7  1  0  0  0  0
  5  6  2  0  0  0  0
  6  1  1  0  0  0  0
  7  8  2  0  0  0  0
  8  9  1  0  0  0  0
  9 10  2  0  0  0  0
 10 11  1  0  0  0  0
 11 13  1  0  0  0  0
 11 12  2  0  0  0  0
 12  7  1  0  0  0  0
 13 14  1  0  0  0  0
 14 15  1  0  0  0  0
 15 16  2  0  0  0  0
 16 17  1  0  0  0  0
 17 18  2  0  0  0  0
 18 19  1  0  0  0  0
 19 20  2  0  0  0  0
 20 15  1  0  0  0  0
 21  1  1  0  0  0  0
 22 21  1  0  0  0  0
 23 24  2  0  0  0  0
 24 25  1  0  0  0  0
 25 22  1  0  0  0  0
 25 26  2  0  0  0  0
 26 27  1  0  0  0  0
 27 28  2  0  0  0  0
 28 29  1  0  0  0  0
 28 23  1  0  0  0  0
 29 30  1  0  0  0  0
 31 32  2  0  0  0  0
 32 33  1  0  0  0  0
 32 23  1  0  0  0  0
 33 34  1  0  0  0  0
M  END
>  <Activity>
15.4

>  <minimizedAffinity>
-9.38389

>  <RFScoreVS_v2>
5.98041967449

$$$$
HIPS6066
 OpenBabel05252300073D

 34 37  0  0  0  0  0  0  0  0999 V2000
   68.0147   80.0187   89.5512 C   0  0  0  0  0  0  0  0  0  0  0  0
   67.3691   80.2255   88.3245 C   0  0  0  0  0  0  0  0  0  0  0  0
   66.9534   79.1358   87.5595 C   0  0  0  0  0  0  0  0  0  0  0  0
   67.1826   77.8330   88.0088 C   0  0  0  0  0  0  0  0  0  0  0  0
   67.8393   77.6068   89.2290 C   0  0  0  0  0  0  0  0  0  0  0  0
   68.2579   78.7090   89.9914 C   0  0  0  0  0  0  0  0  0  0  0  0
   68.0753   76.2255   89.7152 C   0  0  0  0  0  0  0  0  0  0  0  0
   68.8781   75.9965   90.8454 C   0  0  0  0  0  0  0  0  0  0  0  0
   69.1197   74.6938   91.2869 C   0  0  0  0  0  0  0  0  0  0  0  0
   68.5599   73.6076   90.6118 C   0  0  0  0  0  0  0  0  0  0  0  0
   67.7408   73.8118   89.4963 C   0  0  0  0  0  0  0  0  0  0  0  0
   67.5075   75.1261   89.0443 C   0  0  0  0  0  0  0  0  0  0  0  0
   67.1717   72.6869   88.8771 O   0  0  0  0  0  0  0  0  0  0  0  0
   66.4317   72.7086   87.6536 C   0  0  0  0  0  0  0  0  0  0  0  0
   66.9550   71.6773   86.6843 C   0  0  0  0  0  0  0  0  0  0  0  0
   66.6583   71.7705   85.3122 C   0  0  0  0  0  0  0  0  0  0  0  0
   67.1634   70.8239   84.4164 C   0  0  0  0  0  0  0  0  0  0  0  0
   67.9619   69.7756   84.8828 C   0  0  0  0  0  0  0  0  0  0  0  0
   68.2374   69.6586   86.2487 C   0  0  0  0  0  0  0  0  0  0  0  0
   67.7344   70.6028   87.1488 C   0  0  0  0  0  0  0  0  0  0  0  0
   68.4163   81.1837   90.4168 C   0  0  0  0  0  0  0  0  0  0  0  0
   69.8387   81.3095   90.4479 O   0  0  0  0  0  0  0  0  0  0  0  0
   70.5867   84.2445   88.3028 C   0  0  0  0  0  0  0  0  0  0  0  0
   69.8994   83.2169   88.9777 C   0  0  0  0  0  0  0  0  0  0  0  0
   70.5720   82.3410   89.8375 C   0  0  0  0  0  0  0  0  0  0  0  0
   71.9477   82.5178   90.0580 C   0  0  0  0  0  0  0  0  0  0  0  0
   72.6370   83.5413   89.4064 C   0  0  0  0  0  0  0  0  0  0  0  0
   71.9727   84.4006   88.5232 C   0  0  0  0  0  0  0  0  0  0  0  0
   72.6919   85.4068   87.8749 O   0  0  0  0  0  0  0  0  0  0  0  0
   73.6113   85.4997   88.0299 H   0  0  0  0  0  0  0  0  0  0  0  0
   69.0433   85.9891   87.8077 O   0  0  0  0  0  0  0  0  0  0  0  0
   69.8499   85.1272   87.3666 C   0  0  0  0  0  0  0  0  0  0  0  0
   70.0283   85.0115   85.9907 O   0  0  0  0  0  0  0  0  0  0  0  0
   70.6245   84.3753   85.6475 H   0  0  0  0  0  0  0  0  0  0  0  0
  1  2  2  0  0  0  0
  2  3  1  0  0  0  0
  3  4  2  0  0  0  0
  4  5  1  0  0  0  0
  5  7  1  0  0  0  0
  5  6  2  0  0  0  0
  6  1  1  0  0  0  0
  7  8  2  0  0  0  0
  8  9  1  0  0  0  0
  9 10  2  0  0  0  0
 10 11  1  0  0  0  0
 11 13  1  0  0  0  0
 11 12  2  0  0  0  0
 12  7  1  0  0  0  0
 13 14  1  0  0  0  0
 14 15  1  0  0  0  0
 15 16  2  0  0  0  0
 16 17  1  0  0  0  0
 17 18  2  0  0  0  0
 18 19  1  0  0  0  0
 19 20  2  0  0  0  0
 20 15  1  0  0  0  0
 21  1  1  0  0  0  0
 22 21  1  0  0  0  0
 23 24  2  0  0  0  0
 24 25  1  0  0  0  0
 25 22  1  0  0  0  0
 25 26  2  0  0  0  0
 26 27  1  0  0  0  0
 27 28  2  0  0  0  0
 28 29  1  0  0  0  0
 28 23  1  0  0  0  0
 29 30  1  0  0  0  0
 31 32  2  0  0  0  0
 32 33  1  0  0  0  0
 32 23  1  0  0  0  0
 33 34  1  0  0  0  0
M  END
>  <Activity>
15.4

>  <minimizedAffinity>
-9.27967

>  <RFScoreVS_v2>
5.97776352698

$$$$
HIPS6066
 OpenBabel05252300073D

 34 37  0  0  0  0  0  0  0  0999 V2000
   68.9667   77.7282   90.9081 C   0  0  0  0  0  0  0  0  0  0  0  0
   70.0526   76.8522   91.0409 C   0  0  0  0  0  0  0  0  0  0  0  0
   71.3514   77.3076   90.8148 C   0  0  0  0  0  0  0  0  0  0  0  0
   71.5767   78.6371   90.4498 C   0  0  0  0  0  0  0  0  0  0  0  0
   70.5000   79.5256   90.2996 C   0  0  0  0  0  0  0  0  0  0  0  0
   69.1954   79.0584   90.5254 C   0  0  0  0  0  0  0  0  0  0  0  0
   70.7353   80.9408   89.9228 C   0  0  0  0  0  0  0  0  0  0  0  0
   71.9515   81.5688   90.2402 C   0  0  0  0  0  0  0  0  0  0  0  0
   72.1618   82.9085   89.9069 C   0  0  0  0  0  0  0  0  0  0  0  0
   71.1665   83.6339   89.2495 C   0  0  0  0  0  0  0  0  0  0  0  0
   69.9553   83.0245   88.9051 C   0  0  0  0  0  0  0  0  0  0  0  0
   69.7394   81.6758   89.2527 C   0  0  0  0  0  0  0  0  0  0  0  0
   69.0030   83.7883   88.2105 O   0  0  0  0  0  0  0  0  0  0  0  0
   68.0651   84.6814   88.8167 C   0  0  0  0  0  0  0  0  0  0  0  0
   68.7215   85.9889   89.1865 C   0  0  0  0  0  0  0  0  0  0  0  0
   68.6320   86.4876   90.4990 C   0  0  0  0  0  0  0  0  0  0  0  0
   69.2599   87.6887   90.8405 C   0  0  0  0  0  0  0  0  0  0  0  0
   69.9754   88.4032   89.8753 C   0  0  0  0  0  0  0  0  0  0  0  0
   70.0448   87.9299   88.5614 C   0  0  0  0  0  0  0  0  0  0  0  0
   69.4183   86.7290   88.2147 C   0  0  0  0  0  0  0  0  0  0  0  0
   67.5642   77.2680   91.2065 C   0  0  0  0  0  0  0  0  0  0  0  0
   67.2773   77.4255   92.5967 O   0  0  0  0  0  0  0  0  0  0  0  0
   68.1475   74.4392   94.6217 C   0  0  0  0  0  0  0  0  0  0  0  0
   68.2370   75.5368   93.7433 C   0  0  0  0  0  0  0  0  0  0  0  0
   67.1378   76.3730   93.5171 C   0  0  0  0  0  0  0  0  0  0  0  0
   65.9395   76.1332   94.2093 C   0  0  0  0  0  0  0  0  0  0  0  0
   65.8429   75.0578   95.0932 C   0  0  0  0  0  0  0  0  0  0  0  0
   66.9316   74.2021   95.2992 C   0  0  0  0  0  0  0  0  0  0  0  0
   66.8003   73.1257   96.1792 O   0  0  0  0  0  0  0  0  0  0  0  0
   65.9879   72.9794   96.6226 H   0  0  0  0  0  0  0  0  0  0  0  0
   69.4523   72.8840   95.8665 O   0  0  0  0  0  0  0  0  0  0  0  0
   69.3192   73.5494   94.8046 C   0  0  0  0  0  0  0  0  0  0  0  0
   70.2927   73.4429   93.8150 O   0  0  0  0  0  0  0  0  0  0  0  0
   70.2078   73.9313   93.0198 H   0  0  0  0  0  0  0  0  0  0  0  0
  1  2  2  0  0  0  0
  2  3  1  0  0  0  0
  3  4  2  0  0  0  0
  4  5  1  0  0  0  0
  5  7  1  0  0  0  0
  5  6  2  0  0  0  0
  6  1  1  0  0  0  0
  7  8  2  0  0  0  0
  8  9  1  0  0  0  0
  9 10  2  0  0  0  0
 10 11  1  0  0  0  0
 11 13  1  0  0  0  0
 11 12  2  0  0  0  0
 12  7  1  0  0  0  0
 13 14  1  0  0  0  0
 14 15  1  0  0  0  0
 15 16  2  0  0  0  0
 16 17  1  0  0  0  0
 17 18  2  0  0  0  0
 18 19  1  0  0  0  0
 19 20  2  0  0  0  0
 20 15  1  0  0  0  0
 21  1  1  0  0  0  0
 22 21  1  0  0  0  0
 23 24  2  0  0  0  0
 24 25  1  0  0  0  0
 25 22  1  0  0  0  0
 25 26  2  0  0  0  0
 26 27  1  0  0  0  0
 27 28  2  0  0  0  0
 28 29  1  0  0  0  0
 28 23  1  0  0  0  0
 29 30  1  0  0  0  0
 31 32  2  0  0  0  0
 32 33  1  0  0  0  0
 32 23  1  0  0  0  0
 33 34  1  0  0  0  0
M  END
>  <Activity>
15.4

>  <minimizedAffinity>
-9.24330

>  <RFScoreVS_v2>
5.99153472403

$$$$
HIPS6066
 OpenBabel05252300073D

 34 37  0  0  0  0  0  0  0  0999 V2000
   68.9430   73.7613   90.9495 C   0  0  0  0  0  0  0  0  0  0  0  0
   68.2478   72.6197   90.5278 C   0  0  0  0  0  0  0  0  0  0  0  0
   67.2971   72.7142   89.5117 C   0  0  0  0  0  0  0  0  0  0  0  0
   67.0288   73.9472   88.9123 C   0  0  0  0  0  0  0  0  0  0  0  0
   67.7063   75.1037   89.3307 C   0  0  0  0  0  0  0  0  0  0  0  0
   68.6591   75.0007   90.3567 C   0  0  0  0  0  0  0  0  0  0  0  0
   67.4325   76.4131   88.6899 C   0  0  0  0  0  0  0  0  0  0  0  0
   67.0687   76.4795   87.3344 C   0  0  0  0  0  0  0  0  0  0  0  0
   66.8357   77.7148   86.7262 C   0  0  0  0  0  0  0  0  0  0  0  0
   66.9564   78.8948   87.4625 C   0  0  0  0  0  0  0  0  0  0  0  0
   67.2976   78.8526   88.8185 C   0  0  0  0  0  0  0  0  0  0  0  0
   67.5445   77.6061   89.4283 C   0  0  0  0  0  0  0  0  0  0  0  0
   67.3681   80.0660   89.5223 O   0  0  0  0  0  0  0  0  0  0  0  0
   67.7542   81.3220   88.9582 C   0  0  0  0  0  0  0  0  0  0  0  0
   69.1832   81.6578   89.3078 C   0  0  0  0  0  0  0  0  0  0  0  0
   69.7407   82.8926   88.9285 C   0  0  0  0  0  0  0  0  0  0  0  0
   71.0583   83.2062   89.2736 C   0  0  0  0  0  0  0  0  0  0  0  0
   71.8303   82.2894   89.9930 C   0  0  0  0  0  0  0  0  0  0  0  0
   71.2938   81.0481   90.3484 C   0  0  0  0  0  0  0  0  0  0  0  0
   69.9763   80.7294   90.0055 C   0  0  0  0  0  0  0  0  0  0  0  0
   70.0144   73.6658   92.0034 C   0  0  0  0  0  0  0  0  0  0  0  0
   70.0498   74.8625   92.7823 O   0  0  0  0  0  0  0  0  0  0  0  0
   66.7679   75.7308   94.2824 C   0  0  0  0  0  0  0  0  0  0  0  0
   67.9370   75.0300   93.9273 C   0  0  0  0  0  0  0  0  0  0  0  0
   68.9268   75.6279   93.1389 C   0  0  0  0  0  0  0  0  0  0  0  0
   68.7653   76.9618   92.7301 C   0  0  0  0  0  0  0  0  0  0  0  0
   67.6182   77.6714   93.0878 C   0  0  0  0  0  0  0  0  0  0  0  0
   66.6129   77.0665   93.8516 C   0  0  0  0  0  0  0  0  0  0  0  0
   65.4698   77.7974   94.1821 O   0  0  0  0  0  0  0  0  0  0  0  0
   65.3793   78.6831   93.8898 H   0  0  0  0  0  0  0  0  0  0  0  0
   65.3003   75.5718   96.1511 O   0  0  0  0  0  0  0  0  0  0  0  0
   65.7209   75.0517   95.0831 C   0  0  0  0  0  0  0  0  0  0  0  0
   65.1954   73.8286   94.6754 O   0  0  0  0  0  0  0  0  0  0  0  0
   65.4980   73.4292   93.8836 H   0  0  0  0  0  0  0  0  0  0  0  0
  1  2  2  0  0  0  0
  2  3  1  0  0  0  0
  3  4  2  0  0  0  0
  4  5  1  0  0  0  0
  5  7  1  0  0  0  0
  5  6  2  0  0  0  0
  6  1  1  0  0  0  0
  7  8  2  0  0  0  0
  8  9  1  0  0  0  0
  9 10  2  0  0  0  0
 10 11  1  0  0  0  0
 11 13  1  0  0  0  0
 11 12  2  0  0  0  0
 12  7  1  0  0  0  0
 13 14  1  0  0  0  0
 14 15  1  0  0  0  0
 15 16  2  0  0  0  0
 16 17  1  0  0  0  0
 17 18  2  0  0  0  0
 18 19  1  0  0  0  0
 19 20  2  0  0  0  0
 20 15  1  0  0  0  0
 21  1  1  0  0  0  0
 22 21  1  0  0  0  0
 23 24  2  0  0  0  0
 24 25  1  0  0  0  0
 25 22  1  0  0  0  0
 25 26  2  0  0  0  0
 26 27  1  0  0  0  0
 27 28  2  0  0  0  0
 28 29  1  0  0  0  0
 28 23  1  0  0  0  0
 29 30  1  0  0  0  0
 31 32  2  0  0  0  0
 32 33  1  0  0  0  0
 32 23  1  0  0  0  0
 33 34  1  0  0  0  0
M  END
>  <Activity>
15.4

>  <minimizedAffinity>
-9.12807

>  <RFScoreVS_v2>
6.05264590505

$$$$
HIPS6066
 OpenBabel05252300073D

 34 37  0  0  0  0  0  0  0  0999 V2000
   67.3950   77.2614   89.6063 C   0  0  0  0  0  0  0  0  0  0  0  0
   67.0456   76.8445   88.3146 C   0  0  0  0  0  0  0  0  0  0  0  0
   66.7843   77.7878   87.3210 C   0  0  0  0  0  0  0  0  0  0  0  0
   66.8642   79.1525   87.6087 C   0  0  0  0  0  0  0  0  0  0  0  0
   67.2002   79.5885   88.9004 C   0  0  0  0  0  0  0  0  0  0  0  0
   67.4581   78.6327   89.8959 C   0  0  0  0  0  0  0  0  0  0  0  0
   67.2967   81.0364   89.2077 C   0  0  0  0  0  0  0  0  0  0  0  0
   67.3176   81.4809   90.5405 C   0  0  0  0  0  0  0  0  0  0  0  0
   67.3832   82.8459   90.8279 C   0  0  0  0  0  0  0  0  0  0  0  0
   67.4348   83.7807   89.7923 C   0  0  0  0  0  0  0  0  0  0  0  0
   67.4357   83.3611   88.4578 C   0  0  0  0  0  0  0  0  0  0  0  0
   67.3571   81.9839   88.1687 C   0  0  0  0  0  0  0  0  0  0  0  0
   67.5277   84.3403   87.4552 O   0  0  0  0  0  0  0  0  0  0  0  0
   68.5490   84.4000   86.4560 C   0  0  0  0  0  0  0  0  0  0  0  0
   69.8748   84.7962   87.0580 C   0  0  0  0  0  0  0  0  0  0  0  0
   70.9661   83.9087   87.0304 C   0  0  0  0  0  0  0  0  0  0  0  0
   72.1975   84.2896   87.5709 C   0  0  0  0  0  0  0  0  0  0  0  0
   72.3475   85.5542   88.1474 C   0  0  0  0  0  0  0  0  0  0  0  0
   71.2601   86.4313   88.2055 C   0  0  0  0  0  0  0  0  0  0  0  0
   70.0261   86.0551   87.6663 C   0  0  0  0  0  0  0  0  0  0  0  0
   67.7382   76.2565   90.6742 C   0  0  0  0  0  0  0  0  0  0  0  0
   66.9203   76.4612   91.8270 O   0  0  0  0  0  0  0  0  0  0  0  0
   68.2150   74.1387   94.4164 C   0  0  0  0  0  0  0  0  0  0  0  0
   68.1306   74.9747   93.2859 C   0  0  0  0  0  0  0  0  0  0  0  0
   66.9564   75.6775   92.9927 C   0  0  0  0  0  0  0  0  0  0  0  0
   65.8599   75.5750   93.8642 C   0  0  0  0  0  0  0  0  0  0  0  0
   65.9362   74.7615   94.9954 C   0  0  0  0  0  0  0  0  0  0  0  0
   67.0992   74.0342   95.2754 C   0  0  0  0  0  0  0  0  0  0  0  0
   67.1410   73.2174   96.4073 O   0  0  0  0  0  0  0  0  0  0  0  0
   66.3936   73.1569   96.9692 H   0  0  0  0  0  0  0  0  0  0  0  0
   70.3461   73.2870   93.7806 O   0  0  0  0  0  0  0  0  0  0  0  0
   69.4604   73.3760   94.6727 C   0  0  0  0  0  0  0  0  0  0  0  0
   69.6662   72.7398   95.8938 O   0  0  0  0  0  0  0  0  0  0  0  0
   69.0169   72.7967   96.5670 H   0  0  0  0  0  0  0  0  0  0  0  0
  1  2  2  0  0  0  0
  2  3  1  0  0  0  0
  3  4  2  0  0  0  0
  4  5  1  0  0  0  0
  5  7  1  0  0  0  0
  5  6  2  0  0  0  0
  6  1  1  0  0  0  0
  7  8  2  0  0  0  0
  8  9  1  0  0  0  0
  9 10  2  0  0  0  0
 10 11  1  0  0  0  0
 11 13  1  0  0  0  0
 11 12  2  0  0  0  0
 12  7  1  0  0  0  0
 13 14  1  0  0  0  0
 14 15  1  0  0  0  0
 15 16  2  0  0  0  0
 16 17  1  0  0  0  0
 17 18  2  0  0  0  0
 18 19  1  0  0  0  0
 19 20  2  0  0  0  0
 20 15  1  0  0  0  0
 21  1  1  0  0  0  0
 22 21  1  0  0  0  0
 23 24  2  0  0  0  0
 24 25  1  0  0  0  0
 25 22  1  0  0  0  0
 25 26  2  0  0  0  0
 26 27  1  0  0  0  0
 27 28  2  0  0  0  0
 28 29  1  0  0  0  0
 28 23  1  0  0  0  0
 29 30  1  0  0  0  0
 31 32  2  0  0  0  0
 32 33  1  0  0  0  0
 32 23  1  0  0  0  0
 33 34  1  0  0  0  0
M  END
>  <Activity>
15.4

>  <minimizedAffinity>
-9.04362

>  <RFScoreVS_v2>
6.05134596598

$$$$
HIPS6134
 OpenBabel05252300073D

 35 38  0  0  0  0  0  0  0  0999 V2000
   69.9602   78.6127   90.6213 C   0  0  0  0  0  0  0  0  0  0  0  0
   68.5654   78.7502   90.6637 C   0  0  0  0  0  0  0  0  0  0  0  0
   67.9685   79.9639   90.3170 C   0  0  0  0  0  0  0  0  0  0  0  0
   68.7565   81.0514   89.9308 C   0  0  0  0  0  0  0  0  0  0  0  0
   70.1563   80.9349   89.8923 C   0  0  0  0  0  0  0  0  0  0  0  0
   70.7484   79.7051   90.2247 C   0  0  0  0  0  0  0  0  0  0  0  0
   71.0034   82.0866   89.4978 C   0  0  0  0  0  0  0  0  0  0  0  0
   72.2867   82.2438   90.0490 C   0  0  0  0  0  0  0  0  0  0  0  0
   73.0936   83.3163   89.6629 C   0  0  0  0  0  0  0  0  0  0  0  0
   72.6372   84.2310   88.7123 C   0  0  0  0  0  0  0  0  0  0  0  0
   71.3669   84.0894   88.1435 C   0  0  0  0  0  0  0  0  0  0  0  0
   70.5440   83.0222   88.5548 C   0  0  0  0  0  0  0  0  0  0  0  0
   70.9675   85.0248   87.1756 O   0  0  0  0  0  0  0  0  0  0  0  0
   69.7339   85.7452   87.1781 C   0  0  0  0  0  0  0  0  0  0  0  0
   69.5753   86.5373   88.4488 C   0  0  0  0  0  0  0  0  0  0  0  0
   70.1664   87.8056   88.5644 C   0  0  0  0  0  0  0  0  0  0  0  0
   70.0265   88.5439   89.7437 C   0  0  0  0  0  0  0  0  0  0  0  0
   69.2994   88.0212   90.8158 C   0  0  0  0  0  0  0  0  0  0  0  0
   68.7129   86.7554   90.7127 C   0  0  0  0  0  0  0  0  0  0  0  0
   67.7970   86.0995   92.0579 Cl  0  0  0  0  0  0  0  0  0  0  0  0
   68.8547   86.0121   89.5353 C   0  0  0  0  0  0  0  0  0  0  0  0
   70.6024   77.2899   90.9455 C   0  0  0  0  0  0  0  0  0  0  0  0
   70.0422   76.7142   92.1283 O   0  0  0  0  0  0  0  0  0  0  0  0
   67.6305   74.1012   93.3032 C   0  0  0  0  0  0  0  0  0  0  0  0
   68.4445   75.2472   93.3045 C   0  0  0  0  0  0  0  0  0  0  0  0
   69.1857   75.6030   92.1613 C   0  0  0  0  0  0  0  0  0  0  0  0
   69.0875   74.8121   91.0127 C   0  0  0  0  0  0  0  0  0  0  0  0
   68.2905   73.6660   91.0065 C   0  0  0  0  0  0  0  0  0  0  0  0
   67.5529   73.3086   92.1402 C   0  0  0  0  0  0  0  0  0  0  0  0
   66.7394   72.1747   92.0692 O   0  0  0  0  0  0  0  0  0  0  0  0
   66.7094   71.6682   91.2815 H   0  0  0  0  0  0  0  0  0  0  0  0
   67.4206   73.4087   95.5657 O   0  0  0  0  0  0  0  0  0  0  0  0
   66.8464   73.7825   94.5078 C   0  0  0  0  0  0  0  0  0  0  0  0
   65.4601   73.8554   94.4588 O   0  0  0  0  0  0  0  0  0  0  0  0
   65.0330   74.1333   93.6724 H   0  0  0  0  0  0  0  0  0  0  0  0
  1  2  2  0  0  0  0
  2  3  1  0  0  0  0
  3  4  2  0  0  0  0
  4  5  1  0  0  0  0
  5  7  1  0  0  0  0
  5  6  2  0  0  0  0
  6  1  1  0  0  0  0
  7  8  2  0  0  0  0
  8  9  1  0  0  0  0
  9 10  2  0  0  0  0
 10 11  1  0  0  0  0
 11 13  1  0  0  0  0
 11 12  2  0  0  0  0
 12  7  1  0  0  0  0
 13 14  1  0  0  0  0
 14 15  1  0  0  0  0
 15 16  2  0  0  0  0
 16 17  1  0  0  0  0
 17 18  2  0  0  0  0
 18 19  1  0  0  0  0
 19 20  1  0  0  0  0
 19 21  2  0  0  0  0
 21 15  1  0  0  0  0
 22  1  1  0  0  0  0
 23 22  1  0  0  0  0
 24 25  2  0  0  0  0
 25 26  1  0  0  0  0
 26 23  1  0  0  0  0
 26 27  2  0  0  0  0
 27 28  1  0  0  0  0
 28 29  2  0  0  0  0
 29 30  1  0  0  0  0
 29 24  1  0  0  0  0
 30 31  1  0  0  0  0
 32 33  2  0  0  0  0
 33 34  1  0  0  0  0
 33 24  1  0  0  0  0
 34 35  1  0  0  0  0
M  END
>  <Activity>
16.0

>  <minimizedAffinity>
-9.63485

>  <RFScoreVS_v2>
5.99634245614

$$$$
HIPS6134
 OpenBabel05252300073D

 35 38  0  0  0  0  0  0  0  0999 V2000
   69.7703   76.3679   91.8526 C   0  0  0  0  0  0  0  0  0  0  0  0
   71.1526   76.5985   91.8054 C   0  0  0  0  0  0  0  0  0  0  0  0
   71.6742   77.5666   90.9449 C   0  0  0  0  0  0  0  0  0  0  0  0
   70.8235   78.3083   90.1209 C   0  0  0  0  0  0  0  0  0  0  0  0
   69.4366   78.0836   90.1474 C   0  0  0  0  0  0  0  0  0  0  0  0
   68.9177   77.1208   91.0291 C   0  0  0  0  0  0  0  0  0  0  0  0
   68.5257   78.8547   89.2670 C   0  0  0  0  0  0  0  0  0  0  0  0
   67.7775   78.1994   88.2739 C   0  0  0  0  0  0  0  0  0  0  0  0
   66.9036   78.9212   87.4579 C   0  0  0  0  0  0  0  0  0  0  0  0
   66.7540   80.2977   87.6349 C   0  0  0  0  0  0  0  0  0  0  0  0
   67.4817   80.9696   88.6230 C   0  0  0  0  0  0  0  0  0  0  0  0
   68.3830   80.2438   89.4269 C   0  0  0  0  0  0  0  0  0  0  0  0
   67.2754   82.3503   88.7726 O   0  0  0  0  0  0  0  0  0  0  0  0
   68.0933   83.2321   89.5434 C   0  0  0  0  0  0  0  0  0  0  0  0
   69.3837   83.5330   88.8282 C   0  0  0  0  0  0  0  0  0  0  0  0
   69.3616   83.9797   87.4973 C   0  0  0  0  0  0  0  0  0  0  0  0
   70.5569   84.2561   86.8264 C   0  0  0  0  0  0  0  0  0  0  0  0
   71.7814   84.0860   87.4768 C   0  0  0  0  0  0  0  0  0  0  0  0
   71.8139   83.6345   88.8004 C   0  0  0  0  0  0  0  0  0  0  0  0
   73.3515   83.4234   89.6189 Cl  0  0  0  0  0  0  0  0  0  0  0  0
   70.6195   83.3528   89.4733 C   0  0  0  0  0  0  0  0  0  0  0  0
   69.2017   75.3605   92.8164 C   0  0  0  0  0  0  0  0  0  0  0  0
   70.1951   74.4216   93.2360 O   0  0  0  0  0  0  0  0  0  0  0  0
   70.5820   70.7295   93.7279 C   0  0  0  0  0  0  0  0  0  0  0  0
   70.6329   72.1109   93.9822 C   0  0  0  0  0  0  0  0  0  0  0  0
   70.1300   73.0330   93.0443 C   0  0  0  0  0  0  0  0  0  0  0  0
   69.5584   72.5571   91.8606 C   0  0  0  0  0  0  0  0  0  0  0  0
   69.5143   71.1872   91.5948 C   0  0  0  0  0  0  0  0  0  0  0  0
   70.0132   70.2679   92.5237 C   0  0  0  0  0  0  0  0  0  0  0  0
   69.9086   68.9062   92.2276 O   0  0  0  0  0  0  0  0  0  0  0  0
   69.5253   68.6308   91.4182 H   0  0  0  0  0  0  0  0  0  0  0  0
   72.2946   69.8403   95.1132 O   0  0  0  0  0  0  0  0  0  0  0  0
   71.0889   69.7975   94.7487 C   0  0  0  0  0  0  0  0  0  0  0  0
   70.2366   68.8376   95.2798 O   0  0  0  0  0  0  0  0  0  0  0  0
   69.3401   68.8057   95.0090 H   0  0  0  0  0  0  0  0  0  0  0  0
  1  2  2  0  0  0  0
  2  3  1  0  0  0  0
  3  4  2  0  0  0  0
  4  5  1  0  0  0  0
  5  7  1  0  0  0  0
  5  6  2  0  0  0  0
  6  1  1  0  0  0  0
  7  8  2  0  0  0  0
  8  9  1  0  0  0  0
  9 10  2  0  0  0  0
 10 11  1  0  0  0  0
 11 13  1  0  0  0  0
 11 12  2  0  0  0  0
 12  7  1  0  0  0  0
 13 14  1  0  0  0  0
 14 15  1  0  0  0  0
 15 16  2  0  0  0  0
 16 17  1  0  0  0  0
 17 18  2  0  0  0  0
 18 19  1  0  0  0  0
 19 20  1  0  0  0  0
 19 21  2  0  0  0  0
 21 15  1  0  0  0  0
 22  1  1  0  0  0  0
 23 22  1  0  0  0  0
 24 25  2  0  0  0  0
 25 26  1  0  0  0  0
 26 23  1  0  0  0  0
 26 27  2  0  0  0  0
 27 28  1  0  0  0  0
 28 29  2  0  0  0  0
 29 30  1  0  0  0  0
 29 24  1  0  0  0  0
 30 31  1  0  0  0  0
 32 33  2  0  0  0  0
 33 34  1  0  0  0  0
 33 24  1  0  0  0  0
 34 35  1  0  0  0  0
M  END
>  <Activity>
16.0

>  <minimizedAffinity>
-9.53415

>  <RFScoreVS_v2>
5.99620153975

$$$$
HIPS6134
 OpenBabel05252300073D

 35 38  0  0  0  0  0  0  0  0999 V2000
   68.9788   79.1163   89.5201 C   0  0  0  0  0  0  0  0  0  0  0  0
   67.9194   79.8952   89.0331 C   0  0  0  0  0  0  0  0  0  0  0  0
   66.7365   79.2860   88.6097 C   0  0  0  0  0  0  0  0  0  0  0  0
   66.6019   77.8961   88.6628 C   0  0  0  0  0  0  0  0  0  0  0  0
   67.6569   77.0989   89.1384 C   0  0  0  0  0  0  0  0  0  0  0  0
   68.8369   77.7205   89.5799 C   0  0  0  0  0  0  0  0  0  0  0  0
   67.5307   75.6220   89.1859 C   0  0  0  0  0  0  0  0  0  0  0  0
   66.7748   74.9440   88.2141 C   0  0  0  0  0  0  0  0  0  0  0  0
   66.6721   73.5516   88.2455 C   0  0  0  0  0  0  0  0  0  0  0  0
   67.3349   72.8213   89.2334 C   0  0  0  0  0  0  0  0  0  0  0  0
   68.1004   73.4742   90.2055 C   0  0  0  0  0  0  0  0  0  0  0  0
   68.1802   74.8808   90.1880 C   0  0  0  0  0  0  0  0  0  0  0  0
   68.7644   72.6893   91.1617 O   0  0  0  0  0  0  0  0  0  0  0  0
   68.1716   72.1396   92.3395 C   0  0  0  0  0  0  0  0  0  0  0  0
   67.7727   73.2282   93.3002 C   0  0  0  0  0  0  0  0  0  0  0  0
   66.4410   73.3297   93.7333 C   0  0  0  0  0  0  0  0  0  0  0  0
   66.0637   74.3415   94.6216 C   0  0  0  0  0  0  0  0  0  0  0  0
   67.0105   75.2599   95.0812 C   0  0  0  0  0  0  0  0  0  0  0  0
   68.3382   75.1713   94.6498 C   0  0  0  0  0  0  0  0  0  0  0  0
   69.5288   76.3228   95.2289 Cl  0  0  0  0  0  0  0  0  0  0  0  0
   68.7183   74.1624   93.7573 C   0  0  0  0  0  0  0  0  0  0  0  0
   70.2353   79.7749   90.0247 C   0  0  0  0  0  0  0  0  0  0  0  0
   70.0106   81.1499   90.3457 O   0  0  0  0  0  0  0  0  0  0  0  0
   70.4694   84.0868   88.0680 C   0  0  0  0  0  0  0  0  0  0  0  0
   69.8497   83.0267   88.7520 C   0  0  0  0  0  0  0  0  0  0  0  0
   70.5749   82.2425   89.6697 C   0  0  0  0  0  0  0  0  0  0  0  0
   71.9189   82.5434   89.9096 C   0  0  0  0  0  0  0  0  0  0  0  0
   72.5452   83.5872   89.2260 C   0  0  0  0  0  0  0  0  0  0  0  0
   71.8286   84.3683   88.3132 C   0  0  0  0  0  0  0  0  0  0  0  0
   72.4912   85.4264   87.6854 O   0  0  0  0  0  0  0  0  0  0  0  0
   73.3956   85.5880   87.8695 H   0  0  0  0  0  0  0  0  0  0  0  0
   68.4596   85.1586   87.3941 O   0  0  0  0  0  0  0  0  0  0  0  0
   69.6675   84.9029   87.1414 C   0  0  0  0  0  0  0  0  0  0  0  0
   70.2408   85.3561   85.9600 O   0  0  0  0  0  0  0  0  0  0  0  0
   71.1388   85.1660   85.7720 H   0  0  0  0  0  0  0  0  0  0  0  0
  1  2  2  0  0  0  0
  2  3  1  0  0  0  0
  3  4  2  0  0  0  0
  4  5  1  0  0  0  0
  5  7  1  0  0  0  0
  5  6  2  0  0  0  0
  6  1  1  0  0  0  0
  7  8  2  0  0  0  0
  8  9  1  0  0  0  0
  9 10  2  0  0  0  0
 10 11  1  0  0  0  0
 11 13  1  0  0  0  0
 11 12  2  0  0  0  0
 12  7  1  0  0  0  0
 13 14  1  0  0  0  0
 14 15  1  0  0  0  0
 15 16  2  0  0  0  0
 16 17  1  0  0  0  0
 17 18  2  0  0  0  0
 18 19  1  0  0  0  0
 19 20  1  0  0  0  0
 19 21  2  0  0  0  0
 21 15  1  0  0  0  0
 22  1  1  0  0  0  0
 23 22  1  0  0  0  0
 24 25  2  0  0  0  0
 25 26  1  0  0  0  0
 26 23  1  0  0  0  0
 26 27  2  0  0  0  0
 27 28  1  0  0  0  0
 28 29  2  0  0  0  0
 29 30  1  0  0  0  0
 29 24  1  0  0  0  0
 30 31  1  0  0  0  0
 32 33  2  0  0  0  0
 33 34  1  0  0  0  0
 33 24  1  0  0  0  0
 34 35  1  0  0  0  0
M  END
>  <Activity>
16.0

>  <minimizedAffinity>
-9.51227

>  <RFScoreVS_v2>
5.98396130626

$$$$
HIPS6134
 OpenBabel05252300073D

 35 38  0  0  0  0  0  0  0  0999 V2000
   67.5729   79.1657   88.9791 C   0  0  0  0  0  0  0  0  0  0  0  0
   67.1588   79.3260   87.6490 C   0  0  0  0  0  0  0  0  0  0  0  0
   66.8812   78.2078   86.8602 C   0  0  0  0  0  0  0  0  0  0  0  0
   67.0194   76.9215   87.3884 C   0  0  0  0  0  0  0  0  0  0  0  0
   67.4431   76.7415   88.7161 C   0  0  0  0  0  0  0  0  0  0  0  0
   67.7026   77.8717   89.5090 C   0  0  0  0  0  0  0  0  0  0  0  0
   67.6071   75.3809   89.2828 C   0  0  0  0  0  0  0  0  0  0  0  0
   67.0023   74.2760   88.6590 C   0  0  0  0  0  0  0  0  0  0  0  0
   67.1730   72.9914   89.1798 C   0  0  0  0  0  0  0  0  0  0  0  0
   67.9609   72.7935   90.3149 C   0  0  0  0  0  0  0  0  0  0  0  0
   68.5800   73.8772   90.9471 C   0  0  0  0  0  0  0  0  0  0  0  0
   68.3840   75.1755   90.4359 C   0  0  0  0  0  0  0  0  0  0  0  0
   69.3798   73.6181   92.0715 O   0  0  0  0  0  0  0  0  0  0  0  0
   69.5516   74.4945   93.1865 C   0  0  0  0  0  0  0  0  0  0  0  0
   68.2465   74.7155   93.9041 C   0  0  0  0  0  0  0  0  0  0  0  0
   67.7458   73.7308   94.7708 C   0  0  0  0  0  0  0  0  0  0  0  0
   66.5320   73.9283   95.4362 C   0  0  0  0  0  0  0  0  0  0  0  0
   65.8084   75.1068   95.2395 C   0  0  0  0  0  0  0  0  0  0  0  0
   66.2955   76.0906   94.3725 C   0  0  0  0  0  0  0  0  0  0  0  0
   65.3886   77.5725   94.1272 Cl  0  0  0  0  0  0  0  0  0  0  0  0
   67.5079   75.8942   93.7015 C   0  0  0  0  0  0  0  0  0  0  0  0
   67.8233   80.3709   89.8463 C   0  0  0  0  0  0  0  0  0  0  0  0
   68.1051   81.5305   89.0588 O   0  0  0  0  0  0  0  0  0  0  0  0
   70.8344   83.9298   88.1543 C   0  0  0  0  0  0  0  0  0  0  0  0
   69.5776   83.3004   88.1718 C   0  0  0  0  0  0  0  0  0  0  0  0
   69.3296   82.2155   89.0345 C   0  0  0  0  0  0  0  0  0  0  0  0
   70.3448   81.7815   89.8920 C   0  0  0  0  0  0  0  0  0  0  0  0
   71.5995   82.3934   89.8729 C   0  0  0  0  0  0  0  0  0  0  0  0
   71.8503   83.4712   89.0171 C   0  0  0  0  0  0  0  0  0  0  0  0
   73.1099   84.0744   89.0652 O   0  0  0  0  0  0  0  0  0  0  0  0
   73.7645   83.7461   89.6498 H   0  0  0  0  0  0  0  0  0  0  0  0
   71.8551   85.9938   87.5706 O   0  0  0  0  0  0  0  0  0  0  0  0
   71.0425   85.0816   87.2611 C   0  0  0  0  0  0  0  0  0  0  0  0
   70.3027   85.1789   86.0894 O   0  0  0  0  0  0  0  0  0  0  0  0
   69.6984   84.5008   85.8591 H   0  0  0  0  0  0  0  0  0  0  0  0
  1  2  2  0  0  0  0
  2  3  1  0  0  0  0
  3  4  2  0  0  0  0
  4  5  1  0  0  0  0
  5  7  1  0  0  0  0
  5  6  2  0  0  0  0
  6  1  1  0  0  0  0
  7  8  2  0  0  0  0
  8  9  1  0  0  0  0
  9 10  2  0  0  0  0
 10 11  1  0  0  0  0
 11 13  1  0  0  0  0
 11 12  2  0  0  0  0
 12  7  1  0  0  0  0
 13 14  1  0  0  0  0
 14 15  1  0  0  0  0
 15 16  2  0  0  0  0
 16 17  1  0  0  0  0
 17 18  2  0  0  0  0
 18 19  1  0  0  0  0
 19 20  1  0  0  0  0
 19 21  2  0  0  0  0
 21 15  1  0  0  0  0
 22  1  1  0  0  0  0
 23 22  1  0  0  0  0
 24 25  2  0  0  0  0
 25 26  1  0  0  0  0
 26 23  1  0  0  0  0
 26 27  2  0  0  0  0
 27 28  1  0  0  0  0
 28 29  2  0  0  0  0
 29 30  1  0  0  0  0
 29 24  1  0  0  0  0
 30 31  1  0  0  0  0
 32 33  2  0  0  0  0
 33 34  1  0  0  0  0
 33 24  1  0  0  0  0
 34 35  1  0  0  0  0
M  END
>  <Activity>
16.0

>  <minimizedAffinity>
-9.50159

>  <RFScoreVS_v2>
6.00214205069

$$$$
HIPS6134
 OpenBabel05252300073D

 35 38  0  0  0  0  0  0  0  0999 V2000
   69.6391   78.4022   90.2716 C   0  0  0  0  0  0  0  0  0  0  0  0
   70.9547   78.4693   90.7520 C   0  0  0  0  0  0  0  0  0  0  0  0
   71.5437   77.3508   91.3452 C   0  0  0  0  0  0  0  0  0  0  0  0
   70.8250   76.1589   91.4694 C   0  0  0  0  0  0  0  0  0  0  0  0
   69.5020   76.0764   91.0029 C   0  0  0  0  0  0  0  0  0  0  0  0
   68.9227   77.2003   90.3906 C   0  0  0  0  0  0  0  0  0  0  0  0
   68.7248   74.8211   91.1423 C   0  0  0  0  0  0  0  0  0  0  0  0
   68.5998   74.2009   92.3973 C   0  0  0  0  0  0  0  0  0  0  0  0
   67.8509   73.0300   92.5340 C   0  0  0  0  0  0  0  0  0  0  0  0
   67.2059   72.4765   91.4267 C   0  0  0  0  0  0  0  0  0  0  0  0
   67.3089   73.0815   90.1694 C   0  0  0  0  0  0  0  0  0  0  0  0
   68.0873   74.2474   90.0287 C   0  0  0  0  0  0  0  0  0  0  0  0
   66.6211   72.4951   89.0950 O   0  0  0  0  0  0  0  0  0  0  0  0
   66.6123   72.9814   87.7518 C   0  0  0  0  0  0  0  0  0  0  0  0
   67.0605   71.9136   86.7894 C   0  0  0  0  0  0  0  0  0  0  0  0
   66.8302   72.0670   85.4129 C   0  0  0  0  0  0  0  0  0  0  0  0
   67.2399   71.0766   84.5148 C   0  0  0  0  0  0  0  0  0  0  0  0
   67.8787   69.9261   84.9835 C   0  0  0  0  0  0  0  0  0  0  0  0
   68.1061   69.7610   86.3538 C   0  0  0  0  0  0  0  0  0  0  0  0
   68.9111   68.3175   86.9430 Cl  0  0  0  0  0  0  0  0  0  0  0  0
   67.6934   70.7484   87.2558 C   0  0  0  0  0  0  0  0  0  0  0  0
   69.0202   79.5913   89.5859 C   0  0  0  0  0  0  0  0  0  0  0  0
   69.4017   80.8152   90.2190 O   0  0  0  0  0  0  0  0  0  0  0  0
   69.9933   83.7284   87.9415 C   0  0  0  0  0  0  0  0  0  0  0  0
   69.3385   82.6665   88.5891 C   0  0  0  0  0  0  0  0  0  0  0  0
   70.0001   81.9087   89.5744 C   0  0  0  0  0  0  0  0  0  0  0  0
   71.3146   82.2378   89.9181 C   0  0  0  0  0  0  0  0  0  0  0  0
   71.9762   83.2836   89.2718 C   0  0  0  0  0  0  0  0  0  0  0  0
   71.3229   84.0386   88.2920 C   0  0  0  0  0  0  0  0  0  0  0  0
   72.0159   85.1000   87.7040 O   0  0  0  0  0  0  0  0  0  0  0  0
   72.8994   85.2809   87.9584 H   0  0  0  0  0  0  0  0  0  0  0  0
   68.1614   84.0983   86.4752 O   0  0  0  0  0  0  0  0  0  0  0  0
   69.2554   84.5166   86.9405 C   0  0  0  0  0  0  0  0  0  0  0  0
   69.7958   85.7098   86.4779 O   0  0  0  0  0  0  0  0  0  0  0  0
   70.6091   86.0210   86.8238 H   0  0  0  0  0  0  0  0  0  0  0  0
  1  2  2  0  0  0  0
  2  3  1  0  0  0  0
  3  4  2  0  0  0  0
  4  5  1  0  0  0  0
  5  7  1  0  0  0  0
  5  6  2  0  0  0  0
  6  1  1  0  0  0  0
  7  8  2  0  0  0  0
  8  9  1  0  0  0  0
  9 10  2  0  0  0  0
 10 11  1  0  0  0  0
 11 13  1  0  0  0  0
 11 12  2  0  0  0  0
 12  7  1  0  0  0  0
 13 14  1  0  0  0  0
 14 15  1  0  0  0  0
 15 16  2  0  0  0  0
 16 17  1  0  0  0  0
 17 18  2  0  0  0  0
 18 19  1  0  0  0  0
 19 20  1  0  0  0  0
 19 21  2  0  0  0  0
 21 15  1  0  0  0  0
 22  1  1  0  0  0  0
 23 22  1  0  0  0  0
 24 25  2  0  0  0  0
 25 26  1  0  0  0  0
 26 23  1  0  0  0  0
 26 27  2  0  0  0  0
 27 28  1  0  0  0  0
 28 29  2  0  0  0  0
 29 30  1  0  0  0  0
 29 24  1  0  0  0  0
 30 31  1  0  0  0  0
 32 33  2  0  0  0  0
 33 34  1  0  0  0  0
 33 24  1  0  0  0  0
 34 35  1  0  0  0  0
M  END
>  <Activity>
16.0

>  <minimizedAffinity>
-9.37560

>  <RFScoreVS_v2>
5.9972904769

$$$$
HIPS6134
 OpenBabel05252300073D

 35 38  0  0  0  0  0  0  0  0999 V2000
   66.9058   75.0707   88.7963 C   0  0  0  0  0  0  0  0  0  0  0  0
   66.3837   74.2311   87.8019 C   0  0  0  0  0  0  0  0  0  0  0  0
   66.6285   72.8571   87.8429 C   0  0  0  0  0  0  0  0  0  0  0  0
   67.3998   72.3095   88.8716 C   0  0  0  0  0  0  0  0  0  0  0  0
   67.9396   73.1369   89.8709 C   0  0  0  0  0  0  0  0  0  0  0  0
   67.6735   74.5158   89.8330 C   0  0  0  0  0  0  0  0  0  0  0  0
   68.7715   72.5689   90.9593 C   0  0  0  0  0  0  0  0  0  0  0  0
   69.2541   71.2520   90.8684 C   0  0  0  0  0  0  0  0  0  0  0  0
   70.0549   70.7227   91.8829 C   0  0  0  0  0  0  0  0  0  0  0  0
   70.3965   71.5050   92.9873 C   0  0  0  0  0  0  0  0  0  0  0  0
   69.9351   72.8214   93.0947 C   0  0  0  0  0  0  0  0  0  0  0  0
   69.1049   73.3441   92.0833 C   0  0  0  0  0  0  0  0  0  0  0  0
   70.3279   73.5706   94.2152 O   0  0  0  0  0  0  0  0  0  0  0  0
   69.5222   73.8236   95.3674 C   0  0  0  0  0  0  0  0  0  0  0  0
   68.2221   74.4784   94.9823 C   0  0  0  0  0  0  0  0  0  0  0  0
   67.0082   73.8026   95.1847 C   0  0  0  0  0  0  0  0  0  0  0  0
   65.7980   74.4036   94.8246 C   0  0  0  0  0  0  0  0  0  0  0  0
   65.7908   75.6803   94.2579 C   0  0  0  0  0  0  0  0  0  0  0  0
   66.9957   76.3587   94.0458 C   0  0  0  0  0  0  0  0  0  0  0  0
   66.9871   77.9636   93.3367 Cl  0  0  0  0  0  0  0  0  0  0  0  0
   68.2089   75.7581   94.4010 C   0  0  0  0  0  0  0  0  0  0  0  0
   66.6004   76.5450   88.7819 C   0  0  0  0  0  0  0  0  0  0  0  0
   67.1033   77.1932   89.9529 O   0  0  0  0  0  0  0  0  0  0  0  0
   70.6661   78.2613   90.3889 C   0  0  0  0  0  0  0  0  0  0  0  0
   69.5341   77.4325   90.3026 C   0  0  0  0  0  0  0  0  0  0  0  0
   68.2678   77.9743   90.0098 C   0  0  0  0  0  0  0  0  0  0  0  0
   68.1508   79.3491   89.7847 C   0  0  0  0  0  0  0  0  0  0  0  0
   69.2679   80.1811   89.8798 C   0  0  0  0  0  0  0  0  0  0  0  0
   70.5276   79.6470   90.1710 C   0  0  0  0  0  0  0  0  0  0  0  0
   71.6204   80.5169   90.2150 O   0  0  0  0  0  0  0  0  0  0  0  0
   71.4958   81.4335   90.0658 H   0  0  0  0  0  0  0  0  0  0  0  0
   72.8836   77.6568   89.7892 O   0  0  0  0  0  0  0  0  0  0  0  0
   71.9771   77.6509   90.6648 C   0  0  0  0  0  0  0  0  0  0  0  0
   72.1961   77.0276   91.8868 O   0  0  0  0  0  0  0  0  0  0  0  0
   71.5223   77.0232   92.5379 H   0  0  0  0  0  0  0  0  0  0  0  0
  1  2  2  0  0  0  0
  2  3  1  0  0  0  0
  3  4  2  0  0  0  0
  4  5  1  0  0  0  0
  5  7  1  0  0  0  0
  5  6  2  0  0  0  0
  6  1  1  0  0  0  0
  7  8  2  0  0  0  0
  8  9  1  0  0  0  0
  9 10  2  0  0  0  0
 10 11  1  0  0  0  0
 11 13  1  0  0  0  0
 11 12  2  0  0  0  0
 12  7  1  0  0  0  0
 13 14  1  0  0  0  0
 14 15  1  0  0  0  0
 15 16  2  0  0  0  0
 16 17  1  0  0  0  0
 17 18  2  0  0  0  0
 18 19  1  0  0  0  0
 19 20  1  0  0  0  0
 19 21  2  0  0  0  0
 21 15  1  0  0  0  0
 22  1  1  0  0  0  0
 23 22  1  0  0  0  0
 24 25  2  0  0  0  0
 25 26  1  0  0  0  0
 26 23  1  0  0  0  0
 26 27  2  0  0  0  0
 27 28  1  0  0  0  0
 28 29  2  0  0  0  0
 29 30  1  0  0  0  0
 29 24  1  0  0  0  0
 30 31  1  0  0  0  0
 32 33  2  0  0  0  0
 33 34  1  0  0  0  0
 33 24  1  0  0  0  0
 34 35  1  0  0  0  0
M  END
>  <Activity>
16.0

>  <minimizedAffinity>
-9.31011

>  <RFScoreVS_v2>
6.00710555844

$$$$
HIPS6134
 OpenBabel05252300073D

 35 38  0  0  0  0  0  0  0  0999 V2000
   67.4244   80.5063   88.4382 C   0  0  0  0  0  0  0  0  0  0  0  0
   66.6559   79.6520   87.6345 C   0  0  0  0  0  0  0  0  0  0  0  0
   66.8876   78.2752   87.6510 C   0  0  0  0  0  0  0  0  0  0  0  0
   67.8900   77.7394   88.4639 C   0  0  0  0  0  0  0  0  0  0  0  0
   68.6768   78.5813   89.2682 C   0  0  0  0  0  0  0  0  0  0  0  0
   68.4253   79.9635   89.2600 C   0  0  0  0  0  0  0  0  0  0  0  0
   69.7529   78.0254   90.1239 C   0  0  0  0  0  0  0  0  0  0  0  0
   71.1008   78.2980   89.8337 C   0  0  0  0  0  0  0  0  0  0  0  0
   72.1143   77.7924   90.6507 C   0  0  0  0  0  0  0  0  0  0  0  0
   71.7943   77.0262   91.7728 C   0  0  0  0  0  0  0  0  0  0  0  0
   70.4592   76.7496   92.0863 C   0  0  0  0  0  0  0  0  0  0  0  0
   69.4397   77.2379   91.2452 C   0  0  0  0  0  0  0  0  0  0  0  0
   70.1934   75.9935   93.2391 O   0  0  0  0  0  0  0  0  0  0  0  0
   69.0550   75.1532   93.4353 C   0  0  0  0  0  0  0  0  0  0  0  0
   69.2987   73.7768   92.8756 C   0  0  0  0  0  0  0  0  0  0  0  0
   68.8528   73.4546   91.5838 C   0  0  0  0  0  0  0  0  0  0  0  0
   69.0720   72.1766   91.0605 C   0  0  0  0  0  0  0  0  0  0  0  0
   69.7341   71.2112   91.8227 C   0  0  0  0  0  0  0  0  0  0  0  0
   70.1757   71.5204   93.1135 C   0  0  0  0  0  0  0  0  0  0  0  0
   71.0100   70.3092   94.0702 Cl  0  0  0  0  0  0  0  0  0  0  0  0
   69.9540   72.7974   93.6418 C   0  0  0  0  0  0  0  0  0  0  0  0
   67.1420   81.9852   88.4601 C   0  0  0  0  0  0  0  0  0  0  0  0
   67.7712   82.6525   87.3632 O   0  0  0  0  0  0  0  0  0  0  0  0
   71.1435   83.9406   88.3593 C   0  0  0  0  0  0  0  0  0  0  0  0
   70.0205   83.0996   88.2736 C   0  0  0  0  0  0  0  0  0  0  0  0
   68.9298   83.4394   87.4502 C   0  0  0  0  0  0  0  0  0  0  0  0
   68.9844   84.6176   86.6997 C   0  0  0  0  0  0  0  0  0  0  0  0
   70.0909   85.4643   86.7877 C   0  0  0  0  0  0  0  0  0  0  0  0
   71.1762   85.1307   87.6049 C   0  0  0  0  0  0  0  0  0  0  0  0
   72.2765   85.9919   87.6267 O   0  0  0  0  0  0  0  0  0  0  0  0
   72.2679   86.7760   87.1138 H   0  0  0  0  0  0  0  0  0  0  0  0
   73.3172   84.2408   89.2690 O   0  0  0  0  0  0  0  0  0  0  0  0
   72.2765   83.5327   89.2064 C   0  0  0  0  0  0  0  0  0  0  0  0
   72.2085   82.3349   89.9068 O   0  0  0  0  0  0  0  0  0  0  0  0
   71.4348   81.8083   89.8604 H   0  0  0  0  0  0  0  0  0  0  0  0
  1  2  2  0  0  0  0
  2  3  1  0  0  0  0
  3  4  2  0  0  0  0
  4  5  1  0  0  0  0
  5  7  1  0  0  0  0
  5  6  2  0  0  0  0
  6  1  1  0  0  0  0
  7  8  2  0  0  0  0
  8  9  1  0  0  0  0
  9 10  2  0  0  0  0
 10 11  1  0  0  0  0
 11 13  1  0  0  0  0
 11 12  2  0  0  0  0
 12  7  1  0  0  0  0
 13 14  1  0  0  0  0
 14 15  1  0  0  0  0
 15 16  2  0  0  0  0
 16 17  1  0  0  0  0
 17 18  2  0  0  0  0
 18 19  1  0  0  0  0
 19 20  1  0  0  0  0
 19 21  2  0  0  0  0
 21 15  1  0  0  0  0
 22  1  1  0  0  0  0
 23 22  1  0  0  0  0
 24 25  2  0  0  0  0
 25 26  1  0  0  0  0
 26 23  1  0  0  0  0
 26 27  2  0  0  0  0
 27 28  1  0  0  0  0
 28 29  2  0  0  0  0
 29 30  1  0  0  0  0
 29 24  1  0  0  0  0
 30 31  1  0  0  0  0
 32 33  2  0  0  0  0
 33 34  1  0  0  0  0
 33 24  1  0  0  0  0
 34 35  1  0  0  0  0
M  END
>  <Activity>
16.0

>  <minimizedAffinity>
-9.25514

>  <RFScoreVS_v2>
5.98758129411

$$$$
HIPS6134
 OpenBabel05252300073D

 35 38  0  0  0  0  0  0  0  0999 V2000
   67.6031   75.4301   89.2790 C   0  0  0  0  0  0  0  0  0  0  0  0
   66.8196   74.8157   88.2917 C   0  0  0  0  0  0  0  0  0  0  0  0
   66.6746   73.4271   88.2734 C   0  0  0  0  0  0  0  0  0  0  0  0
   67.3134   72.6395   89.2348 C   0  0  0  0  0  0  0  0  0  0  0  0
   68.1109   73.2371   90.2256 C   0  0  0  0  0  0  0  0  0  0  0  0
   68.2369   74.6361   90.2485 C   0  0  0  0  0  0  0  0  0  0  0  0
   68.8051   72.4103   91.2423 C   0  0  0  0  0  0  0  0  0  0  0  0
   69.4486   71.2184   90.8670 C   0  0  0  0  0  0  0  0  0  0  0  0
   70.1204   70.4494   91.8197 C   0  0  0  0  0  0  0  0  0  0  0  0
   70.1725   70.8690   93.1501 C   0  0  0  0  0  0  0  0  0  0  0  0
   69.5470   72.0565   93.5449 C   0  0  0  0  0  0  0  0  0  0  0  0
   68.8466   72.8165   92.5872 C   0  0  0  0  0  0  0  0  0  0  0  0
   69.6503   72.4427   94.8908 O   0  0  0  0  0  0  0  0  0  0  0  0
   69.6463   73.7885   95.3699 C   0  0  0  0  0  0  0  0  0  0  0  0
   68.3347   74.4636   95.0686 C   0  0  0  0  0  0  0  0  0  0  0  0
   67.1444   73.9648   95.6216 C   0  0  0  0  0  0  0  0  0  0  0  0
   65.9227   74.5847   95.3415 C   0  0  0  0  0  0  0  0  0  0  0  0
   65.8796   75.7035   94.5063 C   0  0  0  0  0  0  0  0  0  0  0  0
   67.0592   76.2035   93.9448 C   0  0  0  0  0  0  0  0  0  0  0  0
   67.0062   77.6106   92.8979 Cl  0  0  0  0  0  0  0  0  0  0  0  0
   68.2831   75.5828   94.2197 C   0  0  0  0  0  0  0  0  0  0  0  0
   67.7192   76.9304   89.3309 C   0  0  0  0  0  0  0  0  0  0  0  0
   68.9062   77.3383   90.0157 O   0  0  0  0  0  0  0  0  0  0  0  0
   69.1742   81.0704   89.8621 C   0  0  0  0  0  0  0  0  0  0  0  0
   68.6091   79.7834   89.8705 C   0  0  0  0  0  0  0  0  0  0  0  0
   69.4192   78.6443   90.0405 C   0  0  0  0  0  0  0  0  0  0  0  0
   70.7956   78.8085   90.2221 C   0  0  0  0  0  0  0  0  0  0  0  0
   71.3666   80.0823   90.2037 C   0  0  0  0  0  0  0  0  0  0  0  0
   70.5655   81.2165   90.0345 C   0  0  0  0  0  0  0  0  0  0  0  0
   71.1809   82.4708   90.0639 O   0  0  0  0  0  0  0  0  0  0  0  0
   72.1085   82.5350   90.1801 H   0  0  0  0  0  0  0  0  0  0  0  0
   68.5886   83.1738   88.9265 O   0  0  0  0  0  0  0  0  0  0  0  0
   68.2884   82.2370   89.7144 C   0  0  0  0  0  0  0  0  0  0  0  0
   67.1349   82.3199   90.4840 O   0  0  0  0  0  0  0  0  0  0  0  0
   66.9115   81.6235   91.0698 H   0  0  0  0  0  0  0  0  0  0  0  0
  1  2  2  0  0  0  0
  2  3  1  0  0  0  0
  3  4  2  0  0  0  0
  4  5  1  0  0  0  0
  5  7  1  0  0  0  0
  5  6  2  0  0  0  0
  6  1  1  0  0  0  0
  7  8  2  0  0  0  0
  8  9  1  0  0  0  0
  9 10  2  0  0  0  0
 10 11  1  0  0  0  0
 11 13  1  0  0  0  0
 11 12  2  0  0  0  0
 12  7  1  0  0  0  0
 13 14  1  0  0  0  0
 14 15  1  0  0  0  0
 15 16  2  0  0  0  0
 16 17  1  0  0  0  0
 17 18  2  0  0  0  0
 18 19  1  0  0  0  0
 19 20  1  0  0  0  0
 19 21  2  0  0  0  0
 21 15  1  0  0  0  0
 22  1  1  0  0  0  0
 23 22  1  0  0  0  0
 24 25  2  0  0  0  0
 25 26  1  0  0  0  0
 26 23  1  0  0  0  0
 26 27  2  0  0  0  0
 27 28  1  0  0  0  0
 28 29  2  0  0  0  0
 29 30  1  0  0  0  0
 29 24  1  0  0  0  0
 30 31  1  0  0  0  0
 32 33  2  0  0  0  0
 33 34  1  0  0  0  0
 33 24  1  0  0  0  0
 34 35  1  0  0  0  0
M  END
>  <Activity>
16.0

>  <minimizedAffinity>
-9.23355

>  <RFScoreVS_v2>
5.98125843877

$$$$
HIPS6134
 OpenBabel05252300073D

 35 38  0  0  0  0  0  0  0  0999 V2000
   69.3736   78.4872   90.2707 C   0  0  0  0  0  0  0  0  0  0  0  0
   70.7206   78.5945   89.8960 C   0  0  0  0  0  0  0  0  0  0  0  0
   71.6894   77.8104   90.5254 C   0  0  0  0  0  0  0  0  0  0  0  0
   71.3248   76.9176   91.5367 C   0  0  0  0  0  0  0  0  0  0  0  0
   69.9812   76.8041   91.9323 C   0  0  0  0  0  0  0  0  0  0  0  0
   69.0098   77.5829   91.2816 C   0  0  0  0  0  0  0  0  0  0  0  0
   69.5846   75.8705   93.0142 C   0  0  0  0  0  0  0  0  0  0  0  0
   69.1538   76.3675   94.2563 C   0  0  0  0  0  0  0  0  0  0  0  0
   68.7603   75.4899   95.2690 C   0  0  0  0  0  0  0  0  0  0  0  0
   68.7754   74.1117   95.0481 C   0  0  0  0  0  0  0  0  0  0  0  0
   69.1917   73.5947   93.8165 C   0  0  0  0  0  0  0  0  0  0  0  0
   69.6142   74.4808   92.8058 C   0  0  0  0  0  0  0  0  0  0  0  0
   69.1653   72.2019   93.6409 O   0  0  0  0  0  0  0  0  0  0  0  0
   69.1512   71.5249   92.3831 C   0  0  0  0  0  0  0  0  0  0  0  0
   70.4049   70.7126   92.1946 C   0  0  0  0  0  0  0  0  0  0  0  0
   70.4163   69.6376   91.2915 C   0  0  0  0  0  0  0  0  0  0  0  0
   71.5761   68.8766   91.1158 C   0  0  0  0  0  0  0  0  0  0  0  0
   72.7305   69.1805   91.8411 C   0  0  0  0  0  0  0  0  0  0  0  0
   72.7269   70.2452   92.7485 C   0  0  0  0  0  0  0  0  0  0  0  0
   74.1775   70.6293   93.6579 Cl  0  0  0  0  0  0  0  0  0  0  0  0
   71.5663   71.0061   92.9300 C   0  0  0  0  0  0  0  0  0  0  0  0
   68.3212   79.2945   89.5581 C   0  0  0  0  0  0  0  0  0  0  0  0
   67.1733   78.4993   89.2508 O   0  0  0  0  0  0  0  0  0  0  0  0
   66.9335   75.0968   87.7051 C   0  0  0  0  0  0  0  0  0  0  0  0
   66.9202   76.1132   88.6759 C   0  0  0  0  0  0  0  0  0  0  0  0
   67.1376   77.4563   88.3127 C   0  0  0  0  0  0  0  0  0  0  0  0
   67.3478   77.7723   86.9673 C   0  0  0  0  0  0  0  0  0  0  0  0
   67.3741   76.7677   85.9982 C   0  0  0  0  0  0  0  0  0  0  0  0
   67.1592   75.4322   86.3548 C   0  0  0  0  0  0  0  0  0  0  0  0
   67.1556   74.4698   85.3416 O   0  0  0  0  0  0  0  0  0  0  0  0
   67.3089   74.7245   84.4530 H   0  0  0  0  0  0  0  0  0  0  0  0
   67.0776   73.2867   89.2366 O   0  0  0  0  0  0  0  0  0  0  0  0
   66.6694   73.7096   88.1218 C   0  0  0  0  0  0  0  0  0  0  0  0
   66.0012   72.8526   87.2564 O   0  0  0  0  0  0  0  0  0  0  0  0
   65.6977   73.1669   86.4275 H   0  0  0  0  0  0  0  0  0  0  0  0
  1  2  2  0  0  0  0
  2  3  1  0  0  0  0
  3  4  2  0  0  0  0
  4  5  1  0  0  0  0
  5  7  1  0  0  0  0
  5  6  2  0  0  0  0
  6  1  1  0  0  0  0
  7  8  2  0  0  0  0
  8  9  1  0  0  0  0
  9 10  2  0  0  0  0
 10 11  1  0  0  0  0
 11 13  1  0  0  0  0
 11 12  2  0  0  0  0
 12  7  1  0  0  0  0
 13 14  1  0  0  0  0
 14 15  1  0  0  0  0
 15 16  2  0  0  0  0
 16 17  1  0  0  0  0
 17 18  2  0  0  0  0
 18 19  1  0  0  0  0
 19 20  1  0  0  0  0
 19 21  2  0  0  0  0
 21 15  1  0  0  0  0
 22  1  1  0  0  0  0
 23 22  1  0  0  0  0
 24 25  2  0  0  0  0
 25 26  1  0  0  0  0
 26 23  1  0  0  0  0
 26 27  2  0  0  0  0
 27 28  1  0  0  0  0
 28 29  2  0  0  0  0
 29 30  1  0  0  0  0
 29 24  1  0  0  0  0
 30 31  1  0  0  0  0
 32 33  2  0  0  0  0
 33 34  1  0  0  0  0
 33 24  1  0  0  0  0
 34 35  1  0  0  0  0
M  END
>  <Activity>
16.0

>  <minimizedAffinity>
-9.21270

>  <RFScoreVS_v2>
5.98616556442

$$$$
HIPS6134
 OpenBabel05252300073D

 35 38  0  0  0  0  0  0  0  0999 V2000
   66.9487   75.8385   87.9689 C   0  0  0  0  0  0  0  0  0  0  0  0
   67.0901   75.7044   86.5803 C   0  0  0  0  0  0  0  0  0  0  0  0
   67.4371   76.8089   85.7998 C   0  0  0  0  0  0  0  0  0  0  0  0
   67.6404   78.0565   86.3956 C   0  0  0  0  0  0  0  0  0  0  0  0
   67.4930   78.2118   87.7844 C   0  0  0  0  0  0  0  0  0  0  0  0
   67.1618   77.0919   88.5653 C   0  0  0  0  0  0  0  0  0  0  0  0
   67.6922   79.5340   88.4258 C   0  0  0  0  0  0  0  0  0  0  0  0
   68.2383   79.6195   89.7181 C   0  0  0  0  0  0  0  0  0  0  0  0
   68.4458   80.8649   90.3151 C   0  0  0  0  0  0  0  0  0  0  0  0
   68.1280   82.0356   89.6245 C   0  0  0  0  0  0  0  0  0  0  0  0
   67.5917   81.9751   88.3338 C   0  0  0  0  0  0  0  0  0  0  0  0
   67.3579   80.7169   87.7443 C   0  0  0  0  0  0  0  0  0  0  0  0
   67.3119   83.1838   87.6765 O   0  0  0  0  0  0  0  0  0  0  0  0
   68.0518   83.7215   86.5792 C   0  0  0  0  0  0  0  0  0  0  0  0
   69.2598   84.4785   87.0635 C   0  0  0  0  0  0  0  0  0  0  0  0
   70.5270   83.8749   87.0303 C   0  0  0  0  0  0  0  0  0  0  0  0
   71.6519   84.5712   87.4832 C   0  0  0  0  0  0  0  0  0  0  0  0
   71.5201   85.8721   87.9746 C   0  0  0  0  0  0  0  0  0  0  0  0
   70.2607   86.4794   88.0183 C   0  0  0  0  0  0  0  0  0  0  0  0
   70.0948   88.1146   88.6327 Cl  0  0  0  0  0  0  0  0  0  0  0  0
   69.1322   85.7836   87.5698 C   0  0  0  0  0  0  0  0  0  0  0  0
   66.6247   74.6380   88.8181 C   0  0  0  0  0  0  0  0  0  0  0  0
   67.7914   73.8536   89.0789 O   0  0  0  0  0  0  0  0  0  0  0  0
   69.6791   74.7205   92.1948 C   0  0  0  0  0  0  0  0  0  0  0  0
   68.9999   74.8723   90.9735 C   0  0  0  0  0  0  0  0  0  0  0  0
   68.4428   73.7574   90.3181 C   0  0  0  0  0  0  0  0  0  0  0  0
   68.5551   72.4947   90.9075 C   0  0  0  0  0  0  0  0  0  0  0  0
   69.2380   72.3334   92.1144 C   0  0  0  0  0  0  0  0  0  0  0  0
   69.7934   73.4382   92.7686 C   0  0  0  0  0  0  0  0  0  0  0  0
   70.4317   73.2288   93.9939 O   0  0  0  0  0  0  0  0  0  0  0  0
   70.4914   72.3638   94.3493 H   0  0  0  0  0  0  0  0  0  0  0  0
   69.7842   76.2690   93.9930 O   0  0  0  0  0  0  0  0  0  0  0  0
   70.2185   75.9160   92.8638 C   0  0  0  0  0  0  0  0  0  0  0  0
   71.1838   76.6807   92.2210 O   0  0  0  0  0  0  0  0  0  0  0  0
   71.5068   76.4183   91.3814 H   0  0  0  0  0  0  0  0  0  0  0  0
  1  2  2  0  0  0  0
  2  3  1  0  0  0  0
  3  4  2  0  0  0  0
  4  5  1  0  0  0  0
  5  7  1  0  0  0  0
  5  6  2  0  0  0  0
  6  1  1  0  0  0  0
  7  8  2  0  0  0  0
  8  9  1  0  0  0  0
  9 10  2  0  0  0  0
 10 11  1  0  0  0  0
 11 13  1  0  0  0  0
 11 12  2  0  0  0  0
 12  7  1  0  0  0  0
 13 14  1  0  0  0  0
 14 15  1  0  0  0  0
 15 16  2  0  0  0  0
 16 17  1  0  0  0  0
 17 18  2  0  0  0  0
 18 19  1  0  0  0  0
 19 20  1  0  0  0  0
 19 21  2  0  0  0  0
 21 15  1  0  0  0  0
 22  1  1  0  0  0  0
 23 22  1  0  0  0  0
 24 25  2  0  0  0  0
 25 26  1  0  0  0  0
 26 23  1  0  0  0  0
 26 27  2  0  0  0  0
 27 28  1  0  0  0  0
 28 29  2  0  0  0  0
 29 30  1  0  0  0  0
 29 24  1  0  0  0  0
 30 31  1  0  0  0  0
 32 33  2  0  0  0  0
 33 34  1  0  0  0  0
 33 24  1  0  0  0  0
 34 35  1  0  0  0  0
M  END
>  <Activity>
16.0

>  <minimizedAffinity>
-9.14844

>  <RFScoreVS_v2>
6.02504789419

$$$$
HIPS6546
 OpenBabel05252300073D

 35 37  0  0  0  0  0  0  0  0999 V2000
   67.8996   77.3201   89.0201 C   0  0  0  0  0  0  0  0  0  0  0  0
   67.6591   77.1287   87.6479 C   0  0  0  0  0  0  0  0  0  0  0  0
   67.2892   78.2047   86.8379 C   0  0  0  0  0  0  0  0  0  0  0  0
   67.1580   79.4828   87.3837 C   0  0  0  0  0  0  0  0  0  0  0  0
   67.4053   79.6971   88.7479 C   0  0  0  0  0  0  0  0  0  0  0  0
   67.7614   78.6106   89.5632 C   0  0  0  0  0  0  0  0  0  0  0  0
   69.0460   74.0119   91.5182 C   0  0  0  0  0  0  0  0  0  0  0  0
   69.6224   75.2737   91.7125 C   0  0  0  0  0  0  0  0  0  0  0  0
   69.2510   76.3494   90.9008 C   0  0  0  0  0  0  0  0  0  0  0  0
   68.2958   76.1787   89.8825 C   0  0  0  0  0  0  0  0  0  0  0  0
   67.7183   74.9095   89.6971 C   0  0  0  0  0  0  0  0  0  0  0  0
   68.0895   73.8363   90.5119 C   0  0  0  0  0  0  0  0  0  0  0  0
   69.4839   72.6542   92.5533 S   0  0  0  0  0  0  0  0  0  0  0  0
   70.9796   72.5192   92.6431 O   0  0  0  0  0  0  0  0  0  0  0  0
   68.9340   71.3940   91.9474 O   0  0  0  0  0  0  0  0  0  0  0  0
   68.8221   72.8505   94.1013 O   0  0  0  0  0  0  0  0  0  0  0  0
   67.5172   73.3696   93.9751 C   0  0  0  0  0  0  0  0  0  0  0  0
   66.7155   74.2684   96.2021 C   0  0  0  0  0  0  0  0  0  0  0  0
   67.3557   74.6365   94.8481 C   0  0  0  0  0  0  0  0  0  0  0  0
   66.4685   75.6684   94.1220 C   0  0  0  0  0  0  0  0  0  0  0  0
   68.7447   75.2560   95.0999 C   0  0  0  0  0  0  0  0  0  0  0  0
   67.2499   81.0725   89.3434 C   0  0  0  0  0  0  0  0  0  0  0  0
   67.6514   82.0814   88.4152 O   0  0  0  0  0  0  0  0  0  0  0  0
   68.9449   82.6189   88.3083 C   0  0  0  0  0  0  0  0  0  0  0  0
   69.2420   83.4031   87.1919 C   0  0  0  0  0  0  0  0  0  0  0  0
   70.5031   83.9807   87.0467 C   0  0  0  0  0  0  0  0  0  0  0  0
   71.4926   83.7873   88.0160 C   0  0  0  0  0  0  0  0  0  0  0  0
   72.7047   84.4609   87.8490 O   0  0  0  0  0  0  0  0  0  0  0  0
   71.2251   82.9570   89.1333 C   0  0  0  0  0  0  0  0  0  0  0  0
   69.9434   82.3942   89.2742 C   0  0  0  0  0  0  0  0  0  0  0  0
   72.8409   85.0004   87.0951 H   0  0  0  0  0  0  0  0  0  0  0  0
   72.2494   82.6298   90.1498 C   0  0  0  0  0  0  0  0  0  0  0  0
   71.9274   82.0751   91.2344 O   0  0  0  0  0  0  0  0  0  0  0  0
   73.5771   82.9910   89.9359 O   0  0  0  0  0  0  0  0  0  0  0  0
   73.8267   83.4039   89.1327 H   0  0  0  0  0  0  0  0  0  0  0  0
  1  2  2  0  0  0  0
  2  3  1  0  0  0  0
  3  4  2  0  0  0  0
  4  5  1  0  0  0  0
  5 22  1  0  0  0  0
  5  6  2  0  0  0  0
  6  1  1  0  0  0  0
  7  8  2  0  0  0  0
  8  9  1  0  0  0  0
  9 10  2  0  0  0  0
 10  1  1  0  0  0  0
 10 11  1  0  0  0  0
 11 12  2  0  0  0  0
 12  7  1  0  0  0  0
 13 14  2  0  0  0  0
 13 15  2  0  0  0  0
 13  7  1  0  0  0  0
 16 13  1  0  0  0  0
 17 16  1  0  0  0  0
 18 19  1  0  0  0  0
 19 20  1  0  0  0  0
 19 21  1  0  0  0  0
 19 17  1  0  0  0  0
 22 23  1  0  0  0  0
 23 24  1  0  0  0  0
 24 25  2  0  0  0  0
 25 26  1  0  0  0  0
 26 27  2  0  0  0  0
 27 28  1  0  0  0  0
 27 29  1  0  0  0  0
 28 31  1  0  0  0  0
 29 32  1  0  0  0  0
 29 30  2  0  0  0  0
 30 24  1  0  0  0  0
 32 33  2  0  0  0  0
 32 34  1  0  0  0  0
 34 35  1  0  0  0  0
M  END
>  <Activity>
17.1

>  <minimizedAffinity>
-9.13578

>  <RFScoreVS_v2>
5.99406067869

$$$$
HIPS6546
 OpenBabel05252300073D

 35 37  0  0  0  0  0  0  0  0999 V2000
   67.7575   77.0722   89.0011 C   0  0  0  0  0  0  0  0  0  0  0  0
   67.4571   76.8266   87.6496 C   0  0  0  0  0  0  0  0  0  0  0  0
   67.0455   77.8689   86.8159 C   0  0  0  0  0  0  0  0  0  0  0  0
   66.9318   79.1667   87.3172 C   0  0  0  0  0  0  0  0  0  0  0  0
   67.2384   79.4349   88.6596 C   0  0  0  0  0  0  0  0  0  0  0  0
   67.6365   78.3823   89.4996 C   0  0  0  0  0  0  0  0  0  0  0  0
   69.0324   73.8681   91.5716 C   0  0  0  0  0  0  0  0  0  0  0  0
   69.5571   75.1560   91.7387 C   0  0  0  0  0  0  0  0  0  0  0  0
   69.1440   76.1979   90.9036 C   0  0  0  0  0  0  0  0  0  0  0  0
   68.1981   75.9667   89.8885 C   0  0  0  0  0  0  0  0  0  0  0  0
   67.6725   74.6715   89.7304 C   0  0  0  0  0  0  0  0  0  0  0  0
   68.0855   73.6321   90.5686 C   0  0  0  0  0  0  0  0  0  0  0  0
   69.5231   72.5519   92.6363 S   0  0  0  0  0  0  0  0  0  0  0  0
   71.0215   72.4174   92.6541 O   0  0  0  0  0  0  0  0  0  0  0  0
   68.9425   71.2697   92.1106 O   0  0  0  0  0  0  0  0  0  0  0  0
   68.9423   72.8116   94.2073 O   0  0  0  0  0  0  0  0  0  0  0  0
   67.6226   73.3019   94.1286 C   0  0  0  0  0  0  0  0  0  0  0  0
   68.8943   75.2023   95.2153 C   0  0  0  0  0  0  0  0  0  0  0  0
   67.4947   74.6297   94.9121 C   0  0  0  0  0  0  0  0  0  0  0  0
   66.7377   74.3914   96.2346 C   0  0  0  0  0  0  0  0  0  0  0  0
   66.7094   75.6453   94.0588 C   0  0  0  0  0  0  0  0  0  0  0  0
   67.1022   80.8318   89.2077 C   0  0  0  0  0  0  0  0  0  0  0  0
   67.7073   81.7866   88.3343 O   0  0  0  0  0  0  0  0  0  0  0  0
   68.9680   82.3768   88.5239 C   0  0  0  0  0  0  0  0  0  0  0  0
   69.7981   81.8523   89.5166 C   0  0  0  0  0  0  0  0  0  0  0  0
   71.0690   82.3847   89.7322 C   0  0  0  0  0  0  0  0  0  0  0  0
   71.5366   83.4514   88.9581 C   0  0  0  0  0  0  0  0  0  0  0  0
   72.8482   83.8816   89.1713 O   0  0  0  0  0  0  0  0  0  0  0  0
   70.6914   84.0274   87.9766 C   0  0  0  0  0  0  0  0  0  0  0  0
   69.4182   83.4695   87.7599 C   0  0  0  0  0  0  0  0  0  0  0  0
   73.3737   83.4734   89.8310 H   0  0  0  0  0  0  0  0  0  0  0  0
   71.0796   85.2155   87.1847 C   0  0  0  0  0  0  0  0  0  0  0  0
   72.0392   85.9470   87.5478 O   0  0  0  0  0  0  0  0  0  0  0  0
   70.3416   85.5676   86.0576 O   0  0  0  0  0  0  0  0  0  0  0  0
   69.6262   85.0302   85.7794 H   0  0  0  0  0  0  0  0  0  0  0  0
  1  2  2  0  0  0  0
  2  3  1  0  0  0  0
  3  4  2  0  0  0  0
  4  5  1  0  0  0  0
  5 22  1  0  0  0  0
  5  6  2  0  0  0  0
  6  1  1  0  0  0  0
  7  8  2  0  0  0  0
  8  9  1  0  0  0  0
  9 10  2  0  0  0  0
 10  1  1  0  0  0  0
 10 11  1  0  0  0  0
 11 12  2  0  0  0  0
 12  7  1  0  0  0  0
 13 14  2  0  0  0  0
 13 15  2  0  0  0  0
 13  7  1  0  0  0  0
 16 13  1  0  0  0  0
 17 16  1  0  0  0  0
 18 19  1  0  0  0  0
 19 20  1  0  0  0  0
 19 21  1  0  0  0  0
 19 17  1  0  0  0  0
 22 23  1  0  0  0  0
 23 24  1  0  0  0  0
 24 25  2  0  0  0  0
 25 26  1  0  0  0  0
 26 27  2  0  0  0  0
 27 28  1  0  0  0  0
 27 29  1  0  0  0  0
 28 31  1  0  0  0  0
 29 32  1  0  0  0  0
 29 30  2  0  0  0  0
 30 24  1  0  0  0  0
 32 33  2  0  0  0  0
 32 34  1  0  0  0  0
 34 35  1  0  0  0  0
M  END
>  <Activity>
17.1

>  <minimizedAffinity>
-9.01363

>  <RFScoreVS_v2>
5.99431050069

$$$$
HIPS6546
 OpenBabel05252300073D

 35 37  0  0  0  0  0  0  0  0999 V2000
   67.3806   78.4550   88.2140 C   0  0  0  0  0  0  0  0  0  0  0  0
   67.0851   77.9563   86.9329 C   0  0  0  0  0  0  0  0  0  0  0  0
   66.9624   76.5814   86.7202 C   0  0  0  0  0  0  0  0  0  0  0  0
   67.1291   75.6886   87.7803 C   0  0  0  0  0  0  0  0  0  0  0  0
   67.4124   76.1666   89.0684 C   0  0  0  0  0  0  0  0  0  0  0  0
   67.5511   77.5484   89.2763 C   0  0  0  0  0  0  0  0  0  0  0  0
   67.7512   82.6880   88.8804 C   0  0  0  0  0  0  0  0  0  0  0  0
   67.5129   82.1965   87.5906 C   0  0  0  0  0  0  0  0  0  0  0  0
   67.3928   80.8211   87.3727 C   0  0  0  0  0  0  0  0  0  0  0  0
   67.5086   79.9161   88.4433 C   0  0  0  0  0  0  0  0  0  0  0  0
   67.7433   80.4181   89.7363 C   0  0  0  0  0  0  0  0  0  0  0  0
   67.8602   81.7941   89.9516 C   0  0  0  0  0  0  0  0  0  0  0  0
   67.8758   84.4215   89.1735 S   0  0  0  0  0  0  0  0  0  0  0  0
   66.8645   84.8580   90.1983 O   0  0  0  0  0  0  0  0  0  0  0  0
   67.5860   85.1458   87.8893 O   0  0  0  0  0  0  0  0  0  0  0  0
   69.4393   84.8255   89.6882 O   0  0  0  0  0  0  0  0  0  0  0  0
   70.3411   83.8538   89.2079 C   0  0  0  0  0  0  0  0  0  0  0  0
   72.7511   84.1290   88.4827 C   0  0  0  0  0  0  0  0  0  0  0  0
   71.2849   84.4725   88.1497 C   0  0  0  0  0  0  0  0  0  0  0  0
   71.1091   86.0045   88.1169 C   0  0  0  0  0  0  0  0  0  0  0  0
   70.9352   83.8962   86.7634 C   0  0  0  0  0  0  0  0  0  0  0  0
   67.6079   75.2049   90.2119 C   0  0  0  0  0  0  0  0  0  0  0  0
   67.4897   75.8725   91.4693 O   0  0  0  0  0  0  0  0  0  0  0  0
   67.4602   75.2420   92.7244 C   0  0  0  0  0  0  0  0  0  0  0  0
   66.3357   75.4312   93.5301 C   0  0  0  0  0  0  0  0  0  0  0  0
   66.2435   74.8104   94.7755 C   0  0  0  0  0  0  0  0  0  0  0  0
   67.2734   73.9859   95.2400 C   0  0  0  0  0  0  0  0  0  0  0  0
   67.0802   73.3306   96.4582 O   0  0  0  0  0  0  0  0  0  0  0  0
   68.4429   73.8183   94.4568 C   0  0  0  0  0  0  0  0  0  0  0  0
   68.5147   74.4382   93.1959 C   0  0  0  0  0  0  0  0  0  0  0  0
   66.2918   73.4695   96.9450 H   0  0  0  0  0  0  0  0  0  0  0  0
   69.6117   73.0391   94.9218 C   0  0  0  0  0  0  0  0  0  0  0  0
   69.6359   72.5417   96.0793 O   0  0  0  0  0  0  0  0  0  0  0  0
   70.7249   72.9017   94.0966 O   0  0  0  0  0  0  0  0  0  0  0  0
   70.7168   73.2680   93.2342 H   0  0  0  0  0  0  0  0  0  0  0  0
  1  2  2  0  0  0  0
  2  3  1  0  0  0  0
  3  4  2  0  0  0  0
  4  5  1  0  0  0  0
  5 22  1  0  0  0  0
  5  6  2  0  0  0  0
  6  1  1  0  0  0  0
  7  8  2  0  0  0  0
  8  9  1  0  0  0  0
  9 10  2  0  0  0  0
 10  1  1  0  0  0  0
 10 11  1  0  0  0  0
 11 12  2  0  0  0  0
 12  7  1  0  0  0  0
 13 14  2  0  0  0  0
 13 15  2  0  0  0  0
 13  7  1  0  0  0  0
 16 13  1  0  0  0  0
 17 16  1  0  0  0  0
 18 19  1  0  0  0  0
 19 20  1  0  0  0  0
 19 21  1  0  0  0  0
 19 17  1  0  0  0  0
 22 23  1  0  0  0  0
 23 24  1  0  0  0  0
 24 25  2  0  0  0  0
 25 26  1  0  0  0  0
 26 27  2  0  0  0  0
 27 28  1  0  0  0  0
 27 29  1  0  0  0  0
 28 31  1  0  0  0  0
 29 32  1  0  0  0  0
 29 30  2  0  0  0  0
 30 24  1  0  0  0  0
 32 33  2  0  0  0  0
 32 34  1  0  0  0  0
 34 35  1  0  0  0  0
M  END
>  <Activity>
17.1

>  <minimizedAffinity>
-8.76862

>  <RFScoreVS_v2>
5.99255516206

$$$$
HIPS6546
 OpenBabel05252300073D

 35 37  0  0  0  0  0  0  0  0999 V2000
   67.8418   77.1845   89.1137 C   0  0  0  0  0  0  0  0  0  0  0  0
   67.4340   76.5791   87.9119 C   0  0  0  0  0  0  0  0  0  0  0  0
   67.0556   77.3617   86.8186 C   0  0  0  0  0  0  0  0  0  0  0  0
   67.0824   78.7544   86.9084 C   0  0  0  0  0  0  0  0  0  0  0  0
   67.4977   79.3780   88.0945 C   0  0  0  0  0  0  0  0  0  0  0  0
   67.8621   78.5888   89.1974 C   0  0  0  0  0  0  0  0  0  0  0  0
   69.0155   74.7796   92.4809 C   0  0  0  0  0  0  0  0  0  0  0  0
   69.1309   76.1744   92.5376 C   0  0  0  0  0  0  0  0  0  0  0  0
   68.7503   76.9569   91.4437 C   0  0  0  0  0  0  0  0  0  0  0  0
   68.2472   76.3551   90.2762 C   0  0  0  0  0  0  0  0  0  0  0  0
   68.1301   74.9540   90.2291 C   0  0  0  0  0  0  0  0  0  0  0  0
   68.5089   74.1742   91.3254 C   0  0  0  0  0  0  0  0  0  0  0  0
   69.4646   73.7832   93.8637 S   0  0  0  0  0  0  0  0  0  0  0  0
   68.3043   72.9301   94.2991 O   0  0  0  0  0  0  0  0  0  0  0  0
   69.8368   74.6877   95.0043 O   0  0  0  0  0  0  0  0  0  0  0  0
   70.7963   72.8062   93.4835 O   0  0  0  0  0  0  0  0  0  0  0  0
   70.7865   71.6763   94.3270 C   0  0  0  0  0  0  0  0  0  0  0  0
   72.3780   70.3498   92.8719 C   0  0  0  0  0  0  0  0  0  0  0  0
   70.9683   70.3838   93.4965 C   0  0  0  0  0  0  0  0  0  0  0  0
   69.9075   70.3209   92.3786 C   0  0  0  0  0  0  0  0  0  0  0  0
   70.7979   69.1621   94.4210 C   0  0  0  0  0  0  0  0  0  0  0  0
   67.5133   80.8810   88.1999 C   0  0  0  0  0  0  0  0  0  0  0  0
   68.3154   81.3094   89.3016 O   0  0  0  0  0  0  0  0  0  0  0  0
   69.4957   82.0650   89.2021 C   0  0  0  0  0  0  0  0  0  0  0  0
   70.5594   81.7387   90.0457 C   0  0  0  0  0  0  0  0  0  0  0  0
   71.7624   82.4407   89.9734 C   0  0  0  0  0  0  0  0  0  0  0  0
   71.9268   83.4822   89.0546 C   0  0  0  0  0  0  0  0  0  0  0  0
   73.1831   84.0880   88.9788 O   0  0  0  0  0  0  0  0  0  0  0  0
   70.8433   83.8585   88.2217 C   0  0  0  0  0  0  0  0  0  0  0  0
   69.6414   83.1309   88.2949 C   0  0  0  0  0  0  0  0  0  0  0  0
   73.8728   83.8091   89.5483 H   0  0  0  0  0  0  0  0  0  0  0  0
   70.9104   85.0085   87.2931 C   0  0  0  0  0  0  0  0  0  0  0  0
   71.7453   85.9349   87.4732 O   0  0  0  0  0  0  0  0  0  0  0  0
   70.0029   85.1028   86.2411 O   0  0  0  0  0  0  0  0  0  0  0  0
   69.3780   84.4193   86.0988 H   0  0  0  0  0  0  0  0  0  0  0  0
  1  2  2  0  0  0  0
  2  3  1  0  0  0  0
  3  4  2  0  0  0  0
  4  5  1  0  0  0  0
  5 22  1  0  0  0  0
  5  6  2  0  0  0  0
  6  1  1  0  0  0  0
  7  8  2  0  0  0  0
  8  9  1  0  0  0  0
  9 10  2  0  0  0  0
 10  1  1  0  0  0  0
 10 11  1  0  0  0  0
 11 12  2  0  0  0  0
 12  7  1  0  0  0  0
 13 14  2  0  0  0  0
 13 15  2  0  0  0  0
 13  7  1  0  0  0  0
 16 13  1  0  0  0  0
 17 16  1  0  0  0  0
 18 19  1  0  0  0  0
 19 20  1  0  0  0  0
 19 21  1  0  0  0  0
 19 17  1  0  0  0  0
 22 23  1  0  0  0  0
 23 24  1  0  0  0  0
 24 25  2  0  0  0  0
 25 26  1  0  0  0  0
 26 27  2  0  0  0  0
 27 28  1  0  0  0  0
 27 29  1  0  0  0  0
 28 31  1  0  0  0  0
 29 32  1  0  0  0  0
 29 30  2  0  0  0  0
 30 24  1  0  0  0  0
 32 33  2  0  0  0  0
 32 34  1  0  0  0  0
 34 35  1  0  0  0  0
M  END
>  <Activity>
17.1

>  <minimizedAffinity>
-8.74635

>  <RFScoreVS_v2>
5.99715238574

$$$$
HIPS6546
 OpenBabel05252300073D

 35 37  0  0  0  0  0  0  0  0999 V2000
   67.8235   76.4865   89.1139 C   0  0  0  0  0  0  0  0  0  0  0  0
   67.1722   76.1973   87.9018 C   0  0  0  0  0  0  0  0  0  0  0  0
   66.7647   77.2297   87.0539 C   0  0  0  0  0  0  0  0  0  0  0  0
   67.0041   78.5603   87.4015 C   0  0  0  0  0  0  0  0  0  0  0  0
   67.6632   78.8696   88.6006 C   0  0  0  0  0  0  0  0  0  0  0  0
   68.0574   77.8303   89.4588 C   0  0  0  0  0  0  0  0  0  0  0  0
   69.0901   73.3134   91.7266 C   0  0  0  0  0  0  0  0  0  0  0  0
   68.1681   73.0574   90.7038 C   0  0  0  0  0  0  0  0  0  0  0  0
   67.7553   74.0880   89.8545 C   0  0  0  0  0  0  0  0  0  0  0  0
   68.2602   75.3909   90.0154 C   0  0  0  0  0  0  0  0  0  0  0  0
   69.1894   75.6386   91.0421 C   0  0  0  0  0  0  0  0  0  0  0  0
   69.6024   74.6057   91.8882 C   0  0  0  0  0  0  0  0  0  0  0  0
   69.6410   72.0169   92.7860 S   0  0  0  0  0  0  0  0  0  0  0  0
   69.0379   70.7028   92.3703 O   0  0  0  0  0  0  0  0  0  0  0  0
   69.1888   72.3192   94.1867 O   0  0  0  0  0  0  0  0  0  0  0  0
   71.3326   71.9140   92.7678 O   0  0  0  0  0  0  0  0  0  0  0  0
   71.7726   71.4407   94.0211 C   0  0  0  0  0  0  0  0  0  0  0  0
   71.4035   68.9763   94.4685 C   0  0  0  0  0  0  0  0  0  0  0  0
   72.3724   70.0218   93.8795 C   0  0  0  0  0  0  0  0  0  0  0  0
   73.7249   69.9443   94.6170 C   0  0  0  0  0  0  0  0  0  0  0  0
   72.5959   69.7153   92.3854 C   0  0  0  0  0  0  0  0  0  0  0  0
   67.9097   80.3053   88.9860 C   0  0  0  0  0  0  0  0  0  0  0  0
   67.6432   81.1831   87.8910 O   0  0  0  0  0  0  0  0  0  0  0  0
   68.1961   82.4637   87.7230 C   0  0  0  0  0  0  0  0  0  0  0  0
   67.4208   83.4379   87.0911 C   0  0  0  0  0  0  0  0  0  0  0  0
   67.9111   84.7321   86.9188 C   0  0  0  0  0  0  0  0  0  0  0  0
   69.1862   85.0791   87.3766 C   0  0  0  0  0  0  0  0  0  0  0  0
   69.5821   86.4121   87.2454 O   0  0  0  0  0  0  0  0  0  0  0  0
   70.0061   84.0922   87.9793 C   0  0  0  0  0  0  0  0  0  0  0  0
   69.4919   82.7953   88.1605 C   0  0  0  0  0  0  0  0  0  0  0  0
   69.0093   87.0332   86.8403 H   0  0  0  0  0  0  0  0  0  0  0  0
   71.3985   84.3592   88.4028 C   0  0  0  0  0  0  0  0  0  0  0  0
   71.9269   83.6971   89.3356 O   0  0  0  0  0  0  0  0  0  0  0  0
   72.1171   85.3928   87.8076 O   0  0  0  0  0  0  0  0  0  0  0  0
   71.7330   85.8910   87.1131 H   0  0  0  0  0  0  0  0  0  0  0  0
  1  2  2  0  0  0  0
  2  3  1  0  0  0  0
  3  4  2  0  0  0  0
  4  5  1  0  0  0  0
  5 22  1  0  0  0  0
  5  6  2  0  0  0  0
  6  1  1  0  0  0  0
  7  8  2  0  0  0  0
  8  9  1  0  0  0  0
  9 10  2  0  0  0  0
 10  1  1  0  0  0  0
 10 11  1  0  0  0  0
 11 12  2  0  0  0  0
 12  7  1  0  0  0  0
 13 14  2  0  0  0  0
 13 15  2  0  0  0  0
 13  7  1  0  0  0  0
 16 13  1  0  0  0  0
 17 16  1  0  0  0  0
 18 19  1  0  0  0  0
 19 20  1  0  0  0  0
 19 21  1  0  0  0  0
 19 17  1  0  0  0  0
 22 23  1  0  0  0  0
 23 24  1  0  0  0  0
 24 25  2  0  0  0  0
 25 26  1  0  0  0  0
 26 27  2  0  0  0  0
 27 28  1  0  0  0  0
 27 29  1  0  0  0  0
 28 31  1  0  0  0  0
 29 32  1  0  0  0  0
 29 30  2  0  0  0  0
 30 24  1  0  0  0  0
 32 33  2  0  0  0  0
 32 34  1  0  0  0  0
 34 35  1  0  0  0  0
M  END
>  <Activity>
17.1

>  <minimizedAffinity>
-8.65150

>  <RFScoreVS_v2>
5.99098583278

$$$$
HIPS6546
 OpenBabel05252300073D

 35 37  0  0  0  0  0  0  0  0999 V2000
   67.4675   77.6813   87.8165 C   0  0  0  0  0  0  0  0  0  0  0  0
   67.2587   77.3984   86.4551 C   0  0  0  0  0  0  0  0  0  0  0  0
   67.0279   76.0873   86.0325 C   0  0  0  0  0  0  0  0  0  0  0  0
   66.9991   75.0447   86.9603 C   0  0  0  0  0  0  0  0  0  0  0  0
   67.1931   75.3075   88.3246 C   0  0  0  0  0  0  0  0  0  0  0  0
   67.4409   76.6243   88.7447 C   0  0  0  0  0  0  0  0  0  0  0  0
   68.1710   81.7167   89.1280 C   0  0  0  0  0  0  0  0  0  0  0  0
   67.3727   81.4709   88.0036 C   0  0  0  0  0  0  0  0  0  0  0  0
   67.1439   80.1599   87.5762 C   0  0  0  0  0  0  0  0  0  0  0  0
   67.7100   79.0743   88.2686 C   0  0  0  0  0  0  0  0  0  0  0  0
   68.5067   79.3296   89.3996 C   0  0  0  0  0  0  0  0  0  0  0  0
   68.7316   80.6413   89.8263 C   0  0  0  0  0  0  0  0  0  0  0  0
   68.4438   83.3632   89.6948 S   0  0  0  0  0  0  0  0  0  0  0  0
   69.2805   83.3597   90.9451 O   0  0  0  0  0  0  0  0  0  0  0  0
   67.1145   83.9833   90.0207 O   0  0  0  0  0  0  0  0  0  0  0  0
   69.1980   84.2878   88.4910 O   0  0  0  0  0  0  0  0  0  0  0  0
   70.3182   84.9359   89.0508 C   0  0  0  0  0  0  0  0  0  0  0  0
   72.5003   83.6542   89.1217 C   0  0  0  0  0  0  0  0  0  0  0  0
   71.5997   84.5683   88.2661 C   0  0  0  0  0  0  0  0  0  0  0  0
   72.3738   85.8482   87.8898 C   0  0  0  0  0  0  0  0  0  0  0  0
   71.2050   83.8216   86.9766 C   0  0  0  0  0  0  0  0  0  0  0  0
   67.1777   74.1825   89.3268 C   0  0  0  0  0  0  0  0  0  0  0  0
   68.4169   74.1084   90.0336 O   0  0  0  0  0  0  0  0  0  0  0  0
   68.5556   73.8288   91.4034 C   0  0  0  0  0  0  0  0  0  0  0  0
   69.7933   73.3714   91.8600 C   0  0  0  0  0  0  0  0  0  0  0  0
   69.9935   73.1006   93.2134 C   0  0  0  0  0  0  0  0  0  0  0  0
   68.9604   73.2835   94.1383 C   0  0  0  0  0  0  0  0  0  0  0  0
   69.2530   73.0725   95.4876 O   0  0  0  0  0  0  0  0  0  0  0  0
   67.6836   73.7030   93.6877 C   0  0  0  0  0  0  0  0  0  0  0  0
   67.5013   73.9875   92.3219 C   0  0  0  0  0  0  0  0  0  0  0  0
   70.1107   72.7950   95.7433 H   0  0  0  0  0  0  0  0  0  0  0  0
   66.5182   73.8280   94.5908 C   0  0  0  0  0  0  0  0  0  0  0  0
   65.5119   74.5077   94.2547 O   0  0  0  0  0  0  0  0  0  0  0  0
   66.5537   73.2391   95.8522 O   0  0  0  0  0  0  0  0  0  0  0  0
   67.2975   72.7318   96.1116 H   0  0  0  0  0  0  0  0  0  0  0  0
  1  2  2  0  0  0  0
  2  3  1  0  0  0  0
  3  4  2  0  0  0  0
  4  5  1  0  0  0  0
  5 22  1  0  0  0  0
  5  6  2  0  0  0  0
  6  1  1  0  0  0  0
  7  8  2  0  0  0  0
  8  9  1  0  0  0  0
  9 10  2  0  0  0  0
 10  1  1  0  0  0  0
 10 11  1  0  0  0  0
 11 12  2  0  0  0  0
 12  7  1  0  0  0  0
 13 14  2  0  0  0  0
 13 15  2  0  0  0  0
 13  7  1  0  0  0  0
 16 13  1  0  0  0  0
 17 16  1  0  0  0  0
 18 19  1  0  0  0  0
 19 20  1  0  0  0  0
 19 21  1  0  0  0  0
 19 17  1  0  0  0  0
 22 23  1  0  0  0  0
 23 24  1  0  0  0  0
 24 25  2  0  0  0  0
 25 26  1  0  0  0  0
 26 27  2  0  0  0  0
 27 28  1  0  0  0  0
 27 29  1  0  0  0  0
 28 31  1  0  0  0  0
 29 32  1  0  0  0  0
 29 30  2  0  0  0  0
 30 24  1  0  0  0  0
 32 33  2  0  0  0  0
 32 34  1  0  0  0  0
 34 35  1  0  0  0  0
M  END
>  <Activity>
17.1

>  <minimizedAffinity>
-8.55816

>  <RFScoreVS_v2>
5.967711073

$$$$
HIPS6546
 OpenBabel05252300073D

 35 37  0  0  0  0  0  0  0  0999 V2000
   67.9135   77.0983   89.1679 C   0  0  0  0  0  0  0  0  0  0  0  0
   67.6061   76.7860   87.8317 C   0  0  0  0  0  0  0  0  0  0  0  0
   67.2586   77.7956   86.9314 C   0  0  0  0  0  0  0  0  0  0  0  0
   67.2166   79.1266   87.3500 C   0  0  0  0  0  0  0  0  0  0  0  0
   67.5316   79.4605   88.6756 C   0  0  0  0  0  0  0  0  0  0  0  0
   67.8650   78.4418   89.5828 C   0  0  0  0  0  0  0  0  0  0  0  0
   68.9915   73.9943   91.9432 C   0  0  0  0  0  0  0  0  0  0  0  0
   69.5016   75.2890   92.1021 C   0  0  0  0  0  0  0  0  0  0  0  0
   69.1525   76.2984   91.2004 C   0  0  0  0  0  0  0  0  0  0  0  0
   68.2860   76.0274   90.1260 C   0  0  0  0  0  0  0  0  0  0  0  0
   67.7744   74.7256   89.9763 C   0  0  0  0  0  0  0  0  0  0  0  0
   68.1231   73.7189   90.8809 C   0  0  0  0  0  0  0  0  0  0  0  0
   69.4006   72.7195   93.0895 S   0  0  0  0  0  0  0  0  0  0  0  0
   68.3721   72.6440   94.1849 O   0  0  0  0  0  0  0  0  0  0  0  0
   70.7283   73.0452   93.7132 O   0  0  0  0  0  0  0  0  0  0  0  0
   69.5202   71.2256   92.2979 O   0  0  0  0  0  0  0  0  0  0  0  0
   70.8257   70.7221   92.4723 C   0  0  0  0  0  0  0  0  0  0  0  0
   71.3497   68.7671   90.9514 C   0  0  0  0  0  0  0  0  0  0  0  0
   70.8291   69.1805   92.3431 C   0  0  0  0  0  0  0  0  0  0  0  0
   69.4022   68.6306   92.5439 C   0  0  0  0  0  0  0  0  0  0  0  0
   71.7541   68.5859   93.4234 C   0  0  0  0  0  0  0  0  0  0  0  0
   67.4726   80.8945   89.1346 C   0  0  0  0  0  0  0  0  0  0  0  0
   67.9507   81.7780   88.1190 O   0  0  0  0  0  0  0  0  0  0  0  0
   69.1522   82.5040   88.1733 C   0  0  0  0  0  0  0  0  0  0  0  0
   69.3770   83.4791   87.1995 C   0  0  0  0  0  0  0  0  0  0  0  0
   70.5421   84.2453   87.2194 C   0  0  0  0  0  0  0  0  0  0  0  0
   71.5057   84.0533   88.2147 C   0  0  0  0  0  0  0  0  0  0  0  0
   72.6090   84.9098   88.2233 O   0  0  0  0  0  0  0  0  0  0  0  0
   71.3171   83.0372   89.1849 C   0  0  0  0  0  0  0  0  0  0  0  0
   70.1296   82.2831   89.1614 C   0  0  0  0  0  0  0  0  0  0  0  0
   72.6956   85.5688   87.5628 H   0  0  0  0  0  0  0  0  0  0  0  0
   72.3331   82.7122   90.2103 C   0  0  0  0  0  0  0  0  0  0  0  0
   71.9971   82.1996   91.3112 O   0  0  0  0  0  0  0  0  0  0  0  0
   73.6701   83.0297   89.9851 O   0  0  0  0  0  0  0  0  0  0  0  0
   73.9301   83.4112   89.1698 H   0  0  0  0  0  0  0  0  0  0  0  0
  1  2  2  0  0  0  0
  2  3  1  0  0  0  0
  3  4  2  0  0  0  0
  4  5  1  0  0  0  0
  5 22  1  0  0  0  0
  5  6  2  0  0  0  0
  6  1  1  0  0  0  0
  7  8  2  0  0  0  0
  8  9  1  0  0  0  0
  9 10  2  0  0  0  0
 10  1  1  0  0  0  0
 10 11  1  0  0  0  0
 11 12  2  0  0  0  0
 12  7  1  0  0  0  0
 13 14  2  0  0  0  0
 13 15  2  0  0  0  0
 13  7  1  0  0  0  0
 16 13  1  0  0  0  0
 17 16  1  0  0  0  0
 18 19  1  0  0  0  0
 19 20  1  0  0  0  0
 19 21  1  0  0  0  0
 19 17  1  0  0  0  0
 22 23  1  0  0  0  0
 23 24  1  0  0  0  0
 24 25  2  0  0  0  0
 25 26  1  0  0  0  0
 26 27  2  0  0  0  0
 27 28  1  0  0  0  0
 27 29  1  0  0  0  0
 28 31  1  0  0  0  0
 29 32  1  0  0  0  0
 29 30  2  0  0  0  0
 30 24  1  0  0  0  0
 32 33  2  0  0  0  0
 32 34  1  0  0  0  0
 34 35  1  0  0  0  0
M  END
>  <Activity>
17.1

>  <minimizedAffinity>
-8.37576

>  <RFScoreVS_v2>
5.97257948815

$$$$
HIPS6546
 OpenBabel05252300073D

 35 37  0  0  0  0  0  0  0  0999 V2000
   67.2723   78.3481   87.8020 C   0  0  0  0  0  0  0  0  0  0  0  0
   67.1692   77.9841   86.4477 C   0  0  0  0  0  0  0  0  0  0  0  0
   67.0728   76.6395   86.0821 C   0  0  0  0  0  0  0  0  0  0  0  0
   67.0745   75.6435   87.0601 C   0  0  0  0  0  0  0  0  0  0  0  0
   67.1643   75.9864   88.4175 C   0  0  0  0  0  0  0  0  0  0  0  0
   67.2774   77.3380   88.7813 C   0  0  0  0  0  0  0  0  0  0  0  0
   67.5612   82.4876   88.9338 C   0  0  0  0  0  0  0  0  0  0  0  0
   67.5973   81.4860   89.9123 C   0  0  0  0  0  0  0  0  0  0  0  0
   67.5029   80.1404   89.5457 C   0  0  0  0  0  0  0  0  0  0  0  0
   67.3719   79.7766   88.1933 C   0  0  0  0  0  0  0  0  0  0  0  0
   67.3413   80.7884   87.2164 C   0  0  0  0  0  0  0  0  0  0  0  0
   67.4385   82.1329   87.5856 C   0  0  0  0  0  0  0  0  0  0  0  0
   67.7084   84.1864   89.3799 S   0  0  0  0  0  0  0  0  0  0  0  0
   66.8521   84.4940   90.5780 O   0  0  0  0  0  0  0  0  0  0  0  0
   67.2274   85.0261   88.2305 O   0  0  0  0  0  0  0  0  0  0  0  0
   69.3257   84.5770   89.7032 O   0  0  0  0  0  0  0  0  0  0  0  0
   69.7601   85.5309   88.7601 C   0  0  0  0  0  0  0  0  0  0  0  0
   70.3290   84.8631   86.3853 C   0  0  0  0  0  0  0  0  0  0  0  0
   70.8427   84.9214   87.8383 C   0  0  0  0  0  0  0  0  0  0  0  0
   71.2027   83.4995   88.3153 C   0  0  0  0  0  0  0  0  0  0  0  0
   72.1052   85.8043   87.8908 C   0  0  0  0  0  0  0  0  0  0  0  0
   67.1817   74.9131   89.4748 C   0  0  0  0  0  0  0  0  0  0  0  0
   68.4968   74.7354   90.0036 O   0  0  0  0  0  0  0  0  0  0  0  0
   68.8815   74.9961   91.3294 C   0  0  0  0  0  0  0  0  0  0  0  0
   68.9361   76.3264   91.7498 C   0  0  0  0  0  0  0  0  0  0  0  0
   69.2893   76.6412   93.0618 C   0  0  0  0  0  0  0  0  0  0  0  0
   69.5934   75.6319   93.9808 C   0  0  0  0  0  0  0  0  0  0  0  0
   69.8586   76.0126   95.2983 O   0  0  0  0  0  0  0  0  0  0  0  0
   69.5883   74.2780   93.5608 C   0  0  0  0  0  0  0  0  0  0  0  0
   69.2147   73.9750   92.2387 C   0  0  0  0  0  0  0  0  0  0  0  0
   69.8520   76.9193   95.5343 H   0  0  0  0  0  0  0  0  0  0  0  0
   69.9894   73.1640   94.4482 C   0  0  0  0  0  0  0  0  0  0  0  0
   70.9351   72.3946   94.1301 O   0  0  0  0  0  0  0  0  0  0  0  0
   69.2779   72.9223   95.6206 O   0  0  0  0  0  0  0  0  0  0  0  0
   68.5729   73.4886   95.8660 H   0  0  0  0  0  0  0  0  0  0  0  0
  1  2  2  0  0  0  0
  2  3  1  0  0  0  0
  3  4  2  0  0  0  0
  4  5  1  0  0  0  0
  5 22  1  0  0  0  0
  5  6  2  0  0  0  0
  6  1  1  0  0  0  0
  7  8  2  0  0  0  0
  8  9  1  0  0  0  0
  9 10  2  0  0  0  0
 10  1  1  0  0  0  0
 10 11  1  0  0  0  0
 11 12  2  0  0  0  0
 12  7  1  0  0  0  0
 13 14  2  0  0  0  0
 13 15  2  0  0  0  0
 13  7  1  0  0  0  0
 16 13  1  0  0  0  0
 17 16  1  0  0  0  0
 18 19  1  0  0  0  0
 19 20  1  0  0  0  0
 19 21  1  0  0  0  0
 19 17  1  0  0  0  0
 22 23  1  0  0  0  0
 23 24  1  0  0  0  0
 24 25  2  0  0  0  0
 25 26  1  0  0  0  0
 26 27  2  0  0  0  0
 27 28  1  0  0  0  0
 27 29  1  0  0  0  0
 28 31  1  0  0  0  0
 29 32  1  0  0  0  0
 29 30  2  0  0  0  0
 30 24  1  0  0  0  0
 32 33  2  0  0  0  0
 32 34  1  0  0  0  0
 34 35  1  0  0  0  0
M  END
>  <Activity>
17.1

>  <minimizedAffinity>
-8.35817

>  <RFScoreVS_v2>
5.99303312166

$$$$
HIPS6546
 OpenBabel05252300073D

 35 37  0  0  0  0  0  0  0  0999 V2000
   67.9190   77.3083   89.0844 C   0  0  0  0  0  0  0  0  0  0  0  0
   67.2066   77.1275   87.8857 C   0  0  0  0  0  0  0  0  0  0  0  0
   66.8337   78.2287   87.1116 C   0  0  0  0  0  0  0  0  0  0  0  0
   67.1688   79.5207   87.5202 C   0  0  0  0  0  0  0  0  0  0  0  0
   67.8897   79.7218   88.7067 C   0  0  0  0  0  0  0  0  0  0  0  0
   68.2493   78.6140   89.4913 C   0  0  0  0  0  0  0  0  0  0  0  0
   69.0795   73.9227   91.4698 C   0  0  0  0  0  0  0  0  0  0  0  0
   68.0719   73.7924   90.5056 C   0  0  0  0  0  0  0  0  0  0  0  0
   67.6935   74.8921   89.7302 C   0  0  0  0  0  0  0  0  0  0  0  0
   68.3190   76.1394   89.9075 C   0  0  0  0  0  0  0  0  0  0  0  0
   69.3333   76.2607   90.8747 C   0  0  0  0  0  0  0  0  0  0  0  0
   69.7114   75.1588   91.6467 C   0  0  0  0  0  0  0  0  0  0  0  0
   69.5862   72.5370   92.4340 S   0  0  0  0  0  0  0  0  0  0  0  0
   71.0187   72.6905   92.8674 O   0  0  0  0  0  0  0  0  0  0  0  0
   69.4817   71.3007   91.5865 O   0  0  0  0  0  0  0  0  0  0  0  0
   68.5832   72.3579   93.7884 O   0  0  0  0  0  0  0  0  0  0  0  0
   68.6754   73.5215   94.5793 C   0  0  0  0  0  0  0  0  0  0  0  0
   66.2644   73.4875   93.8078 C   0  0  0  0  0  0  0  0  0  0  0  0
   67.2815   74.1721   94.7434 C   0  0  0  0  0  0  0  0  0  0  0  0
   67.3581   75.6759   94.4095 C   0  0  0  0  0  0  0  0  0  0  0  0
   66.8151   74.0040   96.2031 C   0  0  0  0  0  0  0  0  0  0  0  0
   68.2399   81.1160   89.1584 C   0  0  0  0  0  0  0  0  0  0  0  0
   68.2053   82.0334   88.0639 O   0  0  0  0  0  0  0  0  0  0  0  0
   68.5979   83.3811   88.1207 C   0  0  0  0  0  0  0  0  0  0  0  0
   69.0880   83.9738   86.9553 C   0  0  0  0  0  0  0  0  0  0  0  0
   69.4702   85.3151   86.9490 C   0  0  0  0  0  0  0  0  0  0  0  0
   69.3684   86.0917   88.1076 C   0  0  0  0  0  0  0  0  0  0  0  0
   69.6905   87.4472   88.0103 O   0  0  0  0  0  0  0  0  0  0  0  0
   68.9167   85.4961   89.3120 C   0  0  0  0  0  0  0  0  0  0  0  0
   68.5198   84.1464   89.2991 C   0  0  0  0  0  0  0  0  0  0  0  0
   69.9857   87.8012   87.1945 H   0  0  0  0  0  0  0  0  0  0  0  0
   68.8713   86.2272   90.5976 C   0  0  0  0  0  0  0  0  0  0  0  0
   68.9412   87.4850   90.6269 O   0  0  0  0  0  0  0  0  0  0  0  0
   68.8111   85.5191   91.7951 O   0  0  0  0  0  0  0  0  0  0  0  0
   68.7589   84.5836   91.7840 H   0  0  0  0  0  0  0  0  0  0  0  0
  1  2  2  0  0  0  0
  2  3  1  0  0  0  0
  3  4  2  0  0  0  0
  4  5  1  0  0  0  0
  5 22  1  0  0  0  0
  5  6  2  0  0  0  0
  6  1  1  0  0  0  0
  7  8  2  0  0  0  0
  8  9  1  0  0  0  0
  9 10  2  0  0  0  0
 10  1  1  0  0  0  0
 10 11  1  0  0  0  0
 11 12  2  0  0  0  0
 12  7  1  0  0  0  0
 13 14  2  0  0  0  0
 13 15  2  0  0  0  0
 13  7  1  0  0  0  0
 16 13  1  0  0  0  0
 17 16  1  0  0  0  0
 18 19  1  0  0  0  0
 19 20  1  0  0  0  0
 19 21  1  0  0  0  0
 19 17  1  0  0  0  0
 22 23  1  0  0  0  0
 23 24  1  0  0  0  0
 24 25  2  0  0  0  0
 25 26  1  0  0  0  0
 26 27  2  0  0  0  0
 27 28  1  0  0  0  0
 27 29  1  0  0  0  0
 28 31  1  0  0  0  0
 29 32  1  0  0  0  0
 29 30  2  0  0  0  0
 30 24  1  0  0  0  0
 32 33  2  0  0  0  0
 32 34  1  0  0  0  0
 34 35  1  0  0  0  0
M  END
>  <Activity>
17.1

>  <minimizedAffinity>
-8.31157

>  <RFScoreVS_v2>
5.99777637822

$$$$
HIPS6546
 OpenBabel05252300073D

 35 37  0  0  0  0  0  0  0  0999 V2000
   68.1325   77.2212   88.7995 C   0  0  0  0  0  0  0  0  0  0  0  0
   67.5604   77.1169   87.5193 C   0  0  0  0  0  0  0  0  0  0  0  0
   66.9581   75.9255   87.1087 C   0  0  0  0  0  0  0  0  0  0  0  0
   66.9156   74.8268   87.9687 C   0  0  0  0  0  0  0  0  0  0  0  0
   67.4699   74.9142   89.2545 C   0  0  0  0  0  0  0  0  0  0  0  0
   68.0891   76.1080   89.6588 C   0  0  0  0  0  0  0  0  0  0  0  0
   69.9800   80.8906   90.0729 C   0  0  0  0  0  0  0  0  0  0  0  0
   70.6775   79.6800   90.1716 C   0  0  0  0  0  0  0  0  0  0  0  0
   70.0779   78.4868   89.7587 C   0  0  0  0  0  0  0  0  0  0  0  0
   68.7707   78.4873   89.2393 C   0  0  0  0  0  0  0  0  0  0  0  0
   68.0788   79.7081   89.1391 C   0  0  0  0  0  0  0  0  0  0  0  0
   68.6818   80.9000   89.5503 C   0  0  0  0  0  0  0  0  0  0  0  0
   70.7350   82.4060   90.5630 S   0  0  0  0  0  0  0  0  0  0  0  0
   71.9379   82.1417   91.4271 O   0  0  0  0  0  0  0  0  0  0  0  0
   69.7426   83.1964   91.3681 O   0  0  0  0  0  0  0  0  0  0  0  0
   71.1819   83.3134   89.2030 O   0  0  0  0  0  0  0  0  0  0  0  0
   70.3571   84.4544   89.1267 C   0  0  0  0  0  0  0  0  0  0  0  0
   69.6922   86.1474   87.3657 C   0  0  0  0  0  0  0  0  0  0  0  0
   69.8348   84.6449   87.6831 C   0  0  0  0  0  0  0  0  0  0  0  0
   68.4666   83.9517   87.5208 C   0  0  0  0  0  0  0  0  0  0  0  0
   70.8380   84.0150   86.6965 C   0  0  0  0  0  0  0  0  0  0  0  0
   67.4392   73.7254   90.1798 C   0  0  0  0  0  0  0  0  0  0  0  0
   68.7428   73.1621   90.3343 O   0  0  0  0  0  0  0  0  0  0  0  0
   69.2232   72.5313   91.4940 C   0  0  0  0  0  0  0  0  0  0  0  0
   69.6602   71.2091   91.3916 C   0  0  0  0  0  0  0  0  0  0  0  0
   70.1683   70.5422   92.5061 C   0  0  0  0  0  0  0  0  0  0  0  0
   70.2516   71.1845   93.7456 C   0  0  0  0  0  0  0  0  0  0  0  0
   70.8460   70.4865   94.7993 O   0  0  0  0  0  0  0  0  0  0  0  0
   69.7705   72.5111   93.8803 C   0  0  0  0  0  0  0  0  0  0  0  0
   69.2754   73.1763   92.7437 C   0  0  0  0  0  0  0  0  0  0  0  0
   71.1508   69.6103   94.6678 H   0  0  0  0  0  0  0  0  0  0  0  0
   69.7386   73.2222   95.1774 C   0  0  0  0  0  0  0  0  0  0  0  0
   69.3768   72.6296   96.2289 O   0  0  0  0  0  0  0  0  0  0  0  0
   70.0534   74.5776   95.2318 O   0  0  0  0  0  0  0  0  0  0  0  0
   70.3234   75.0274   94.4555 H   0  0  0  0  0  0  0  0  0  0  0  0
  1  2  2  0  0  0  0
  2  3  1  0  0  0  0
  3  4  2  0  0  0  0
  4  5  1  0  0  0  0
  5 22  1  0  0  0  0
  5  6  2  0  0  0  0
  6  1  1  0  0  0  0
  7  8  2  0  0  0  0
  8  9  1  0  0  0  0
  9 10  2  0  0  0  0
 10  1  1  0  0  0  0
 10 11  1  0  0  0  0
 11 12  2  0  0  0  0
 12  7  1  0  0  0  0
 13 14  2  0  0  0  0
 13 15  2  0  0  0  0
 13  7  1  0  0  0  0
 16 13  1  0  0  0  0
 17 16  1  0  0  0  0
 18 19  1  0  0  0  0
 19 20  1  0  0  0  0
 19 21  1  0  0  0  0
 19 17  1  0  0  0  0
 22 23  1  0  0  0  0
 23 24  1  0  0  0  0
 24 25  2  0  0  0  0
 25 26  1  0  0  0  0
 26 27  2  0  0  0  0
 27 28  1  0  0  0  0
 27 29  1  0  0  0  0
 28 31  1  0  0  0  0
 29 32  1  0  0  0  0
 29 30  2  0  0  0  0
 30 24  1  0  0  0  0
 32 33  2  0  0  0  0
 32 34  1  0  0  0  0
 34 35  1  0  0  0  0
M  END
>  <Activity>
17.1

>  <minimizedAffinity>
-8.30500

>  <RFScoreVS_v2>
5.95993645955

$$$$
HIPS6710
 OpenBabel05252300073D

 34 37  0  0  0  0  0  0  0  0999 V2000
   69.8846   78.9460   90.1523 C   0  0  0  0  0  0  0  0  0  0  0  0
   68.5751   79.3961   90.0145 C   0  0  0  0  0  0  0  0  0  0  0  0
   67.5679   78.0524   90.0733 S   0  0  0  0  0  0  0  0  0  0  0  0
   68.8339   76.9558   90.2722 C   0  0  0  0  0  0  0  0  0  0  0  0
   70.0219   77.6002   90.2976 N   0  0  0  0  0  0  0  0  0  0  0  0
   68.6973   75.4913   90.4429 C   0  0  0  0  0  0  0  0  0  0  0  0
   69.3829   74.8363   91.4804 C   0  0  0  0  0  0  0  0  0  0  0  0
   69.2479   73.4578   91.6568 C   0  0  0  0  0  0  0  0  0  0  0  0
   68.4247   72.7188   90.8057 C   0  0  0  0  0  0  0  0  0  0  0  0
   67.7277   73.3482   89.7693 C   0  0  0  0  0  0  0  0  0  0  0  0
   67.8759   74.7371   89.5848 C   0  0  0  0  0  0  0  0  0  0  0  0
   66.9006   72.5597   88.9523 O   0  0  0  0  0  0  0  0  0  0  0  0
   66.4933   72.8919   87.6239 C   0  0  0  0  0  0  0  0  0  0  0  0
   66.9580   71.8476   86.6426 C   0  0  0  0  0  0  0  0  0  0  0  0
   66.7249   72.0066   85.2663 C   0  0  0  0  0  0  0  0  0  0  0  0
   67.1567   71.0321   84.3619 C   0  0  0  0  0  0  0  0  0  0  0  0
   67.8320   69.8985   84.8218 C   0  0  0  0  0  0  0  0  0  0  0  0
   68.0806   69.7386   86.1889 C   0  0  0  0  0  0  0  0  0  0  0  0
   68.9320   68.3176   86.7652 Cl  0  0  0  0  0  0  0  0  0  0  0  0
   67.6491   70.7122   87.0969 C   0  0  0  0  0  0  0  0  0  0  0  0
   71.0619   79.8707   90.2092 C   0  0  0  0  0  0  0  0  0  0  0  0
   70.6311   81.2139   90.4311 O   0  0  0  0  0  0  0  0  0  0  0  0
   70.7006   84.1753   88.1316 C   0  0  0  0  0  0  0  0  0  0  0  0
   70.2198   83.0664   88.8519 C   0  0  0  0  0  0  0  0  0  0  0  0
   71.0662   82.3382   89.7090 C   0  0  0  0  0  0  0  0  0  0  0  0
   72.3936   82.7445   89.8596 C   0  0  0  0  0  0  0  0  0  0  0  0
   72.8868   83.8354   89.1435 C   0  0  0  0  0  0  0  0  0  0  0  0
   72.0626   84.5410   88.2607 C   0  0  0  0  0  0  0  0  0  0  0  0
   72.6398   85.5676   87.5106 O   0  0  0  0  0  0  0  0  0  0  0  0
   73.5453   85.7795   87.6253 H   0  0  0  0  0  0  0  0  0  0  0  0
   68.6314   85.2798   87.7561 O   0  0  0  0  0  0  0  0  0  0  0  0
   69.7524   84.9382   87.2905 C   0  0  0  0  0  0  0  0  0  0  0  0
   70.1075   85.3364   86.0050 O   0  0  0  0  0  0  0  0  0  0  0  0
   70.9382   85.0876   85.6502 H   0  0  0  0  0  0  0  0  0  0  0  0
  1  2  2  0  0  0  0
  2  3  1  0  0  0  0
  3  4  1  0  0  0  0
  4  6  1  0  0  0  0
  4  5  2  0  0  0  0
  5  1  2  0  0  0  0
  6  7  2  0  0  0  0
  7  8  1  0  0  0  0
  8  9  2  0  0  0  0
  9 10  1  0  0  0  0
 10 12  1  0  0  0  0
 10 11  2  0  0  0  0
 11  6  1  0  0  0  0
 12 13  1  0  0  0  0
 13 14  1  0  0  0  0
 14 15  2  0  0  0  0
 15 16  1  0  0  0  0
 16 17  2  0  0  0  0
 17 18  1  0  0  0  0
 18 19  1  0  0  0  0
 18 20  2  0  0  0  0
 20 14  1  0  0  0  0
 21  1  1  0  0  0  0
 22 21  1  0  0  0  0
 23 24  2  0  0  0  0
 24 25  1  0  0  0  0
 25 22  1  0  0  0  0
 25 26  2  0  0  0  0
 26 27  1  0  0  0  0
 27 28  2  0  0  0  0
 28 29  1  0  0  0  0
 28 23  1  0  0  0  0
 29 30  1  0  0  0  0
 31 32  2  0  0  0  0
 32 33  1  0  0  0  0
 32 23  1  0  0  0  0
 33 34  1  0  0  0  0
M  END
>  <Activity>
17.9

>  <minimizedAffinity>
-9.29562

>  <RFScoreVS_v2>
5.98415441437

$$$$
HIPS6710
 OpenBabel05252300073D

 34 37  0  0  0  0  0  0  0  0999 V2000
   68.8086   77.9158   90.6942 C   0  0  0  0  0  0  0  0  0  0  0  0
   69.9777   77.1613   90.7189 C   0  0  0  0  0  0  0  0  0  0  0  0
   71.2600   78.2027   90.4113 S   0  0  0  0  0  0  0  0  0  0  0  0
   70.2799   79.5670   90.2609 C   0  0  0  0  0  0  0  0  0  0  0  0
   68.9807   79.2422   90.4447 N   0  0  0  0  0  0  0  0  0  0  0  0
   70.7463   80.9494   90.0074 C   0  0  0  0  0  0  0  0  0  0  0  0
   72.0819   81.3008   90.2682 C   0  0  0  0  0  0  0  0  0  0  0  0
   72.5331   82.5983   90.0183 C   0  0  0  0  0  0  0  0  0  0  0  0
   71.6606   83.5571   89.5010 C   0  0  0  0  0  0  0  0  0  0  0  0
   70.3283   83.2307   89.2279 C   0  0  0  0  0  0  0  0  0  0  0  0
   69.8718   81.9245   89.4936 C   0  0  0  0  0  0  0  0  0  0  0  0
   69.4975   84.2292   88.6930 O   0  0  0  0  0  0  0  0  0  0  0  0
   69.8543   85.1221   87.6364 C   0  0  0  0  0  0  0  0  0  0  0  0
   70.4287   86.4018   88.1855 C   0  0  0  0  0  0  0  0  0  0  0  0
   69.6062   87.3265   88.8506 C   0  0  0  0  0  0  0  0  0  0  0  0
   70.1457   88.5132   89.3552 C   0  0  0  0  0  0  0  0  0  0  0  0
   71.5094   88.7813   89.2095 C   0  0  0  0  0  0  0  0  0  0  0  0
   72.3383   87.8601   88.5610 C   0  0  0  0  0  0  0  0  0  0  0  0
   74.0507   88.1951   88.3820 Cl  0  0  0  0  0  0  0  0  0  0  0  0
   71.8010   86.6713   88.0542 C   0  0  0  0  0  0  0  0  0  0  0  0
   67.4590   77.3361   90.9889 C   0  0  0  0  0  0  0  0  0  0  0  0
   67.1459   77.4798   92.3747 O   0  0  0  0  0  0  0  0  0  0  0  0
   68.1101   74.4934   94.4274 C   0  0  0  0  0  0  0  0  0  0  0  0
   68.1868   75.5373   93.4871 C   0  0  0  0  0  0  0  0  0  0  0  0
   67.1175   76.4363   93.3154 C   0  0  0  0  0  0  0  0  0  0  0  0
   65.9786   76.2980   94.1114 C   0  0  0  0  0  0  0  0  0  0  0  0
   65.8843   75.2613   95.0401 C   0  0  0  0  0  0  0  0  0  0  0  0
   66.9267   74.3407   95.1901 C   0  0  0  0  0  0  0  0  0  0  0  0
   66.7340   73.2773   96.0744 O   0  0  0  0  0  0  0  0  0  0  0  0
   65.9361   73.2116   96.5613 H   0  0  0  0  0  0  0  0  0  0  0  0
   70.1987   73.5977   93.7363 O   0  0  0  0  0  0  0  0  0  0  0  0
   69.2861   73.6139   94.6063 C   0  0  0  0  0  0  0  0  0  0  0  0
   69.4266   72.8439   95.7572 O   0  0  0  0  0  0  0  0  0  0  0  0
   68.7540   72.8493   96.4095 H   0  0  0  0  0  0  0  0  0  0  0  0
  1  2  2  0  0  0  0
  2  3  1  0  0  0  0
  3  4  1  0  0  0  0
  4  6  1  0  0  0  0
  4  5  2  0  0  0  0
  5  1  2  0  0  0  0
  6  7  2  0  0  0  0
  7  8  1  0  0  0  0
  8  9  2  0  0  0  0
  9 10  1  0  0  0  0
 10 12  1  0  0  0  0
 10 11  2  0  0  0  0
 11  6  1  0  0  0  0
 12 13  1  0  0  0  0
 13 14  1  0  0  0  0
 14 15  2  0  0  0  0
 15 16  1  0  0  0  0
 16 17  2  0  0  0  0
 17 18  1  0  0  0  0
 18 19  1  0  0  0  0
 18 20  2  0  0  0  0
 20 14  1  0  0  0  0
 21  1  1  0  0  0  0
 22 21  1  0  0  0  0
 23 24  2  0  0  0  0
 24 25  1  0  0  0  0
 25 22  1  0  0  0  0
 25 26  2  0  0  0  0
 26 27  1  0  0  0  0
 27 28  2  0  0  0  0
 28 29  1  0  0  0  0
 28 23  1  0  0  0  0
 29 30  1  0  0  0  0
 31 32  2  0  0  0  0
 32 33  1  0  0  0  0
 32 23  1  0  0  0  0
 33 34  1  0  0  0  0
M  END
>  <Activity>
17.9

>  <minimizedAffinity>
-8.94599

>  <RFScoreVS_v2>
5.96676060071

$$$$
HIPS6710
 OpenBabel05252300073D

 34 37  0  0  0  0  0  0  0  0999 V2000
   67.7788   74.2200   92.8538 C   0  0  0  0  0  0  0  0  0  0  0  0
   66.7111   75.0336   93.2207 C   0  0  0  0  0  0  0  0  0  0  0  0
   67.0926   76.6060   92.7675 S   0  0  0  0  0  0  0  0  0  0  0  0
   68.5949   76.1898   92.1239 C   0  0  0  0  0  0  0  0  0  0  0  0
   68.8136   74.8615   92.2464 N   0  0  0  0  0  0  0  0  0  0  0  0
   69.5474   77.1155   91.4692 C   0  0  0  0  0  0  0  0  0  0  0  0
   70.9068   76.7728   91.3697 C   0  0  0  0  0  0  0  0  0  0  0  0
   71.8085   77.6337   90.7411 C   0  0  0  0  0  0  0  0  0  0  0  0
   71.3649   78.8416   90.2004 C   0  0  0  0  0  0  0  0  0  0  0  0
   70.0162   79.2028   90.2818 C   0  0  0  0  0  0  0  0  0  0  0  0
   69.1105   78.3388   90.9285 C   0  0  0  0  0  0  0  0  0  0  0  0
   69.6207   80.4220   89.7068 O   0  0  0  0  0  0  0  0  0  0  0  0
   69.7319   81.7032   90.3291 C   0  0  0  0  0  0  0  0  0  0  0  0
   70.6823   82.5897   89.5674 C   0  0  0  0  0  0  0  0  0  0  0  0
   72.0196   82.7221   89.9774 C   0  0  0  0  0  0  0  0  0  0  0  0
   72.8951   83.5487   89.2671 C   0  0  0  0  0  0  0  0  0  0  0  0
   72.4467   84.2401   88.1387 C   0  0  0  0  0  0  0  0  0  0  0  0
   71.1207   84.1034   87.7152 C   0  0  0  0  0  0  0  0  0  0  0  0
   70.5594   84.9682   86.2962 Cl  0  0  0  0  0  0  0  0  0  0  0  0
   70.2415   83.2771   88.4245 C   0  0  0  0  0  0  0  0  0  0  0  0
   67.7731   72.7339   93.0437 C   0  0  0  0  0  0  0  0  0  0  0  0
   68.9369   72.3177   93.7587 O   0  0  0  0  0  0  0  0  0  0  0  0
   72.2242   70.5849   93.2557 C   0  0  0  0  0  0  0  0  0  0  0  0
   71.2400   71.4296   93.8010 C   0  0  0  0  0  0  0  0  0  0  0  0
   69.9427   71.4745   93.2566 C   0  0  0  0  0  0  0  0  0  0  0  0
   69.6299   70.6471   92.1762 C   0  0  0  0  0  0  0  0  0  0  0  0
   70.5987   69.8125   91.6185 C   0  0  0  0  0  0  0  0  0  0  0  0
   71.9007   69.7900   92.1292 C   0  0  0  0  0  0  0  0  0  0  0  0
   72.8443   68.9979   91.4719 O   0  0  0  0  0  0  0  0  0  0  0  0
   72.5905   68.4858   90.7294 H   0  0  0  0  0  0  0  0  0  0  0  0
   74.4705   71.3106   93.5200 O   0  0  0  0  0  0  0  0  0  0  0  0
   73.5530   70.5356   93.9040 C   0  0  0  0  0  0  0  0  0  0  0  0
   73.7865   69.6808   94.9773 O   0  0  0  0  0  0  0  0  0  0  0  0
   73.1111   69.1011   95.2701 H   0  0  0  0  0  0  0  0  0  0  0  0
  1  2  2  0  0  0  0
  2  3  1  0  0  0  0
  3  4  1  0  0  0  0
  4  6  1  0  0  0  0
  4  5  2  0  0  0  0
  5  1  2  0  0  0  0
  6  7  2  0  0  0  0
  7  8  1  0  0  0  0
  8  9  2  0  0  0  0
  9 10  1  0  0  0  0
 10 12  1  0  0  0  0
 10 11  2  0  0  0  0
 11  6  1  0  0  0  0
 12 13  1  0  0  0  0
 13 14  1  0  0  0  0
 14 15  2  0  0  0  0
 15 16  1  0  0  0  0
 16 17  2  0  0  0  0
 17 18  1  0  0  0  0
 18 19  1  0  0  0  0
 18 20  2  0  0  0  0
 20 14  1  0  0  0  0
 21  1  1  0  0  0  0
 22 21  1  0  0  0  0
 23 24  2  0  0  0  0
 24 25  1  0  0  0  0
 25 22  1  0  0  0  0
 25 26  2  0  0  0  0
 26 27  1  0  0  0  0
 27 28  2  0  0  0  0
 28 29  1  0  0  0  0
 28 23  1  0  0  0  0
 29 30  1  0  0  0  0
 31 32  2  0  0  0  0
 32 33  1  0  0  0  0
 32 23  1  0  0  0  0
 33 34  1  0  0  0  0
M  END
>  <Activity>
17.9

>  <minimizedAffinity>
-8.90421

>  <RFScoreVS_v2>
5.96947678667

$$$$
HIPS6710
 OpenBabel05252300073D

 34 37  0  0  0  0  0  0  0  0999 V2000
   69.1069   78.9081   89.6857 C   0  0  0  0  0  0  0  0  0  0  0  0
   67.9139   79.4528   89.2203 C   0  0  0  0  0  0  0  0  0  0  0  0
   66.8720   78.1784   88.8829 S   0  0  0  0  0  0  0  0  0  0  0  0
   67.9762   76.9891   89.3420 C   0  0  0  0  0  0  0  0  0  0  0  0
   69.1352   77.5496   89.7543 N   0  0  0  0  0  0  0  0  0  0  0  0
   67.7298   75.5290   89.3478 C   0  0  0  0  0  0  0  0  0  0  0  0
   66.8566   74.9585   88.4056 C   0  0  0  0  0  0  0  0  0  0  0  0
   66.6301   73.5809   88.3953 C   0  0  0  0  0  0  0  0  0  0  0  0
   67.2750   72.7569   89.3191 C   0  0  0  0  0  0  0  0  0  0  0  0
   68.1526   73.2996   90.2631 C   0  0  0  0  0  0  0  0  0  0  0  0
   68.3692   74.6917   90.2804 C   0  0  0  0  0  0  0  0  0  0  0  0
   68.7872   72.4232   91.1590 O   0  0  0  0  0  0  0  0  0  0  0  0
   68.2362   71.9628   92.3940 C   0  0  0  0  0  0  0  0  0  0  0  0
   67.7988   73.1211   93.2520 C   0  0  0  0  0  0  0  0  0  0  0  0
   66.4414   73.3073   93.5630 C   0  0  0  0  0  0  0  0  0  0  0  0
   66.0426   74.3860   94.3576 C   0  0  0  0  0  0  0  0  0  0  0  0
   66.9944   75.2797   94.8556 C   0  0  0  0  0  0  0  0  0  0  0  0
   68.3494   75.0943   94.5625 C   0  0  0  0  0  0  0  0  0  0  0  0
   69.5440   76.2140   95.1914 Cl  0  0  0  0  0  0  0  0  0  0  0  0
   68.7517   74.0155   93.7668 C   0  0  0  0  0  0  0  0  0  0  0  0
   70.2593   79.7465   90.1478 C   0  0  0  0  0  0  0  0  0  0  0  0
   69.8632   81.1124   90.2754 O   0  0  0  0  0  0  0  0  0  0  0  0
   70.3707   83.9511   87.8783 C   0  0  0  0  0  0  0  0  0  0  0  0
   69.7558   82.8856   88.5612 C   0  0  0  0  0  0  0  0  0  0  0  0
   70.4336   82.1936   89.5824 C   0  0  0  0  0  0  0  0  0  0  0  0
   71.7247   82.5934   89.9333 C   0  0  0  0  0  0  0  0  0  0  0  0
   72.3508   83.6410   89.2575 C   0  0  0  0  0  0  0  0  0  0  0  0
   71.6987   84.3089   88.2158 C   0  0  0  0  0  0  0  0  0  0  0  0
   72.4122   85.2896   87.5237 O   0  0  0  0  0  0  0  0  0  0  0  0
   73.2896   85.4978   87.7780 H   0  0  0  0  0  0  0  0  0  0  0  0
   68.3311   84.6951   86.9144 O   0  0  0  0  0  0  0  0  0  0  0  0
   69.5905   84.6797   86.8541 C   0  0  0  0  0  0  0  0  0  0  0  0
   70.2346   85.4009   85.8530 O   0  0  0  0  0  0  0  0  0  0  0  0
   71.1701   85.3957   85.7998 H   0  0  0  0  0  0  0  0  0  0  0  0
  1  2  2  0  0  0  0
  2  3  1  0  0  0  0
  3  4  1  0  0  0  0
  4  6  1  0  0  0  0
  4  5  2  0  0  0  0
  5  1  2  0  0  0  0
  6  7  2  0  0  0  0
  7  8  1  0  0  0  0
  8  9  2  0  0  0  0
  9 10  1  0  0  0  0
 10 12  1  0  0  0  0
 10 11  2  0  0  0  0
 11  6  1  0  0  0  0
 12 13  1  0  0  0  0
 13 14  1  0  0  0  0
 14 15  2  0  0  0  0
 15 16  1  0  0  0  0
 16 17  2  0  0  0  0
 17 18  1  0  0  0  0
 18 19  1  0  0  0  0
 18 20  2  0  0  0  0
 20 14  1  0  0  0  0
 21  1  1  0  0  0  0
 22 21  1  0  0  0  0
 23 24  2  0  0  0  0
 24 25  1  0  0  0  0
 25 22  1  0  0  0  0
 25 26  2  0  0  0  0
 26 27  1  0  0  0  0
 27 28  2  0  0  0  0
 28 29  1  0  0  0  0
 28 23  1  0  0  0  0
 29 30  1  0  0  0  0
 31 32  2  0  0  0  0
 32 33  1  0  0  0  0
 32 23  1  0  0  0  0
 33 34  1  0  0  0  0
M  END
>  <Activity>
17.9

>  <minimizedAffinity>
-8.89585

>  <RFScoreVS_v2>
5.97421970374

$$$$
HIPS6710
 OpenBabel05252300073D

 34 37  0  0  0  0  0  0  0  0999 V2000
   68.4597   79.3654   89.6832 C   0  0  0  0  0  0  0  0  0  0  0  0
   67.3267   79.4587   88.8807 C   0  0  0  0  0  0  0  0  0  0  0  0
   66.7379   77.9017   88.6515 S   0  0  0  0  0  0  0  0  0  0  0  0
   67.9432   77.1741   89.5802 C   0  0  0  0  0  0  0  0  0  0  0  0
   68.7937   78.1042   90.0692 N   0  0  0  0  0  0  0  0  0  0  0  0
   68.0592   75.7279   89.8763 C   0  0  0  0  0  0  0  0  0  0  0  0
   68.8554   75.2904   90.9487 C   0  0  0  0  0  0  0  0  0  0  0  0
   68.9585   73.9295   91.2433 C   0  0  0  0  0  0  0  0  0  0  0  0
   68.2655   72.9912   90.4767 C   0  0  0  0  0  0  0  0  0  0  0  0
   67.4625   73.4018   89.4078 C   0  0  0  0  0  0  0  0  0  0  0  0
   67.3707   74.7745   89.1040 C   0  0  0  0  0  0  0  0  0  0  0  0
   66.7744   72.4172   88.6794 O   0  0  0  0  0  0  0  0  0  0  0  0
   66.3465   72.5419   87.3221 C   0  0  0  0  0  0  0  0  0  0  0  0
   66.9566   71.4635   86.4653 C   0  0  0  0  0  0  0  0  0  0  0  0
   66.6590   71.3864   85.0944 C   0  0  0  0  0  0  0  0  0  0  0  0
   67.2267   70.3812   84.3061 C   0  0  0  0  0  0  0  0  0  0  0  0
   68.1021   69.4532   84.8764 C   0  0  0  0  0  0  0  0  0  0  0  0
   68.4149   69.5308   86.2374 C   0  0  0  0  0  0  0  0  0  0  0  0
   69.5170   68.3682   86.9518 Cl  0  0  0  0  0  0  0  0  0  0  0  0
   67.8476   70.5356   87.0294 C   0  0  0  0  0  0  0  0  0  0  0  0
   69.2251   80.5642   90.1540 C   0  0  0  0  0  0  0  0  0  0  0  0
   68.5713   81.7659   89.7450 O   0  0  0  0  0  0  0  0  0  0  0  0
   70.8261   84.2202   88.0262 C   0  0  0  0  0  0  0  0  0  0  0  0
   70.3598   83.2746   88.9579 C   0  0  0  0  0  0  0  0  0  0  0  0
   69.0822   82.6987   88.8266 C   0  0  0  0  0  0  0  0  0  0  0  0
   68.2831   83.0580   87.7393 C   0  0  0  0  0  0  0  0  0  0  0  0
   68.7280   84.0023   86.8139 C   0  0  0  0  0  0  0  0  0  0  0  0
   69.9807   84.6077   86.9582 C   0  0  0  0  0  0  0  0  0  0  0  0
   70.3300   85.6067   86.0472 O   0  0  0  0  0  0  0  0  0  0  0  0
   69.7426   85.8343   85.3535 H   0  0  0  0  0  0  0  0  0  0  0  0
   73.0784   84.0580   88.7632 O   0  0  0  0  0  0  0  0  0  0  0  0
   72.1989   84.7492   88.1811 C   0  0  0  0  0  0  0  0  0  0  0  0
   72.5489   85.9819   87.6379 O   0  0  0  0  0  0  0  0  0  0  0  0
   71.9025   86.5029   87.2034 H   0  0  0  0  0  0  0  0  0  0  0  0
  1  2  2  0  0  0  0
  2  3  1  0  0  0  0
  3  4  1  0  0  0  0
  4  6  1  0  0  0  0
  4  5  2  0  0  0  0
  5  1  2  0  0  0  0
  6  7  2  0  0  0  0
  7  8  1  0  0  0  0
  8  9  2  0  0  0  0
  9 10  1  0  0  0  0
 10 12  1  0  0  0  0
 10 11  2  0  0  0  0
 11  6  1  0  0  0  0
 12 13  1  0  0  0  0
 13 14  1  0  0  0  0
 14 15  2  0  0  0  0
 15 16  1  0  0  0  0
 16 17  2  0  0  0  0
 17 18  1  0  0  0  0
 18 19  1  0  0  0  0
 18 20  2  0  0  0  0
 20 14  1  0  0  0  0
 21  1  1  0  0  0  0
 22 21  1  0  0  0  0
 23 24  2  0  0  0  0
 24 25  1  0  0  0  0
 25 22  1  0  0  0  0
 25 26  2  0  0  0  0
 26 27  1  0  0  0  0
 27 28  2  0  0  0  0
 28 29  1  0  0  0  0
 28 23  1  0  0  0  0
 29 30  1  0  0  0  0
 31 32  2  0  0  0  0
 32 33  1  0  0  0  0
 32 23  1  0  0  0  0
 33 34  1  0  0  0  0
M  END
>  <Activity>
17.9

>  <minimizedAffinity>
-8.88773

>  <RFScoreVS_v2>
5.98690259088

$$$$
HIPS6710
 OpenBabel05252300073D

 34 37  0  0  0  0  0  0  0  0999 V2000
   69.9058   78.8628   90.6067 C   0  0  0  0  0  0  0  0  0  0  0  0
   68.5852   79.2920   90.5156 C   0  0  0  0  0  0  0  0  0  0  0  0
   68.6062   80.8929   90.0054 S   0  0  0  0  0  0  0  0  0  0  0  0
   70.2886   80.9749   89.9200 C   0  0  0  0  0  0  0  0  0  0  0  0
   70.8412   79.7930   90.2740 N   0  0  0  0  0  0  0  0  0  0  0  0
   71.0812   82.1460   89.4807 C   0  0  0  0  0  0  0  0  0  0  0  0
   72.3746   82.3522   89.9906 C   0  0  0  0  0  0  0  0  0  0  0  0
   73.1338   83.4461   89.5705 C   0  0  0  0  0  0  0  0  0  0  0  0
   72.6152   84.3422   88.6345 C   0  0  0  0  0  0  0  0  0  0  0  0
   71.3330   84.1558   88.1081 C   0  0  0  0  0  0  0  0  0  0  0  0
   70.5634   83.0588   88.5436 C   0  0  0  0  0  0  0  0  0  0  0  0
   70.8662   85.0784   87.1572 O   0  0  0  0  0  0  0  0  0  0  0  0
   69.6337   85.7962   87.2384 C   0  0  0  0  0  0  0  0  0  0  0  0
   69.5799   86.6311   88.4911 C   0  0  0  0  0  0  0  0  0  0  0  0
   70.2431   87.8681   88.5542 C   0  0  0  0  0  0  0  0  0  0  0  0
   70.1910   88.6363   89.7209 C   0  0  0  0  0  0  0  0  0  0  0  0
   69.4698   88.1817   90.8281 C   0  0  0  0  0  0  0  0  0  0  0  0
   68.7951   86.9580   90.7695 C   0  0  0  0  0  0  0  0  0  0  0  0
   67.8865   86.3900   92.1581 Cl  0  0  0  0  0  0  0  0  0  0  0  0
   68.8458   86.1864   89.6030 C   0  0  0  0  0  0  0  0  0  0  0  0
   70.2826   77.4603   90.9748 C   0  0  0  0  0  0  0  0  0  0  0  0
   69.2986   76.5392   90.5037 O   0  0  0  0  0  0  0  0  0  0  0  0
   69.3157   73.5401   92.7548 C   0  0  0  0  0  0  0  0  0  0  0  0
   69.5428   74.8464   92.2840 C   0  0  0  0  0  0  0  0  0  0  0  0
   69.0765   75.2508   91.0190 C   0  0  0  0  0  0  0  0  0  0  0  0
   68.3576   74.3439   90.2376 C   0  0  0  0  0  0  0  0  0  0  0  0
   68.1343   73.0422   90.6870 C   0  0  0  0  0  0  0  0  0  0  0  0
   68.6272   72.6207   91.9263 C   0  0  0  0  0  0  0  0  0  0  0  0
   68.4441   71.2820   92.2788 O   0  0  0  0  0  0  0  0  0  0  0  0
   67.9825   70.7048   91.7028 H   0  0  0  0  0  0  0  0  0  0  0  0
   69.9941   71.9819   94.4144 O   0  0  0  0  0  0  0  0  0  0  0  0
   69.7776   73.1876   94.1152 C   0  0  0  0  0  0  0  0  0  0  0  0
   70.0338   74.1808   95.0560 O   0  0  0  0  0  0  0  0  0  0  0  0
   69.8762   75.0796   94.8432 H   0  0  0  0  0  0  0  0  0  0  0  0
  1  2  2  0  0  0  0
  2  3  1  0  0  0  0
  3  4  1  0  0  0  0
  4  6  1  0  0  0  0
  4  5  2  0  0  0  0
  5  1  2  0  0  0  0
  6  7  2  0  0  0  0
  7  8  1  0  0  0  0
  8  9  2  0  0  0  0
  9 10  1  0  0  0  0
 10 12  1  0  0  0  0
 10 11  2  0  0  0  0
 11  6  1  0  0  0  0
 12 13  1  0  0  0  0
 13 14  1  0  0  0  0
 14 15  2  0  0  0  0
 15 16  1  0  0  0  0
 16 17  2  0  0  0  0
 17 18  1  0  0  0  0
 18 19  1  0  0  0  0
 18 20  2  0  0  0  0
 20 14  1  0  0  0  0
 21  1  1  0  0  0  0
 22 21  1  0  0  0  0
 23 24  2  0  0  0  0
 24 25  1  0  0  0  0
 25 22  1  0  0  0  0
 25 26  2  0  0  0  0
 26 27  1  0  0  0  0
 27 28  2  0  0  0  0
 28 29  1  0  0  0  0
 28 23  1  0  0  0  0
 29 30  1  0  0  0  0
 31 32  2  0  0  0  0
 32 33  1  0  0  0  0
 32 23  1  0  0  0  0
 33 34  1  0  0  0  0
M  END
>  <Activity>
17.9

>  <minimizedAffinity>
-8.83828

>  <RFScoreVS_v2>
5.98027974004

$$$$
HIPS6710
 OpenBabel05252300073D

 34 37  0  0  0  0  0  0  0  0999 V2000
   67.0713   79.3916   88.0365 C   0  0  0  0  0  0  0  0  0  0  0  0
   66.5781   78.1630   87.6076 C   0  0  0  0  0  0  0  0  0  0  0  0
   67.5148   76.9638   88.3204 S   0  0  0  0  0  0  0  0  0  0  0  0
   68.5058   78.0520   89.1440 C   0  0  0  0  0  0  0  0  0  0  0  0
   68.1319   79.3252   88.8861 N   0  0  0  0  0  0  0  0  0  0  0  0
   69.6111   77.6977   90.0635 C   0  0  0  0  0  0  0  0  0  0  0  0
   70.8483   78.3570   89.9644 C   0  0  0  0  0  0  0  0  0  0  0  0
   71.8907   78.0388   90.8370 C   0  0  0  0  0  0  0  0  0  0  0  0
   71.7099   77.0651   91.8205 C   0  0  0  0  0  0  0  0  0  0  0  0
   70.4865   76.3987   91.9431 C   0  0  0  0  0  0  0  0  0  0  0  0
   69.4404   76.7118   91.0528 C   0  0  0  0  0  0  0  0  0  0  0  0
   70.3534   75.4392   92.9605 O   0  0  0  0  0  0  0  0  0  0  0  0
   69.4550   74.3287   92.9361 C   0  0  0  0  0  0  0  0  0  0  0  0
   68.2709   74.5759   93.8340 C   0  0  0  0  0  0  0  0  0  0  0  0
   67.9934   73.7099   94.9050 C   0  0  0  0  0  0  0  0  0  0  0  0
   66.8913   73.9440   95.7324 C   0  0  0  0  0  0  0  0  0  0  0  0
   66.0650   75.0476   95.5042 C   0  0  0  0  0  0  0  0  0  0  0  0
   66.3417   75.9227   94.4488 C   0  0  0  0  0  0  0  0  0  0  0  0
   65.3066   77.3101   94.1654 Cl  0  0  0  0  0  0  0  0  0  0  0  0
   67.4440   75.6906   93.6183 C   0  0  0  0  0  0  0  0  0  0  0  0
   66.4458   80.6983   87.6546 C   0  0  0  0  0  0  0  0  0  0  0  0
   67.0215   81.7661   88.4077 O   0  0  0  0  0  0  0  0  0  0  0  0
   70.1374   83.7827   87.8717 C   0  0  0  0  0  0  0  0  0  0  0  0
   69.2593   82.8083   88.3811 C   0  0  0  0  0  0  0  0  0  0  0  0
   67.9356   82.7115   87.9123 C   0  0  0  0  0  0  0  0  0  0  0  0
   67.5041   83.5822   86.9096 C   0  0  0  0  0  0  0  0  0  0  0  0
   68.3604   84.5602   86.4030 C   0  0  0  0  0  0  0  0  0  0  0  0
   69.6652   84.6880   86.8904 C   0  0  0  0  0  0  0  0  0  0  0  0
   70.4420   85.7412   86.4032 O   0  0  0  0  0  0  0  0  0  0  0  0
   70.0931   86.3191   85.7534 H   0  0  0  0  0  0  0  0  0  0  0  0
   72.4580   84.2156   87.6080 O   0  0  0  0  0  0  0  0  0  0  0  0
   71.5340   83.8011   88.3592 C   0  0  0  0  0  0  0  0  0  0  0  0
   71.8342   83.4199   89.6637 O   0  0  0  0  0  0  0  0  0  0  0  0
   71.1545   83.1106   90.2296 H   0  0  0  0  0  0  0  0  0  0  0  0
  1  2  2  0  0  0  0
  2  3  1  0  0  0  0
  3  4  1  0  0  0  0
  4  6  1  0  0  0  0
  4  5  2  0  0  0  0
  5  1  2  0  0  0  0
  6  7  2  0  0  0  0
  7  8  1  0  0  0  0
  8  9  2  0  0  0  0
  9 10  1  0  0  0  0
 10 12  1  0  0  0  0
 10 11  2  0  0  0  0
 11  6  1  0  0  0  0
 12 13  1  0  0  0  0
 13 14  1  0  0  0  0
 14 15  2  0  0  0  0
 15 16  1  0  0  0  0
 16 17  2  0  0  0  0
 17 18  1  0  0  0  0
 18 19  1  0  0  0  0
 18 20  2  0  0  0  0
 20 14  1  0  0  0  0
 21  1  1  0  0  0  0
 22 21  1  0  0  0  0
 23 24  2  0  0  0  0
 24 25  1  0  0  0  0
 25 22  1  0  0  0  0
 25 26  2  0  0  0  0
 26 27  1  0  0  0  0
 27 28  2  0  0  0  0
 28 29  1  0  0  0  0
 28 23  1  0  0  0  0
 29 30  1  0  0  0  0
 31 32  2  0  0  0  0
 32 33  1  0  0  0  0
 32 23  1  0  0  0  0
 33 34  1  0  0  0  0
M  END
>  <Activity>
17.9

>  <minimizedAffinity>
-8.75873

>  <RFScoreVS_v2>
5.97047641258

$$$$
HIPS6710
 OpenBabel05252300073D

 34 37  0  0  0  0  0  0  0  0999 V2000
   70.2277   78.7787   90.5709 C   0  0  0  0  0  0  0  0  0  0  0  0
   68.8818   79.1182   90.4710 C   0  0  0  0  0  0  0  0  0  0  0  0
   68.7986   80.7170   89.9609 S   0  0  0  0  0  0  0  0  0  0  0  0
   70.4722   80.9121   89.8868 C   0  0  0  0  0  0  0  0  0  0  0  0
   71.1006   79.7699   90.2445 N   0  0  0  0  0  0  0  0  0  0  0  0
   71.1871   82.1341   89.4529 C   0  0  0  0  0  0  0  0  0  0  0  0
   72.4597   82.4274   89.9726 C   0  0  0  0  0  0  0  0  0  0  0  0
   73.1464   83.5700   89.5576 C   0  0  0  0  0  0  0  0  0  0  0  0
   72.5756   84.4288   88.6170 C   0  0  0  0  0  0  0  0  0  0  0  0
   71.3130   84.1561   88.0809 C   0  0  0  0  0  0  0  0  0  0  0  0
   70.6160   83.0097   88.5112 C   0  0  0  0  0  0  0  0  0  0  0  0
   70.7922   85.0450   87.1259 O   0  0  0  0  0  0  0  0  0  0  0  0
   69.5369   85.7199   87.2236 C   0  0  0  0  0  0  0  0  0  0  0  0
   69.4518   86.5136   88.5011 C   0  0  0  0  0  0  0  0  0  0  0  0
   70.0600   87.7763   88.5995 C   0  0  0  0  0  0  0  0  0  0  0  0
   69.9792   88.5060   89.7891 C   0  0  0  0  0  0  0  0  0  0  0  0
   69.2837   87.9868   90.8843 C   0  0  0  0  0  0  0  0  0  0  0  0
   68.6635   86.7367   90.7908 C   0  0  0  0  0  0  0  0  0  0  0  0
   67.7871   86.0875   92.1645 Cl  0  0  0  0  0  0  0  0  0  0  0  0
   68.7431   86.0035   89.6013 C   0  0  0  0  0  0  0  0  0  0  0  0
   70.6956   77.4046   90.9415 C   0  0  0  0  0  0  0  0  0  0  0  0
   69.5810   76.5538   91.2113 O   0  0  0  0  0  0  0  0  0  0  0  0
   69.5225   73.3920   93.2268 C   0  0  0  0  0  0  0  0  0  0  0  0
   69.6447   74.2625   92.1281 C   0  0  0  0  0  0  0  0  0  0  0  0
   69.4861   75.6523   92.2851 C   0  0  0  0  0  0  0  0  0  0  0  0
   69.2292   76.1678   93.5572 C   0  0  0  0  0  0  0  0  0  0  0  0
   69.0947   75.3157   94.6535 C   0  0  0  0  0  0  0  0  0  0  0  0
   69.2128   73.9305   94.4995 C   0  0  0  0  0  0  0  0  0  0  0  0
   68.9819   73.1288   95.6192 O   0  0  0  0  0  0  0  0  0  0  0  0
   68.7797   73.5237   96.4445 H   0  0  0  0  0  0  0  0  0  0  0  0
   70.1273   71.2206   93.9760 O   0  0  0  0  0  0  0  0  0  0  0  0
   69.7562   71.9468   93.0143 C   0  0  0  0  0  0  0  0  0  0  0  0
   69.5139   71.3647   91.7735 O   0  0  0  0  0  0  0  0  0  0  0  0
   69.2378   71.8960   91.0527 H   0  0  0  0  0  0  0  0  0  0  0  0
  1  2  2  0  0  0  0
  2  3  1  0  0  0  0
  3  4  1  0  0  0  0
  4  6  1  0  0  0  0
  4  5  2  0  0  0  0
  5  1  2  0  0  0  0
  6  7  2  0  0  0  0
  7  8  1  0  0  0  0
  8  9  2  0  0  0  0
  9 10  1  0  0  0  0
 10 12  1  0  0  0  0
 10 11  2  0  0  0  0
 11  6  1  0  0  0  0
 12 13  1  0  0  0  0
 13 14  1  0  0  0  0
 14 15  2  0  0  0  0
 15 16  1  0  0  0  0
 16 17  2  0  0  0  0
 17 18  1  0  0  0  0
 18 19  1  0  0  0  0
 18 20  2  0  0  0  0
 20 14  1  0  0  0  0
 21  1  1  0  0  0  0
 22 21  1  0  0  0  0
 23 24  2  0  0  0  0
 24 25  1  0  0  0  0
 25 22  1  0  0  0  0
 25 26  2  0  0  0  0
 26 27  1  0  0  0  0
 27 28  2  0  0  0  0
 28 29  1  0  0  0  0
 28 23  1  0  0  0  0
 29 30  1  0  0  0  0
 31 32  2  0  0  0  0
 32 33  1  0  0  0  0
 32 23  1  0  0  0  0
 33 34  1  0  0  0  0
M  END
>  <Activity>
17.9

>  <minimizedAffinity>
-8.73115

>  <RFScoreVS_v2>
5.9817475742

$$$$
HIPS6710
 OpenBabel05252300073D

 34 37  0  0  0  0  0  0  0  0999 V2000
   67.5681   79.1619   88.8162 C   0  0  0  0  0  0  0  0  0  0  0  0
   68.6393   79.3455   89.6854 C   0  0  0  0  0  0  0  0  0  0  0  0
   69.0861   77.8334   90.2661 S   0  0  0  0  0  0  0  0  0  0  0  0
   67.9038   77.0087   89.3905 C   0  0  0  0  0  0  0  0  0  0  0  0
   67.1685   77.8715   88.6543 N   0  0  0  0  0  0  0  0  0  0  0  0
   67.6995   75.5422   89.3723 C   0  0  0  0  0  0  0  0  0  0  0  0
   66.8422   74.9625   88.4213 C   0  0  0  0  0  0  0  0  0  0  0  0
   66.6554   73.5792   88.3883 C   0  0  0  0  0  0  0  0  0  0  0  0
   67.3246   72.7590   89.2980 C   0  0  0  0  0  0  0  0  0  0  0  0
   68.1872   73.3111   90.2504 C   0  0  0  0  0  0  0  0  0  0  0  0
   68.3637   74.7084   90.2906 C   0  0  0  0  0  0  0  0  0  0  0  0
   68.8476   72.4387   91.1314 O   0  0  0  0  0  0  0  0  0  0  0  0
   68.3222   71.9640   92.3722 C   0  0  0  0  0  0  0  0  0  0  0  0
   67.8591   73.1101   93.2330 C   0  0  0  0  0  0  0  0  0  0  0  0
   66.4951   73.2790   93.5244 C   0  0  0  0  0  0  0  0  0  0  0  0
   66.0724   74.3465   94.3218 C   0  0  0  0  0  0  0  0  0  0  0  0
   67.0066   75.2462   94.8419 C   0  0  0  0  0  0  0  0  0  0  0  0
   68.3679   75.0778   94.5684 C   0  0  0  0  0  0  0  0  0  0  0  0
   69.5404   76.2049   95.2251 Cl  0  0  0  0  0  0  0  0  0  0  0  0
   68.7941   74.0103   93.7700 C   0  0  0  0  0  0  0  0  0  0  0  0
   66.9367   80.2860   88.0532 C   0  0  0  0  0  0  0  0  0  0  0  0
   67.2496   81.5395   88.6611 O   0  0  0  0  0  0  0  0  0  0  0  0
   70.1452   83.8089   87.9345 C   0  0  0  0  0  0  0  0  0  0  0  0
   69.3773   82.7830   88.5157 C   0  0  0  0  0  0  0  0  0  0  0  0
   68.0565   82.5405   88.0940 C   0  0  0  0  0  0  0  0  0  0  0  0
   67.5175   83.3174   87.0664 C   0  0  0  0  0  0  0  0  0  0  0  0
   68.2634   84.3449   86.4885 C   0  0  0  0  0  0  0  0  0  0  0  0
   69.5631   84.6173   86.9280 C   0  0  0  0  0  0  0  0  0  0  0  0
   70.2233   85.7132   86.3685 O   0  0  0  0  0  0  0  0  0  0  0  0
   69.8038   86.2237   85.7041 H   0  0  0  0  0  0  0  0  0  0  0  0
   71.9487   83.4172   89.4299 O   0  0  0  0  0  0  0  0  0  0  0  0
   71.5465   83.9810   88.3762 C   0  0  0  0  0  0  0  0  0  0  0  0
   72.4467   84.7135   87.6079 O   0  0  0  0  0  0  0  0  0  0  0  0
   72.1575   85.1362   86.8232 H   0  0  0  0  0  0  0  0  0  0  0  0
  1  2  2  0  0  0  0
  2  3  1  0  0  0  0
  3  4  1  0  0  0  0
  4  6  1  0  0  0  0
  4  5  2  0  0  0  0
  5  1  2  0  0  0  0
  6  7  2  0  0  0  0
  7  8  1  0  0  0  0
  8  9  2  0  0  0  0
  9 10  1  0  0  0  0
 10 12  1  0  0  0  0
 10 11  2  0  0  0  0
 11  6  1  0  0  0  0
 12 13  1  0  0  0  0
 13 14  1  0  0  0  0
 14 15  2  0  0  0  0
 15 16  1  0  0  0  0
 16 17  2  0  0  0  0
 17 18  1  0  0  0  0
 18 19  1  0  0  0  0
 18 20  2  0  0  0  0
 20 14  1  0  0  0  0
 21  1  1  0  0  0  0
 22 21  1  0  0  0  0
 23 24  2  0  0  0  0
 24 25  1  0  0  0  0
 25 22  1  0  0  0  0
 25 26  2  0  0  0  0
 26 27  1  0  0  0  0
 27 28  2  0  0  0  0
 28 29  1  0  0  0  0
 28 23  1  0  0  0  0
 29 30  1  0  0  0  0
 31 32  2  0  0  0  0
 32 33  1  0  0  0  0
 32 23  1  0  0  0  0
 33 34  1  0  0  0  0
M  END
>  <Activity>
17.9

>  <minimizedAffinity>
-8.64340

>  <RFScoreVS_v2>
5.96707502306

$$$$
HIPS6710
 OpenBabel05252300073D

 34 37  0  0  0  0  0  0  0  0999 V2000
   69.5800   76.1900   92.0323 C   0  0  0  0  0  0  0  0  0  0  0  0
   70.8758   76.6904   91.9467 C   0  0  0  0  0  0  0  0  0  0  0  0
   70.8955   77.8401   90.7215 S   0  0  0  0  0  0  0  0  0  0  0  0
   69.2603   77.6567   90.3514 C   0  0  0  0  0  0  0  0  0  0  0  0
   68.6922   76.7283   91.1531 N   0  0  0  0  0  0  0  0  0  0  0  0
   68.5091   78.4199   89.3287 C   0  0  0  0  0  0  0  0  0  0  0  0
   67.9307   77.7520   88.2356 C   0  0  0  0  0  0  0  0  0  0  0  0
   67.2086   78.4625   87.2747 C   0  0  0  0  0  0  0  0  0  0  0  0
   67.0503   79.8439   87.3957 C   0  0  0  0  0  0  0  0  0  0  0  0
   67.6115   80.5307   88.4770 C   0  0  0  0  0  0  0  0  0  0  0  0
   68.3512   79.8137   89.4382 C   0  0  0  0  0  0  0  0  0  0  0  0
   67.4080   81.9183   88.5586 O   0  0  0  0  0  0  0  0  0  0  0  0
   68.1485   82.8142   89.3893 C   0  0  0  0  0  0  0  0  0  0  0  0
   69.4202   83.2499   88.7094 C   0  0  0  0  0  0  0  0  0  0  0  0
   69.3983   83.7156   87.3840 C   0  0  0  0  0  0  0  0  0  0  0  0
   70.5828   84.1158   86.7588 C   0  0  0  0  0  0  0  0  0  0  0  0
   71.7944   84.0640   87.4530 C   0  0  0  0  0  0  0  0  0  0  0  0
   71.8236   83.6149   88.7773 C   0  0  0  0  0  0  0  0  0  0  0  0
   73.3440   83.5542   89.6496 Cl  0  0  0  0  0  0  0  0  0  0  0  0
   70.6395   83.2131   89.4059 C   0  0  0  0  0  0  0  0  0  0  0  0
   69.1622   75.1830   93.0598 C   0  0  0  0  0  0  0  0  0  0  0  0
   70.2053   74.2332   93.2807 O   0  0  0  0  0  0  0  0  0  0  0  0
   70.5048   70.5044   93.5416 C   0  0  0  0  0  0  0  0  0  0  0  0
   70.5784   71.8679   93.8811 C   0  0  0  0  0  0  0  0  0  0  0  0
   70.1319   72.8606   92.9887 C   0  0  0  0  0  0  0  0  0  0  0  0
   69.5865   72.4765   91.7620 C   0  0  0  0  0  0  0  0  0  0  0  0
   69.5173   71.1290   91.4077 C   0  0  0  0  0  0  0  0  0  0  0  0
   69.9939   70.1384   92.2726 C   0  0  0  0  0  0  0  0  0  0  0  0
   69.9747   68.8167   91.8224 O   0  0  0  0  0  0  0  0  0  0  0  0
   69.6280   68.6152   90.9756 H   0  0  0  0  0  0  0  0  0  0  0  0
   70.5863   69.6247   95.7466 O   0  0  0  0  0  0  0  0  0  0  0  0
   70.9348   69.5019   94.5410 C   0  0  0  0  0  0  0  0  0  0  0  0
   71.6740   68.3878   94.1544 O   0  0  0  0  0  0  0  0  0  0  0  0
   71.9378   68.2876   93.2609 H   0  0  0  0  0  0  0  0  0  0  0  0
  1  2  2  0  0  0  0
  2  3  1  0  0  0  0
  3  4  1  0  0  0  0
  4  6  1  0  0  0  0
  4  5  2  0  0  0  0
  5  1  2  0  0  0  0
  6  7  2  0  0  0  0
  7  8  1  0  0  0  0
  8  9  2  0  0  0  0
  9 10  1  0  0  0  0
 10 12  1  0  0  0  0
 10 11  2  0  0  0  0
 11  6  1  0  0  0  0
 12 13  1  0  0  0  0
 13 14  1  0  0  0  0
 14 15  2  0  0  0  0
 15 16  1  0  0  0  0
 16 17  2  0  0  0  0
 17 18  1  0  0  0  0
 18 19  1  0  0  0  0
 18 20  2  0  0  0  0
 20 14  1  0  0  0  0
 21  1  1  0  0  0  0
 22 21  1  0  0  0  0
 23 24  2  0  0  0  0
 24 25  1  0  0  0  0
 25 22  1  0  0  0  0
 25 26  2  0  0  0  0
 26 27  1  0  0  0  0
 27 28  2  0  0  0  0
 28 29  1  0  0  0  0
 28 23  1  0  0  0  0
 29 30  1  0  0  0  0
 31 32  2  0  0  0  0
 32 33  1  0  0  0  0
 32 23  1  0  0  0  0
 33 34  1  0  0  0  0
M  END
>  <Activity>
17.9

>  <minimizedAffinity>
-8.59779

>  <RFScoreVS_v2>
5.97589884496

$$$$
HIPS6135
 OpenBabel05252300073D

 40 43  0  0  0  0  0  0  0  0999 V2000
   67.5411   80.1746   88.2778 C   0  0  0  0  0  0  0  0  0  0  0  0
   68.3423   79.6463   89.2944 C   0  0  0  0  0  0  0  0  0  0  0  0
   68.6929   78.2859   89.3047 C   0  0  0  0  0  0  0  0  0  0  0  0
   68.2189   77.4506   88.2790 C   0  0  0  0  0  0  0  0  0  0  0  0
   67.3943   77.9586   87.2617 C   0  0  0  0  0  0  0  0  0  0  0  0
   67.0833   79.3281   87.2518 C   0  0  0  0  0  0  0  0  0  0  0  0
   69.5541   77.7397   90.3840 C   0  0  0  0  0  0  0  0  0  0  0  0
   70.9095   78.1048   90.4698 C   0  0  0  0  0  0  0  0  0  0  0  0
   71.7195   77.5846   91.4818 C   0  0  0  0  0  0  0  0  0  0  0  0
   71.1903   76.6925   92.4161 C   0  0  0  0  0  0  0  0  0  0  0  0
   69.8430   76.3098   92.3434 C   0  0  0  0  0  0  0  0  0  0  0  0
   69.0271   76.8450   91.3335 C   0  0  0  0  0  0  0  0  0  0  0  0
   69.2790   75.3474   93.3550 C   0  0  0  0  0  0  0  0  0  0  0  0
   70.2114   74.3019   93.6325 O   0  0  0  0  0  0  0  0  0  0  0  0
   70.1039   72.9759   93.1816 C   0  0  0  0  0  0  0  0  0  0  0  0
   69.6049   72.6449   91.9104 C   0  0  0  0  0  0  0  0  0  0  0  0
   69.5180   71.3097   91.5155 C   0  0  0  0  0  0  0  0  0  0  0  0
   69.9165   70.2818   92.3763 C   0  0  0  0  0  0  0  0  0  0  0  0
   69.7299   68.9656   91.9488 O   0  0  0  0  0  0  0  0  0  0  0  0
   70.4524   70.6020   93.6474 C   0  0  0  0  0  0  0  0  0  0  0  0
   70.5167   71.9514   94.0398 C   0  0  0  0  0  0  0  0  0  0  0  0
   69.3722   68.7950   91.0997 H   0  0  0  0  0  0  0  0  0  0  0  0
   70.9832   69.5710   94.5656 C   0  0  0  0  0  0  0  0  0  0  0  0
   70.6657   69.5901   95.7856 O   0  0  0  0  0  0  0  0  0  0  0  0
   71.8817   68.6109   94.1095 O   0  0  0  0  0  0  0  0  0  0  0  0
   72.1240   68.5884   93.2047 H   0  0  0  0  0  0  0  0  0  0  0  0
   66.9333   77.0657   86.1363 C   0  0  0  0  0  0  0  0  0  0  0  0
   65.6040   77.3283   85.8626 F   0  0  0  0  0  0  0  0  0  0  0  0
   67.0677   75.7322   86.4840 F   0  0  0  0  0  0  0  0  0  0  0  0
   67.6821   77.2907   84.9940 F   0  0  0  0  0  0  0  0  0  0  0  0
   67.2269   81.5430   88.3275 O   0  0  0  0  0  0  0  0  0  0  0  0
   67.4446   82.4800   87.2717 C   0  0  0  0  0  0  0  0  0  0  0  0
   71.1635   84.6038   87.8651 C   0  0  0  0  0  0  0  0  0  0  0  0
   70.2687   85.0081   86.8559 C   0  0  0  0  0  0  0  0  0  0  0  0
   69.0679   84.3192   86.6610 C   0  0  0  0  0  0  0  0  0  0  0  0
   68.7378   83.2247   87.4749 C   0  0  0  0  0  0  0  0  0  0  0  0
   69.6364   82.8143   88.4712 C   0  0  0  0  0  0  0  0  0  0  0  0
   70.8372   83.5026   88.6651 C   0  0  0  0  0  0  0  0  0  0  0  0
   72.5464   86.6772   88.0598 C   0  0  0  0  0  0  0  0  0  0  0  0
   72.3781   85.2638   88.1029 O   0  0  0  0  0  0  0  0  0  0  0  0
  1  2  2  0  0  0  0
  2  3  1  0  0  0  0
  3  7  1  0  0  0  0
  3  4  2  0  0  0  0
  4  5  1  0  0  0  0
  5 27  1  0  0  0  0
  5  6  2  0  0  0  0
  6  1  1  0  0  0  0
  7  8  2  0  0  0  0
  8  9  1  0  0  0  0
  9 10  2  0  0  0  0
 10 11  1  0  0  0  0
 11 13  1  0  0  0  0
 11 12  2  0  0  0  0
 12  7  1  0  0  0  0
 13 14  1  0  0  0  0
 14 15  1  0  0  0  0
 15 16  2  0  0  0  0
 16 17  1  0  0  0  0
 17 18  2  0  0  0  0
 18 19  1  0  0  0  0
 18 20  1  0  0  0  0
 19 22  1  0  0  0  0
 20 23  1  0  0  0  0
 20 21  2  0  0  0  0
 21 15  1  0  0  0  0
 23 24  2  0  0  0  0
 23 25  1  0  0  0  0
 25 26  1  0  0  0  0
 27 28  1  0  0  0  0
 27 29  1  0  0  0  0
 27 30  1  0  0  0  0
 31  1  1  0  0  0  0
 32 31  1  0  0  0  0
 33 34  2  0  0  0  0
 34 35  1  0  0  0  0
 35 36  2  0  0  0  0
 36 32  1  0  0  0  0
 36 37  1  0  0  0  0
 37 38  2  0  0  0  0
 38 33  1  0  0  0  0
 39 40  1  0  0  0  0
 40 33  1  0  0  0  0
M  END
>  <Activity>
19.4

>  <minimizedAffinity>
-9.63738

>  <RFScoreVS_v2>
6.28111720629

$$$$
HIPS6135
 OpenBabel05252300073D

 40 43  0  0  0  0  0  0  0  0999 V2000
   68.8829   75.6950   93.2459 C   0  0  0  0  0  0  0  0  0  0  0  0
   68.5204   76.8752   92.5900 C   0  0  0  0  0  0  0  0  0  0  0  0
   67.3073   77.5208   92.8820 C   0  0  0  0  0  0  0  0  0  0  0  0
   66.4486   76.9593   93.8421 C   0  0  0  0  0  0  0  0  0  0  0  0
   66.7854   75.7622   94.4951 C   0  0  0  0  0  0  0  0  0  0  0  0
   68.0178   75.1510   94.2126 C   0  0  0  0  0  0  0  0  0  0  0  0
   66.9394   78.7800   92.1864 C   0  0  0  0  0  0  0  0  0  0  0  0
   65.7538   79.4594   92.5187 C   0  0  0  0  0  0  0  0  0  0  0  0
   65.4062   80.6400   91.8584 C   0  0  0  0  0  0  0  0  0  0  0  0
   66.2326   81.1545   90.8577 C   0  0  0  0  0  0  0  0  0  0  0  0
   67.4155   80.4881   90.5061 C   0  0  0  0  0  0  0  0  0  0  0  0
   67.7699   79.3087   91.1811 C   0  0  0  0  0  0  0  0  0  0  0  0
   68.3021   81.0492   89.4260 C   0  0  0  0  0  0  0  0  0  0  0  0
   69.5921   81.3710   89.9475 O   0  0  0  0  0  0  0  0  0  0  0  0
   70.4202   82.4075   89.4858 C   0  0  0  0  0  0  0  0  0  0  0  0
   71.7826   82.4954   89.8184 C   0  0  0  0  0  0  0  0  0  0  0  0
   72.5578   83.5489   89.3330 C   0  0  0  0  0  0  0  0  0  0  0  0
   71.9937   84.5354   88.5174 C   0  0  0  0  0  0  0  0  0  0  0  0
   72.8061   85.6033   88.1309 O   0  0  0  0  0  0  0  0  0  0  0  0
   70.6302   84.4414   88.1469 C   0  0  0  0  0  0  0  0  0  0  0  0
   69.8559   83.3843   88.6588 C   0  0  0  0  0  0  0  0  0  0  0  0
   73.7043   85.6289   88.3967 H   0  0  0  0  0  0  0  0  0  0  0  0
   69.9968   85.3943   87.2095 C   0  0  0  0  0  0  0  0  0  0  0  0
   69.2817   86.3333   87.6528 O   0  0  0  0  0  0  0  0  0  0  0  0
   70.1315   85.2303   85.8340 O   0  0  0  0  0  0  0  0  0  0  0  0
   70.6607   84.5356   85.4946 H   0  0  0  0  0  0  0  0  0  0  0  0
   65.8817   75.1949   95.5619 C   0  0  0  0  0  0  0  0  0  0  0  0
   65.0623   76.1981   96.0446 F   0  0  0  0  0  0  0  0  0  0  0  0
   66.6260   74.6772   96.6084 F   0  0  0  0  0  0  0  0  0  0  0  0
   65.0953   74.1782   95.0481 F   0  0  0  0  0  0  0  0  0  0  0  0
   70.1093   75.0999   92.9064 O   0  0  0  0  0  0  0  0  0  0  0  0
   70.2630   73.8582   92.2175 C   0  0  0  0  0  0  0  0  0  0  0  0
   67.2277   73.3900   89.1743 C   0  0  0  0  0  0  0  0  0  0  0  0
   67.7336   74.6677   89.4813 C   0  0  0  0  0  0  0  0  0  0  0  0
   68.7122   74.8201   90.4680 C   0  0  0  0  0  0  0  0  0  0  0  0
   69.2070   73.7010   91.1552 C   0  0  0  0  0  0  0  0  0  0  0  0
   68.6924   72.4301   90.8581 C   0  0  0  0  0  0  0  0  0  0  0  0
   67.7134   72.2782   89.8722 C   0  0  0  0  0  0  0  0  0  0  0  0
   66.4120   72.3337   87.0606 C   0  0  0  0  0  0  0  0  0  0  0  0
   66.2490   73.1843   88.1909 O   0  0  0  0  0  0  0  0  0  0  0  0
  1  2  2  0  0  0  0
  2  3  1  0  0  0  0
  3  7  1  0  0  0  0
  3  4  2  0  0  0  0
  4  5  1  0  0  0  0
  5 27  1  0  0  0  0
  5  6  2  0  0  0  0
  6  1  1  0  0  0  0
  7  8  2  0  0  0  0
  8  9  1  0  0  0  0
  9 10  2  0  0  0  0
 10 11  1  0  0  0  0
 11 13  1  0  0  0  0
 11 12  2  0  0  0  0
 12  7  1  0  0  0  0
 13 14  1  0  0  0  0
 14 15  1  0  0  0  0
 15 16  2  0  0  0  0
 16 17  1  0  0  0  0
 17 18  2  0  0  0  0
 18 19  1  0  0  0  0
 18 20  1  0  0  0  0
 19 22  1  0  0  0  0
 20 23  1  0  0  0  0
 20 21  2  0  0  0  0
 21 15  1  0  0  0  0
 23 24  2  0  0  0  0
 23 25  1  0  0  0  0
 25 26  1  0  0  0  0
 27 28  1  0  0  0  0
 27 29  1  0  0  0  0
 27 30  1  0  0  0  0
 31  1  1  0  0  0  0
 32 31  1  0  0  0  0
 33 34  2  0  0  0  0
 34 35  1  0  0  0  0
 35 36  2  0  0  0  0
 36 32  1  0  0  0  0
 36 37  1  0  0  0  0
 37 38  2  0  0  0  0
 38 33  1  0  0  0  0
 39 40  1  0  0  0  0
 40 33  1  0  0  0  0
M  END
>  <Activity>
19.4

>  <minimizedAffinity>
-9.61901

>  <RFScoreVS_v2>
6.23424862074

$$$$
HIPS6135
 OpenBabel05252300073D

 40 43  0  0  0  0  0  0  0  0999 V2000
   68.6937   73.0107   92.0794 C   0  0  0  0  0  0  0  0  0  0  0  0
   69.3810   74.1058   91.5475 C   0  0  0  0  0  0  0  0  0  0  0  0
   69.0852   75.4151   91.9621 C   0  0  0  0  0  0  0  0  0  0  0  0
   68.0761   75.6171   92.9189 C   0  0  0  0  0  0  0  0  0  0  0  0
   67.3595   74.5310   93.4479 C   0  0  0  0  0  0  0  0  0  0  0  0
   67.6937   73.2280   93.0445 C   0  0  0  0  0  0  0  0  0  0  0  0
   69.8305   76.5688   91.3979 C   0  0  0  0  0  0  0  0  0  0  0  0
   71.2358   76.6008   91.4403 C   0  0  0  0  0  0  0  0  0  0  0  0
   71.9346   77.6902   90.9151 C   0  0  0  0  0  0  0  0  0  0  0  0
   71.2423   78.7606   90.3463 C   0  0  0  0  0  0  0  0  0  0  0  0
   69.8406   78.7515   90.3010 C   0  0  0  0  0  0  0  0  0  0  0  0
   69.1406   77.6488   90.8170 C   0  0  0  0  0  0  0  0  0  0  0  0
   69.1005   79.9095   89.6854 C   0  0  0  0  0  0  0  0  0  0  0  0
   69.5012   81.1418   90.2856 O   0  0  0  0  0  0  0  0  0  0  0  0
   70.2242   82.1612   89.6442 C   0  0  0  0  0  0  0  0  0  0  0  0
   71.5712   82.4351   89.9363 C   0  0  0  0  0  0  0  0  0  0  0  0
   72.2399   83.4620   89.2696 C   0  0  0  0  0  0  0  0  0  0  0  0
   71.5827   84.2382   88.3093 C   0  0  0  0  0  0  0  0  0  0  0  0
   72.2870   85.2996   87.7370 O   0  0  0  0  0  0  0  0  0  0  0  0
   70.2353   83.9519   87.9808 C   0  0  0  0  0  0  0  0  0  0  0  0
   69.5678   82.9260   88.6743 C   0  0  0  0  0  0  0  0  0  0  0  0
   73.1780   85.4562   87.9809 H   0  0  0  0  0  0  0  0  0  0  0  0
   69.5126   84.6680   86.9071 C   0  0  0  0  0  0  0  0  0  0  0  0
   68.2522   84.6989   86.9080 O   0  0  0  0  0  0  0  0  0  0  0  0
   70.2087   85.2595   85.8571 O   0  0  0  0  0  0  0  0  0  0  0  0
   71.1455   85.2418   85.8472 H   0  0  0  0  0  0  0  0  0  0  0  0
   66.3140   74.7530   94.5128 C   0  0  0  0  0  0  0  0  0  0  0  0
   65.6431   75.9333   94.2526 F   0  0  0  0  0  0  0  0  0  0  0  0
   66.9006   74.8336   95.7644 F   0  0  0  0  0  0  0  0  0  0  0  0
   65.4032   73.7108   94.5302 F   0  0  0  0  0  0  0  0  0  0  0  0
   69.0380   71.7281   91.6209 O   0  0  0  0  0  0  0  0  0  0  0  0
   69.3375   70.6059   92.4521 C   0  0  0  0  0  0  0  0  0  0  0  0
   73.6010   69.9087   92.6219 C   0  0  0  0  0  0  0  0  0  0  0  0
   72.8051   69.2149   91.6903 C   0  0  0  0  0  0  0  0  0  0  0  0
   71.4259   69.4370   91.6377 C   0  0  0  0  0  0  0  0  0  0  0  0
   70.8224   70.3602   92.5055 C   0  0  0  0  0  0  0  0  0  0  0  0
   71.6144   71.0407   93.4425 C   0  0  0  0  0  0  0  0  0  0  0  0
   72.9931   70.8177   93.4954 C   0  0  0  0  0  0  0  0  0  0  0  0
   75.7045   69.5957   93.9359 C   0  0  0  0  0  0  0  0  0  0  0  0
   74.9886   69.7241   92.7117 O   0  0  0  0  0  0  0  0  0  0  0  0
  1  2  2  0  0  0  0
  2  3  1  0  0  0  0
  3  7  1  0  0  0  0
  3  4  2  0  0  0  0
  4  5  1  0  0  0  0
  5 27  1  0  0  0  0
  5  6  2  0  0  0  0
  6  1  1  0  0  0  0
  7  8  2  0  0  0  0
  8  9  1  0  0  0  0
  9 10  2  0  0  0  0
 10 11  1  0  0  0  0
 11 13  1  0  0  0  0
 11 12  2  0  0  0  0
 12  7  1  0  0  0  0
 13 14  1  0  0  0  0
 14 15  1  0  0  0  0
 15 16  2  0  0  0  0
 16 17  1  0  0  0  0
 17 18  2  0  0  0  0
 18 19  1  0  0  0  0
 18 20  1  0  0  0  0
 19 22  1  0  0  0  0
 20 23  1  0  0  0  0
 20 21  2  0  0  0  0
 21 15  1  0  0  0  0
 23 24  2  0  0  0  0
 23 25  1  0  0  0  0
 25 26  1  0  0  0  0
 27 28  1  0  0  0  0
 27 29  1  0  0  0  0
 27 30  1  0  0  0  0
 31  1  1  0  0  0  0
 32 31  1  0  0  0  0
 33 34  2  0  0  0  0
 34 35  1  0  0  0  0
 35 36  2  0  0  0  0
 36 32  1  0  0  0  0
 36 37  1  0  0  0  0
 37 38  2  0  0  0  0
 38 33  1  0  0  0  0
 39 40  1  0  0  0  0
 40 33  1  0  0  0  0
M  END
>  <Activity>
19.4

>  <minimizedAffinity>
-9.45939

>  <RFScoreVS_v2>
6.31604289655

$$$$
HIPS6135
 OpenBabel05252300073D

 40 43  0  0  0  0  0  0  0  0999 V2000
   69.9488   72.6960   93.3948 C   0  0  0  0  0  0  0  0  0  0  0  0
   69.2145   73.3378   92.3932 C   0  0  0  0  0  0  0  0  0  0  0  0
   68.8962   72.6772   91.1948 C   0  0  0  0  0  0  0  0  0  0  0  0
   69.3346   71.3556   91.0062 C   0  0  0  0  0  0  0  0  0  0  0  0
   70.0926   70.7022   91.9918 C   0  0  0  0  0  0  0  0  0  0  0  0
   70.3713   71.3690   93.1959 C   0  0  0  0  0  0  0  0  0  0  0  0
   68.1057   73.3664   90.1436 C   0  0  0  0  0  0  0  0  0  0  0  0
   67.3501   72.6255   89.2173 C   0  0  0  0  0  0  0  0  0  0  0  0
   66.6127   73.2756   88.2251 C   0  0  0  0  0  0  0  0  0  0  0  0
   66.6231   74.6690   88.1416 C   0  0  0  0  0  0  0  0  0  0  0  0
   67.3762   75.4259   89.0510 C   0  0  0  0  0  0  0  0  0  0  0  0
   68.1056   74.7707   90.0564 C   0  0  0  0  0  0  0  0  0  0  0  0
   67.3822   76.9286   88.9551 C   0  0  0  0  0  0  0  0  0  0  0  0
   67.9751   77.5070   90.1185 O   0  0  0  0  0  0  0  0  0  0  0  0
   68.9644   78.5043   90.1165 C   0  0  0  0  0  0  0  0  0  0  0  0
   70.3311   78.2175   90.2720 C   0  0  0  0  0  0  0  0  0  0  0  0
   71.2707   79.2487   90.2645 C   0  0  0  0  0  0  0  0  0  0  0  0
   70.8703   80.5801   90.1108 C   0  0  0  0  0  0  0  0  0  0  0  0
   71.8531   81.5689   90.1911 O   0  0  0  0  0  0  0  0  0  0  0  0
   69.4998   80.8809   89.9197 C   0  0  0  0  0  0  0  0  0  0  0  0
   68.5614   79.8331   89.9482 C   0  0  0  0  0  0  0  0  0  0  0  0
   72.7499   81.3288   90.3182 H   0  0  0  0  0  0  0  0  0  0  0  0
   69.0201   82.2545   89.6533 C   0  0  0  0  0  0  0  0  0  0  0  0
   67.9690   82.6739   90.2091 O   0  0  0  0  0  0  0  0  0  0  0  0
   69.6847   83.0732   88.7449 O   0  0  0  0  0  0  0  0  0  0  0  0
   70.4666   82.7707   88.3265 H   0  0  0  0  0  0  0  0  0  0  0  0
   70.5142   69.2659   91.8024 C   0  0  0  0  0  0  0  0  0  0  0  0
   71.5187   68.9641   92.7028 F   0  0  0  0  0  0  0  0  0  0  0  0
   70.9838   69.0599   90.5163 F   0  0  0  0  0  0  0  0  0  0  0  0
   69.4468   68.4101   92.0136 F   0  0  0  0  0  0  0  0  0  0  0  0
   70.2337   73.4137   94.5684 O   0  0  0  0  0  0  0  0  0  0  0  0
   69.2610   73.9415   95.4713 C   0  0  0  0  0  0  0  0  0  0  0  0
   66.9551   77.0664   93.5711 C   0  0  0  0  0  0  0  0  0  0  0  0
   66.3101   75.9374   94.1116 C   0  0  0  0  0  0  0  0  0  0  0  0
   67.0557   74.9248   94.7226 C   0  0  0  0  0  0  0  0  0  0  0  0
   68.4524   75.0278   94.8121 C   0  0  0  0  0  0  0  0  0  0  0  0
   69.0950   76.1465   94.2611 C   0  0  0  0  0  0  0  0  0  0  0  0
   68.3495   77.1582   93.6494 C   0  0  0  0  0  0  0  0  0  0  0  0
   66.2069   79.4479   93.4380 C   0  0  0  0  0  0  0  0  0  0  0  0
   66.2521   78.1103   92.9518 O   0  0  0  0  0  0  0  0  0  0  0  0
  1  2  2  0  0  0  0
  2  3  1  0  0  0  0
  3  7  1  0  0  0  0
  3  4  2  0  0  0  0
  4  5  1  0  0  0  0
  5 27  1  0  0  0  0
  5  6  2  0  0  0  0
  6  1  1  0  0  0  0
  7  8  2  0  0  0  0
  8  9  1  0  0  0  0
  9 10  2  0  0  0  0
 10 11  1  0  0  0  0
 11 13  1  0  0  0  0
 11 12  2  0  0  0  0
 12  7  1  0  0  0  0
 13 14  1  0  0  0  0
 14 15  1  0  0  0  0
 15 16  2  0  0  0  0
 16 17  1  0  0  0  0
 17 18  2  0  0  0  0
 18 19  1  0  0  0  0
 18 20  1  0  0  0  0
 19 22  1  0  0  0  0
 20 23  1  0  0  0  0
 20 21  2  0  0  0  0
 21 15  1  0  0  0  0
 23 24  2  0  0  0  0
 23 25  1  0  0  0  0
 25 26  1  0  0  0  0
 27 28  1  0  0  0  0
 27 29  1  0  0  0  0
 27 30  1  0  0  0  0
 31  1  1  0  0  0  0
 32 31  1  0  0  0  0
 33 34  2  0  0  0  0
 34 35  1  0  0  0  0
 35 36  2  0  0  0  0
 36 32  1  0  0  0  0
 36 37  1  0  0  0  0
 37 38  2  0  0  0  0
 38 33  1  0  0  0  0
 39 40  1  0  0  0  0
 40 33  1  0  0  0  0
M  END
>  <Activity>
19.4

>  <minimizedAffinity>
-9.41707

>  <RFScoreVS_v2>
6.24224596026

$$$$
HIPS6135
 OpenBabel05252300073D

 40 43  0  0  0  0  0  0  0  0999 V2000
   69.8131   72.8018   93.3378 C   0  0  0  0  0  0  0  0  0  0  0  0
   69.0457   73.3268   92.2938 C   0  0  0  0  0  0  0  0  0  0  0  0
   68.8279   72.5914   91.1166 C   0  0  0  0  0  0  0  0  0  0  0  0
   69.4015   71.3146   90.9929 C   0  0  0  0  0  0  0  0  0  0  0  0
   70.1941   70.7800   92.0219 C   0  0  0  0  0  0  0  0  0  0  0  0
   70.3716   71.5177   93.2036 C   0  0  0  0  0  0  0  0  0  0  0  0
   68.0012   73.1558   90.0198 C   0  0  0  0  0  0  0  0  0  0  0  0
   67.4173   72.3115   89.0586 C   0  0  0  0  0  0  0  0  0  0  0  0
   66.6458   72.8451   88.0239 C   0  0  0  0  0  0  0  0  0  0  0  0
   66.4509   74.2244   87.9324 C   0  0  0  0  0  0  0  0  0  0  0  0
   67.0309   75.0842   88.8766 C   0  0  0  0  0  0  0  0  0  0  0  0
   67.7946   74.5443   89.9241 C   0  0  0  0  0  0  0  0  0  0  0  0
   66.8159   76.5709   88.7718 C   0  0  0  0  0  0  0  0  0  0  0  0
   67.2696   77.2317   89.9537 O   0  0  0  0  0  0  0  0  0  0  0  0
   68.3620   78.1119   90.0245 C   0  0  0  0  0  0  0  0  0  0  0  0
   68.2150   79.5087   89.9798 C   0  0  0  0  0  0  0  0  0  0  0  0
   69.3362   80.3358   90.0518 C   0  0  0  0  0  0  0  0  0  0  0  0
   70.6203   79.7921   90.1612 C   0  0  0  0  0  0  0  0  0  0  0  0
   71.7035   80.6733   90.1495 O   0  0  0  0  0  0  0  0  0  0  0  0
   70.7809   78.3874   90.2410 C   0  0  0  0  0  0  0  0  0  0  0  0
   69.6434   77.5648   90.1482 C   0  0  0  0  0  0  0  0  0  0  0  0
   71.5555   81.5970   90.0957 H   0  0  0  0  0  0  0  0  0  0  0  0
   72.0992   77.7519   90.4562 C   0  0  0  0  0  0  0  0  0  0  0  0
   72.9522   77.7405   89.5279 O   0  0  0  0  0  0  0  0  0  0  0  0
   72.3885   77.1097   91.6565 O   0  0  0  0  0  0  0  0  0  0  0  0
   71.7611   77.1125   92.3525 H   0  0  0  0  0  0  0  0  0  0  0  0
   70.7624   69.3875   91.9018 C   0  0  0  0  0  0  0  0  0  0  0  0
   72.0884   69.4020   92.2924 F   0  0  0  0  0  0  0  0  0  0  0  0
   70.6817   68.9377   90.5948 F   0  0  0  0  0  0  0  0  0  0  0  0
   70.0649   68.5025   92.7059 F   0  0  0  0  0  0  0  0  0  0  0  0
   69.9926   73.5895   94.4871 O   0  0  0  0  0  0  0  0  0  0  0  0
   68.9494   74.0357   95.3547 C   0  0  0  0  0  0  0  0  0  0  0  0
   66.7447   77.2826   93.5410 C   0  0  0  0  0  0  0  0  0  0  0  0
   66.0627   76.1689   94.0676 C   0  0  0  0  0  0  0  0  0  0  0  0
   66.7755   75.1169   94.6506 C   0  0  0  0  0  0  0  0  0  0  0  0
   68.1760   75.1646   94.7257 C   0  0  0  0  0  0  0  0  0  0  0  0
   68.8551   76.2684   94.1884 C   0  0  0  0  0  0  0  0  0  0  0  0
   68.1424   77.3195   93.6048 C   0  0  0  0  0  0  0  0  0  0  0  0
   65.0951   79.1597   93.6085 C   0  0  0  0  0  0  0  0  0  0  0  0
   66.0756   78.3644   92.9499 O   0  0  0  0  0  0  0  0  0  0  0  0
  1  2  2  0  0  0  0
  2  3  1  0  0  0  0
  3  7  1  0  0  0  0
  3  4  2  0  0  0  0
  4  5  1  0  0  0  0
  5 27  1  0  0  0  0
  5  6  2  0  0  0  0
  6  1  1  0  0  0  0
  7  8  2  0  0  0  0
  8  9  1  0  0  0  0
  9 10  2  0  0  0  0
 10 11  1  0  0  0  0
 11 13  1  0  0  0  0
 11 12  2  0  0  0  0
 12  7  1  0  0  0  0
 13 14  1  0  0  0  0
 14 15  1  0  0  0  0
 15 16  2  0  0  0  0
 16 17  1  0  0  0  0
 17 18  2  0  0  0  0
 18 19  1  0  0  0  0
 18 20  1  0  0  0  0
 19 22  1  0  0  0  0
 20 23  1  0  0  0  0
 20 21  2  0  0  0  0
 21 15  1  0  0  0  0
 23 24  2  0  0  0  0
 23 25  1  0  0  0  0
 25 26  1  0  0  0  0
 27 28  1  0  0  0  0
 27 29  1  0  0  0  0
 27 30  1  0  0  0  0
 31  1  1  0  0  0  0
 32 31  1  0  0  0  0
 33 34  2  0  0  0  0
 34 35  1  0  0  0  0
 35 36  2  0  0  0  0
 36 32  1  0  0  0  0
 36 37  1  0  0  0  0
 37 38  2  0  0  0  0
 38 33  1  0  0  0  0
 39 40  1  0  0  0  0
 40 33  1  0  0  0  0
M  END
>  <Activity>
19.4

>  <minimizedAffinity>
-9.39149

>  <RFScoreVS_v2>
6.37352528058

$$$$
HIPS6135
 OpenBabel05252300073D

 40 43  0  0  0  0  0  0  0  0999 V2000
   69.0663   83.1358   89.3951 C   0  0  0  0  0  0  0  0  0  0  0  0
   69.1196   81.7858   89.7545 C   0  0  0  0  0  0  0  0  0  0  0  0
   70.3482   81.1108   89.8472 C   0  0  0  0  0  0  0  0  0  0  0  0
   71.5342   81.8090   89.5637 C   0  0  0  0  0  0  0  0  0  0  0  0
   71.4988   83.1594   89.1791 C   0  0  0  0  0  0  0  0  0  0  0  0
   70.2630   83.8242   89.1250 C   0  0  0  0  0  0  0  0  0  0  0  0
   70.3918   79.6798   90.2412 C   0  0  0  0  0  0  0  0  0  0  0  0
   71.6224   79.0414   90.4779 C   0  0  0  0  0  0  0  0  0  0  0  0
   71.6614   77.6935   90.8418 C   0  0  0  0  0  0  0  0  0  0  0  0
   70.4769   76.9659   90.9697 C   0  0  0  0  0  0  0  0  0  0  0  0
   69.2399   77.5820   90.7306 C   0  0  0  0  0  0  0  0  0  0  0  0
   69.2023   78.9409   90.3785 C   0  0  0  0  0  0  0  0  0  0  0  0
   67.9663   76.7909   90.8709 C   0  0  0  0  0  0  0  0  0  0  0  0
   67.3807   76.9997   92.1566 O   0  0  0  0  0  0  0  0  0  0  0  0
   67.2206   76.0159   93.1464 C   0  0  0  0  0  0  0  0  0  0  0  0
   65.9885   75.7634   93.7729 C   0  0  0  0  0  0  0  0  0  0  0  0
   65.8877   74.7748   94.7522 C   0  0  0  0  0  0  0  0  0  0  0  0
   67.0073   74.0270   95.1314 C   0  0  0  0  0  0  0  0  0  0  0  0
   66.8545   73.1085   96.1721 O   0  0  0  0  0  0  0  0  0  0  0  0
   68.2478   74.2477   94.4852 C   0  0  0  0  0  0  0  0  0  0  0  0
   68.3393   75.2604   93.5129 C   0  0  0  0  0  0  0  0  0  0  0  0
   66.0163   72.9913   96.5743 H   0  0  0  0  0  0  0  0  0  0  0  0
   69.4452   73.4265   94.7677 C   0  0  0  0  0  0  0  0  0  0  0  0
   70.3565   73.3226   93.9027 O   0  0  0  0  0  0  0  0  0  0  0  0
   69.5508   72.7144   95.9588 O   0  0  0  0  0  0  0  0  0  0  0  0
   68.8788   72.7849   96.6080 H   0  0  0  0  0  0  0  0  0  0  0  0
   72.7805   83.9147   88.9276 C   0  0  0  0  0  0  0  0  0  0  0  0
   73.7187   83.5467   89.8739 F   0  0  0  0  0  0  0  0  0  0  0  0
   72.5675   85.2803   89.0105 F   0  0  0  0  0  0  0  0  0  0  0  0
   73.2766   83.6317   87.6667 F   0  0  0  0  0  0  0  0  0  0  0  0
   67.8054   83.7506   89.3201 O   0  0  0  0  0  0  0  0  0  0  0  0
   66.9641   84.0501   90.4349 C   0  0  0  0  0  0  0  0  0  0  0  0
   66.5541   80.6015   93.0102 C   0  0  0  0  0  0  0  0  0  0  0  0
   67.3886   81.6719   93.3851 C   0  0  0  0  0  0  0  0  0  0  0  0
   67.5247   82.7854   92.5508 C   0  0  0  0  0  0  0  0  0  0  0  0
   66.8238   82.8522   91.3368 C   0  0  0  0  0  0  0  0  0  0  0  0
   66.0032   81.7791   90.9579 C   0  0  0  0  0  0  0  0  0  0  0  0
   65.8682   80.6656   91.7918 C   0  0  0  0  0  0  0  0  0  0  0  0
   65.1187   78.9814   94.2608 C   0  0  0  0  0  0  0  0  0  0  0  0
   66.3812   79.4647   93.8134 O   0  0  0  0  0  0  0  0  0  0  0  0
  1  2  2  0  0  0  0
  2  3  1  0  0  0  0
  3  7  1  0  0  0  0
  3  4  2  0  0  0  0
  4  5  1  0  0  0  0
  5 27  1  0  0  0  0
  5  6  2  0  0  0  0
  6  1  1  0  0  0  0
  7  8  2  0  0  0  0
  8  9  1  0  0  0  0
  9 10  2  0  0  0  0
 10 11  1  0  0  0  0
 11 13  1  0  0  0  0
 11 12  2  0  0  0  0
 12  7  1  0  0  0  0
 13 14  1  0  0  0  0
 14 15  1  0  0  0  0
 15 16  2  0  0  0  0
 16 17  1  0  0  0  0
 17 18  2  0  0  0  0
 18 19  1  0  0  0  0
 18 20  1  0  0  0  0
 19 22  1  0  0  0  0
 20 23  1  0  0  0  0
 20 21  2  0  0  0  0
 21 15  1  0  0  0  0
 23 24  2  0  0  0  0
 23 25  1  0  0  0  0
 25 26  1  0  0  0  0
 27 28  1  0  0  0  0
 27 29  1  0  0  0  0
 27 30  1  0  0  0  0
 31  1  1  0  0  0  0
 32 31  1  0  0  0  0
 33 34  2  0  0  0  0
 34 35  1  0  0  0  0
 35 36  2  0  0  0  0
 36 32  1  0  0  0  0
 36 37  1  0  0  0  0
 37 38  2  0  0  0  0
 38 33  1  0  0  0  0
 39 40  1  0  0  0  0
 40 33  1  0  0  0  0
M  END
>  <Activity>
19.4

>  <minimizedAffinity>
-9.37180

>  <RFScoreVS_v2>
6.15507201571

$$$$
HIPS6135
 OpenBabel05252300073D

 40 43  0  0  0  0  0  0  0  0999 V2000
   66.7792   75.9340   88.3388 C   0  0  0  0  0  0  0  0  0  0  0  0
   66.6457   77.0605   89.1559 C   0  0  0  0  0  0  0  0  0  0  0  0
   67.0157   78.3351   88.6953 C   0  0  0  0  0  0  0  0  0  0  0  0
   67.5348   78.4678   87.3962 C   0  0  0  0  0  0  0  0  0  0  0  0
   67.6973   77.3444   86.5689 C   0  0  0  0  0  0  0  0  0  0  0  0
   67.2902   76.0844   87.0368 C   0  0  0  0  0  0  0  0  0  0  0  0
   66.8580   79.5252   89.5691 C   0  0  0  0  0  0  0  0  0  0  0  0
   65.5848   79.9164   90.0202 C   0  0  0  0  0  0  0  0  0  0  0  0
   65.4380   81.0402   90.8366 C   0  0  0  0  0  0  0  0  0  0  0  0
   66.5560   81.7887   91.2088 C   0  0  0  0  0  0  0  0  0  0  0  0
   67.8337   81.4198   90.7633 C   0  0  0  0  0  0  0  0  0  0  0  0
   67.9804   80.2814   89.9541 C   0  0  0  0  0  0  0  0  0  0  0  0
   69.0351   82.2318   91.1693 C   0  0  0  0  0  0  0  0  0  0  0  0
   70.1087   82.0418   90.2468 O   0  0  0  0  0  0  0  0  0  0  0  0
   70.7651   83.0642   89.5418 C   0  0  0  0  0  0  0  0  0  0  0  0
   72.1513   83.2771   89.6297 C   0  0  0  0  0  0  0  0  0  0  0  0
   72.7506   84.3101   88.9085 C   0  0  0  0  0  0  0  0  0  0  0  0
   71.9852   85.1526   88.0956 C   0  0  0  0  0  0  0  0  0  0  0  0
   72.6356   86.2144   87.4634 O   0  0  0  0  0  0  0  0  0  0  0  0
   70.5924   84.9291   87.9714 C   0  0  0  0  0  0  0  0  0  0  0  0
   69.9985   83.8958   88.7189 C   0  0  0  0  0  0  0  0  0  0  0  0
   73.5595   86.3283   87.5706 H   0  0  0  0  0  0  0  0  0  0  0  0
   69.7421   85.7191   87.0545 C   0  0  0  0  0  0  0  0  0  0  0  0
   69.5827   86.9544   87.2501 O   0  0  0  0  0  0  0  0  0  0  0  0
   69.0634   85.1010   86.0084 O   0  0  0  0  0  0  0  0  0  0  0  0
   69.1752   84.1834   85.8548 H   0  0  0  0  0  0  0  0  0  0  0  0
   68.2064   77.5037   85.1576 C   0  0  0  0  0  0  0  0  0  0  0  0
   68.2817   78.8494   84.8504 F   0  0  0  0  0  0  0  0  0  0  0  0
   67.3566   76.8822   84.2584 F   0  0  0  0  0  0  0  0  0  0  0  0
   69.4632   76.9393   85.0235 F   0  0  0  0  0  0  0  0  0  0  0  0
   66.3914   74.6888   88.8611 O   0  0  0  0  0  0  0  0  0  0  0  0
   67.2165   73.5245   88.9214 C   0  0  0  0  0  0  0  0  0  0  0  0
   69.4945   73.4592   92.5956 C   0  0  0  0  0  0  0  0  0  0  0  0
   68.6321   72.3929   92.2763 C   0  0  0  0  0  0  0  0  0  0  0  0
   67.8923   72.4154   91.0903 C   0  0  0  0  0  0  0  0  0  0  0  0
   68.0089   73.4955   90.2018 C   0  0  0  0  0  0  0  0  0  0  0  0
   68.8580   74.5637   90.5275 C   0  0  0  0  0  0  0  0  0  0  0  0
   69.5967   74.5414   91.7138 C   0  0  0  0  0  0  0  0  0  0  0  0
   69.7274   73.3154   95.0804 C   0  0  0  0  0  0  0  0  0  0  0  0
   70.2603   73.4821   93.7705 O   0  0  0  0  0  0  0  0  0  0  0  0
  1  2  2  0  0  0  0
  2  3  1  0  0  0  0
  3  7  1  0  0  0  0
  3  4  2  0  0  0  0
  4  5  1  0  0  0  0
  5 27  1  0  0  0  0
  5  6  2  0  0  0  0
  6  1  1  0  0  0  0
  7  8  2  0  0  0  0
  8  9  1  0  0  0  0
  9 10  2  0  0  0  0
 10 11  1  0  0  0  0
 11 13  1  0  0  0  0
 11 12  2  0  0  0  0
 12  7  1  0  0  0  0
 13 14  1  0  0  0  0
 14 15  1  0  0  0  0
 15 16  2  0  0  0  0
 16 17  1  0  0  0  0
 17 18  2  0  0  0  0
 18 19  1  0  0  0  0
 18 20  1  0  0  0  0
 19 22  1  0  0  0  0
 20 23  1  0  0  0  0
 20 21  2  0  0  0  0
 21 15  1  0  0  0  0
 23 24  2  0  0  0  0
 23 25  1  0  0  0  0
 25 26  1  0  0  0  0
 27 28  1  0  0  0  0
 27 29  1  0  0  0  0
 27 30  1  0  0  0  0
 31  1  1  0  0  0  0
 32 31  1  0  0  0  0
 33 34  2  0  0  0  0
 34 35  1  0  0  0  0
 35 36  2  0  0  0  0
 36 32  1  0  0  0  0
 36 37  1  0  0  0  0
 37 38  2  0  0  0  0
 38 33  1  0  0  0  0
 39 40  1  0  0  0  0
 40 33  1  0  0  0  0
M  END
>  <Activity>
19.4

>  <minimizedAffinity>
-9.35487

>  <RFScoreVS_v2>
6.22206522651

$$$$
HIPS6135
 OpenBabel05252300073D

 40 43  0  0  0  0  0  0  0  0999 V2000
   68.9345   83.7444   89.7440 C   0  0  0  0  0  0  0  0  0  0  0  0
   68.8967   82.3764   90.0300 C   0  0  0  0  0  0  0  0  0  0  0  0
   70.0421   81.5760   89.8842 C   0  0  0  0  0  0  0  0  0  0  0  0
   71.2354   82.1665   89.4352 C   0  0  0  0  0  0  0  0  0  0  0  0
   71.2867   83.5346   89.1214 C   0  0  0  0  0  0  0  0  0  0  0  0
   70.1394   84.3232   89.3059 C   0  0  0  0  0  0  0  0  0  0  0  0
   69.9916   80.1264   90.2024 C   0  0  0  0  0  0  0  0  0  0  0  0
   71.1635   79.3494   90.1812 C   0  0  0  0  0  0  0  0  0  0  0  0
   71.1127   77.9847   90.4742 C   0  0  0  0  0  0  0  0  0  0  0  0
   69.8948   77.3784   90.7869 C   0  0  0  0  0  0  0  0  0  0  0  0
   68.7134   78.1341   90.8060 C   0  0  0  0  0  0  0  0  0  0  0  0
   68.7691   79.5089   90.5248 C   0  0  0  0  0  0  0  0  0  0  0  0
   67.4034   77.4733   91.1447 C   0  0  0  0  0  0  0  0  0  0  0  0
   67.1443   77.5539   92.5468 O   0  0  0  0  0  0  0  0  0  0  0  0
   67.0317   76.4569   93.4170 C   0  0  0  0  0  0  0  0  0  0  0  0
   65.8286   76.1183   94.0592 C   0  0  0  0  0  0  0  0  0  0  0  0
   65.7749   75.0185   94.9158 C   0  0  0  0  0  0  0  0  0  0  0  0
   66.9135   74.2422   95.1556 C   0  0  0  0  0  0  0  0  0  0  0  0
   66.8099   73.2040   96.0837 O   0  0  0  0  0  0  0  0  0  0  0  0
   68.1242   74.5517   94.4896 C   0  0  0  0  0  0  0  0  0  0  0  0
   68.1690   75.6745   93.6432 C   0  0  0  0  0  0  0  0  0  0  0  0
   65.9903   73.0308   96.5034 H   0  0  0  0  0  0  0  0  0  0  0  0
   69.3369   73.7150   94.6214 C   0  0  0  0  0  0  0  0  0  0  0  0
   70.2291   73.7539   93.7315 O   0  0  0  0  0  0  0  0  0  0  0  0
   69.4779   72.8355   95.6908 O   0  0  0  0  0  0  0  0  0  0  0  0
   68.8203   72.7991   96.3573 H   0  0  0  0  0  0  0  0  0  0  0  0
   72.5853   84.1701   88.6900 C   0  0  0  0  0  0  0  0  0  0  0  0
   73.6006   83.7422   89.5250 F   0  0  0  0  0  0  0  0  0  0  0  0
   72.4992   85.5505   88.7547 F   0  0  0  0  0  0  0  0  0  0  0  0
   72.8941   83.8182   87.3874 F   0  0  0  0  0  0  0  0  0  0  0  0
   67.7537   84.4873   89.9101 O   0  0  0  0  0  0  0  0  0  0  0  0
   66.8400   84.3547   90.9999 C   0  0  0  0  0  0  0  0  0  0  0  0
   68.8497   84.9685   94.7784 C   0  0  0  0  0  0  0  0  0  0  0  0
   68.7785   86.0113   93.8349 C   0  0  0  0  0  0  0  0  0  0  0  0
   68.1323   85.8120   92.6114 C   0  0  0  0  0  0  0  0  0  0  0  0
   67.5398   84.5748   92.3152 C   0  0  0  0  0  0  0  0  0  0  0  0
   67.6234   83.5323   93.2503 C   0  0  0  0  0  0  0  0  0  0  0  0
   68.2704   83.7315   94.4730 C   0  0  0  0  0  0  0  0  0  0  0  0
   68.9444   85.8574   97.1129 C   0  0  0  0  0  0  0  0  0  0  0  0
   69.4831   85.1193   96.0208 O   0  0  0  0  0  0  0  0  0  0  0  0
  1  2  2  0  0  0  0
  2  3  1  0  0  0  0
  3  7  1  0  0  0  0
  3  4  2  0  0  0  0
  4  5  1  0  0  0  0
  5 27  1  0  0  0  0
  5  6  2  0  0  0  0
  6  1  1  0  0  0  0
  7  8  2  0  0  0  0
  8  9  1  0  0  0  0
  9 10  2  0  0  0  0
 10 11  1  0  0  0  0
 11 13  1  0  0  0  0
 11 12  2  0  0  0  0
 12  7  1  0  0  0  0
 13 14  1  0  0  0  0
 14 15  1  0  0  0  0
 15 16  2  0  0  0  0
 16 17  1  0  0  0  0
 17 18  2  0  0  0  0
 18 19  1  0  0  0  0
 18 20  1  0  0  0  0
 19 22  1  0  0  0  0
 20 23  1  0  0  0  0
 20 21  2  0  0  0  0
 21 15  1  0  0  0  0
 23 24  2  0  0  0  0
 23 25  1  0  0  0  0
 25 26  1  0  0  0  0
 27 28  1  0  0  0  0
 27 29  1  0  0  0  0
 27 30  1  0  0  0  0
 31  1  1  0  0  0  0
 32 31  1  0  0  0  0
 33 34  2  0  0  0  0
 34 35  1  0  0  0  0
 35 36  2  0  0  0  0
 36 32  1  0  0  0  0
 36 37  1  0  0  0  0
 37 38  2  0  0  0  0
 38 33  1  0  0  0  0
 39 40  1  0  0  0  0
 40 33  1  0  0  0  0
M  END
>  <Activity>
19.4

>  <minimizedAffinity>
-9.28543

>  <RFScoreVS_v2>
6.11473518212

$$$$
HIPS6135
 OpenBabel05252300073D

 40 43  0  0  0  0  0  0  0  0999 V2000
   69.5563   74.1424   91.9431 C   0  0  0  0  0  0  0  0  0  0  0  0
   69.5470   75.5241   91.7303 C   0  0  0  0  0  0  0  0  0  0  0  0
   68.8093   76.0878   90.6758 C   0  0  0  0  0  0  0  0  0  0  0  0
   68.0809   75.2413   89.8229 C   0  0  0  0  0  0  0  0  0  0  0  0
   68.0964   73.8490   90.0073 C   0  0  0  0  0  0  0  0  0  0  0  0
   68.8134   73.3089   91.0874 C   0  0  0  0  0  0  0  0  0  0  0  0
   68.7986   77.5580   90.4677 C   0  0  0  0  0  0  0  0  0  0  0  0
   67.5835   78.2479   90.3085 C   0  0  0  0  0  0  0  0  0  0  0  0
   67.5761   79.6298   90.1060 C   0  0  0  0  0  0  0  0  0  0  0  0
   68.7776   80.3387   90.0554 C   0  0  0  0  0  0  0  0  0  0  0  0
   70.0005   79.6683   90.2043 C   0  0  0  0  0  0  0  0  0  0  0  0
   70.0048   78.2809   90.4218 C   0  0  0  0  0  0  0  0  0  0  0  0
   71.2925   80.4397   90.1491 C   0  0  0  0  0  0  0  0  0  0  0  0
   71.0843   81.8019   90.5242 O   0  0  0  0  0  0  0  0  0  0  0  0
   71.4528   82.9211   89.7594 C   0  0  0  0  0  0  0  0  0  0  0  0
   72.7924   83.2941   89.5572 C   0  0  0  0  0  0  0  0  0  0  0  0
   73.1006   84.4176   88.7898 C   0  0  0  0  0  0  0  0  0  0  0  0
   72.0869   85.1931   88.2175 C   0  0  0  0  0  0  0  0  0  0  0  0
   72.4616   86.3478   87.5275 O   0  0  0  0  0  0  0  0  0  0  0  0
   70.7339   84.8101   88.3851 C   0  0  0  0  0  0  0  0  0  0  0  0
   70.4367   83.6859   89.1769 C   0  0  0  0  0  0  0  0  0  0  0  0
   73.3682   86.5669   87.4383 H   0  0  0  0  0  0  0  0  0  0  0  0
   69.6204   85.5273   87.7266 C   0  0  0  0  0  0  0  0  0  0  0  0
   68.7732   84.8873   87.0468 O   0  0  0  0  0  0  0  0  0  0  0  0
   69.5304   86.9143   87.7982 O   0  0  0  0  0  0  0  0  0  0  0  0
   70.1552   87.3990   88.3009 H   0  0  0  0  0  0  0  0  0  0  0  0
   67.2697   72.9526   89.1188 C   0  0  0  0  0  0  0  0  0  0  0  0
   66.1657   72.5081   89.8219 F   0  0  0  0  0  0  0  0  0  0  0  0
   68.0103   71.8593   88.7027 F   0  0  0  0  0  0  0  0  0  0  0  0
   66.8426   73.6370   87.9938 F   0  0  0  0  0  0  0  0  0  0  0  0
   70.3154   73.6438   93.0149 O   0  0  0  0  0  0  0  0  0  0  0  0
   70.1051   72.3886   93.6634 C   0  0  0  0  0  0  0  0  0  0  0  0
   72.5305   69.2980   91.8582 C   0  0  0  0  0  0  0  0  0  0  0  0
   71.1742   69.4329   91.5046 C   0  0  0  0  0  0  0  0  0  0  0  0
   70.3886   70.4296   92.0910 C   0  0  0  0  0  0  0  0  0  0  0  0
   70.9456   71.3113   93.0300 C   0  0  0  0  0  0  0  0  0  0  0  0
   72.2935   71.1673   93.3917 C   0  0  0  0  0  0  0  0  0  0  0  0
   73.0784   70.1701   92.8060 C   0  0  0  0  0  0  0  0  0  0  0  0
   74.6646   68.5679   90.7804 C   0  0  0  0  0  0  0  0  0  0  0  0
   73.3611   68.3175   91.2960 O   0  0  0  0  0  0  0  0  0  0  0  0
  1  2  2  0  0  0  0
  2  3  1  0  0  0  0
  3  7  1  0  0  0  0
  3  4  2  0  0  0  0
  4  5  1  0  0  0  0
  5 27  1  0  0  0  0
  5  6  2  0  0  0  0
  6  1  1  0  0  0  0
  7  8  2  0  0  0  0
  8  9  1  0  0  0  0
  9 10  2  0  0  0  0
 10 11  1  0  0  0  0
 11 13  1  0  0  0  0
 11 12  2  0  0  0  0
 12  7  1  0  0  0  0
 13 14  1  0  0  0  0
 14 15  1  0  0  0  0
 15 16  2  0  0  0  0
 16 17  1  0  0  0  0
 17 18  2  0  0  0  0
 18 19  1  0  0  0  0
 18 20  1  0  0  0  0
 19 22  1  0  0  0  0
 20 23  1  0  0  0  0
 20 21  2  0  0  0  0
 21 15  1  0  0  0  0
 23 24  2  0  0  0  0
 23 25  1  0  0  0  0
 25 26  1  0  0  0  0
 27 28  1  0  0  0  0
 27 29  1  0  0  0  0
 27 30  1  0  0  0  0
 31  1  1  0  0  0  0
 32 31  1  0  0  0  0
 33 34  2  0  0  0  0
 34 35  1  0  0  0  0
 35 36  2  0  0  0  0
 36 32  1  0  0  0  0
 36 37  1  0  0  0  0
 37 38  2  0  0  0  0
 38 33  1  0  0  0  0
 39 40  1  0  0  0  0
 40 33  1  0  0  0  0
M  END
>  <Activity>
19.4

>  <minimizedAffinity>
-9.17502

>  <RFScoreVS_v2>
6.06377684562

$$$$
HIPS6135
 OpenBabel05252300073D

 40 43  0  0  0  0  0  0  0  0999 V2000
   69.6052   78.7299   90.4646 C   0  0  0  0  0  0  0  0  0  0  0  0
   70.4483   79.7554   90.0263 C   0  0  0  0  0  0  0  0  0  0  0  0
   69.9951   81.0834   89.9573 C   0  0  0  0  0  0  0  0  0  0  0  0
   68.6709   81.3734   90.3276 C   0  0  0  0  0  0  0  0  0  0  0  0
   67.8026   80.3529   90.7489 C   0  0  0  0  0  0  0  0  0  0  0  0
   68.2856   79.0375   90.8424 C   0  0  0  0  0  0  0  0  0  0  0  0
   70.9042   82.1652   89.5011 C   0  0  0  0  0  0  0  0  0  0  0  0
   72.1806   82.3138   90.0724 C   0  0  0  0  0  0  0  0  0  0  0  0
   73.0314   83.3363   89.6465 C   0  0  0  0  0  0  0  0  0  0  0  0
   72.6194   84.2239   88.6510 C   0  0  0  0  0  0  0  0  0  0  0  0
   71.3474   84.0975   88.0738 C   0  0  0  0  0  0  0  0  0  0  0  0
   70.4991   83.0602   88.4937 C   0  0  0  0  0  0  0  0  0  0  0  0
   70.9100   85.0585   87.0002 C   0  0  0  0  0  0  0  0  0  0  0  0
   69.7345   85.7634   87.4011 O   0  0  0  0  0  0  0  0  0  0  0  0
   69.6265   86.5852   88.5352 C   0  0  0  0  0  0  0  0  0  0  0  0
   70.2239   87.8547   88.6119 C   0  0  0  0  0  0  0  0  0  0  0  0
   70.0858   88.6277   89.7650 C   0  0  0  0  0  0  0  0  0  0  0  0
   69.3608   88.1519   90.8625 C   0  0  0  0  0  0  0  0  0  0  0  0
   69.3279   88.9425   92.0132 O   0  0  0  0  0  0  0  0  0  0  0  0
   68.7255   86.8886   90.7869 C   0  0  0  0  0  0  0  0  0  0  0  0
   68.8887   86.1119   89.6253 C   0  0  0  0  0  0  0  0  0  0  0  0
   69.7611   89.7732   92.0233 H   0  0  0  0  0  0  0  0  0  0  0  0
   67.8636   86.3694   91.8711 C   0  0  0  0  0  0  0  0  0  0  0  0
   66.7685   85.8104   91.5925 O   0  0  0  0  0  0  0  0  0  0  0  0
   68.2198   86.5454   93.2050 O   0  0  0  0  0  0  0  0  0  0  0  0
   69.0316   86.9597   93.4224 H   0  0  0  0  0  0  0  0  0  0  0  0
   66.3989   80.6813   91.1941 C   0  0  0  0  0  0  0  0  0  0  0  0
   66.4201   81.8396   91.9484 F   0  0  0  0  0  0  0  0  0  0  0  0
   65.8760   79.6533   91.9602 F   0  0  0  0  0  0  0  0  0  0  0  0
   65.5697   80.8694   90.1017 F   0  0  0  0  0  0  0  0  0  0  0  0
   70.1209   77.4239   90.5091 O   0  0  0  0  0  0  0  0  0  0  0  0
   70.9044   76.8802   91.5724 C   0  0  0  0  0  0  0  0  0  0  0  0
   68.5208   74.2607   94.0522 C   0  0  0  0  0  0  0  0  0  0  0  0
   69.0129   73.8102   92.8123 C   0  0  0  0  0  0  0  0  0  0  0  0
   69.7804   74.6582   92.0083 C   0  0  0  0  0  0  0  0  0  0  0  0
   70.0761   75.9627   92.4328 C   0  0  0  0  0  0  0  0  0  0  0  0
   69.5737   76.4150   93.6621 C   0  0  0  0  0  0  0  0  0  0  0  0
   68.8056   75.5674   94.4653 C   0  0  0  0  0  0  0  0  0  0  0  0
   66.5026   73.8341   95.4644 C   0  0  0  0  0  0  0  0  0  0  0  0
   67.7500   73.4479   94.8965 O   0  0  0  0  0  0  0  0  0  0  0  0
  1  2  2  0  0  0  0
  2  3  1  0  0  0  0
  3  7  1  0  0  0  0
  3  4  2  0  0  0  0
  4  5  1  0  0  0  0
  5 27  1  0  0  0  0
  5  6  2  0  0  0  0
  6  1  1  0  0  0  0
  7  8  2  0  0  0  0
  8  9  1  0  0  0  0
  9 10  2  0  0  0  0
 10 11  1  0  0  0  0
 11 13  1  0  0  0  0
 11 12  2  0  0  0  0
 12  7  1  0  0  0  0
 13 14  1  0  0  0  0
 14 15  1  0  0  0  0
 15 16  2  0  0  0  0
 16 17  1  0  0  0  0
 17 18  2  0  0  0  0
 18 19  1  0  0  0  0
 18 20  1  0  0  0  0
 19 22  1  0  0  0  0
 20 23  1  0  0  0  0
 20 21  2  0  0  0  0
 21 15  1  0  0  0  0
 23 24  2  0  0  0  0
 23 25  1  0  0  0  0
 25 26  1  0  0  0  0
 27 28  1  0  0  0  0
 27 29  1  0  0  0  0
 27 30  1  0  0  0  0
 31  1  1  0  0  0  0
 32 31  1  0  0  0  0
 33 34  2  0  0  0  0
 34 35  1  0  0  0  0
 35 36  2  0  0  0  0
 36 32  1  0  0  0  0
 36 37  1  0  0  0  0
 37 38  2  0  0  0  0
 38 33  1  0  0  0  0
 39 40  1  0  0  0  0
 40 33  1  0  0  0  0
M  END
>  <Activity>
19.4

>  <minimizedAffinity>
-9.12144

>  <RFScoreVS_v2>
6.23105875581

$$$$
HIPS6920
 OpenBabel05252300073D

 35 38  0  0  0  0  0  0  0  0999 V2000
   68.4916   78.6309   90.7729 C   0  0  0  0  0  0  0  0  0  0  0  0
   69.8492   78.4698   90.4770 C   0  0  0  0  0  0  0  0  0  0  0  0
   70.5932   79.5390   90.0943 N   0  0  0  0  0  0  0  0  0  0  0  0
   70.0483   80.7829   89.9965 C   0  0  0  0  0  0  0  0  0  0  0  0
   68.7312   80.9578   90.2941 N   0  0  0  0  0  0  0  0  0  0  0  0
   67.9495   79.9173   90.6810 C   0  0  0  0  0  0  0  0  0  0  0  0
   70.8815   81.9361   89.5732 C   0  0  0  0  0  0  0  0  0  0  0  0
   72.1519   82.1473   90.1392 C   0  0  0  0  0  0  0  0  0  0  0  0
   72.9328   83.2338   89.7402 C   0  0  0  0  0  0  0  0  0  0  0  0
   72.4611   84.1224   88.7727 C   0  0  0  0  0  0  0  0  0  0  0  0
   71.1955   83.9274   88.1900 C   0  0  0  0  0  0  0  0  0  0  0  0
   70.4149   82.8385   88.5980 C   0  0  0  0  0  0  0  0  0  0  0  0
   70.6732   84.7861   87.2090 O   0  0  0  0  0  0  0  0  0  0  0  0
   69.4373   85.4953   87.3056 C   0  0  0  0  0  0  0  0  0  0  0  0
   69.4458   86.4263   88.4892 C   0  0  0  0  0  0  0  0  0  0  0  0
   70.0354   87.6964   88.3809 C   0  0  0  0  0  0  0  0  0  0  0  0
   70.0391   88.5671   89.4746 C   0  0  0  0  0  0  0  0  0  0  0  0
   69.4482   88.1802   90.6804 C   0  0  0  0  0  0  0  0  0  0  0  0
   68.8481   86.9219   90.7938 C   0  0  0  0  0  0  0  0  0  0  0  0
   68.1025   86.4392   92.3063 Cl  0  0  0  0  0  0  0  0  0  0  0  0
   68.8419   86.0484   89.7003 C   0  0  0  0  0  0  0  0  0  0  0  0
   67.6536   77.4598   91.2104 C   0  0  0  0  0  0  0  0  0  0  0  0
   67.2975   77.5768   92.5885 O   0  0  0  0  0  0  0  0  0  0  0  0
   68.1302   74.5348   94.5378 C   0  0  0  0  0  0  0  0  0  0  0  0
   68.2165   75.6283   93.6576 C   0  0  0  0  0  0  0  0  0  0  0  0
   67.1396   76.5033   93.4805 C   0  0  0  0  0  0  0  0  0  0  0  0
   65.9534   76.2842   94.2004 C   0  0  0  0  0  0  0  0  0  0  0  0
   65.8460   75.1918   95.0613 C   0  0  0  0  0  0  0  0  0  0  0  0
   66.9117   74.3002   95.2228 C   0  0  0  0  0  0  0  0  0  0  0  0
   66.7073   73.1856   96.0393 O   0  0  0  0  0  0  0  0  0  0  0  0
   65.8859   73.0680   96.4745 H   0  0  0  0  0  0  0  0  0  0  0  0
   70.2551   73.6808   93.8735 O   0  0  0  0  0  0  0  0  0  0  0  0
   69.3327   73.6945   94.7317 C   0  0  0  0  0  0  0  0  0  0  0  0
   69.4231   72.8609   95.8434 O   0  0  0  0  0  0  0  0  0  0  0  0
   68.7426   72.8635   96.4875 H   0  0  0  0  0  0  0  0  0  0  0  0
  1  2  2  0  0  0  0
  2  3  2  0  0  0  0
  3  4  2  0  0  0  0
  4  7  1  0  0  0  0
  4  5  2  0  0  0  0
  5  6  2  0  0  0  0
  6  1  1  0  0  0  0
  7  8  2  0  0  0  0
  8  9  1  0  0  0  0
  9 10  2  0  0  0  0
 10 11  1  0  0  0  0
 11 13  1  0  0  0  0
 11 12  2  0  0  0  0
 12  7  1  0  0  0  0
 13 14  1  0  0  0  0
 14 15  1  0  0  0  0
 15 16  2  0  0  0  0
 16 17  1  0  0  0  0
 17 18  2  0  0  0  0
 18 19  1  0  0  0  0
 19 20  1  0  0  0  0
 19 21  2  0  0  0  0
 21 15  1  0  0  0  0
 22  1  1  0  0  0  0
 23 22  1  0  0  0  0
 24 25  2  0  0  0  0
 25 26  1  0  0  0  0
 26 23  1  0  0  0  0
 26 27  2  0  0  0  0
 27 28  1  0  0  0  0
 28 29  2  0  0  0  0
 29 30  1  0  0  0  0
 29 24  1  0  0  0  0
 30 31  1  0  0  0  0
 32 33  2  0  0  0  0
 33 34  1  0  0  0  0
 33 24  1  0  0  0  0
 34 35  1  0  0  0  0
M  END
>  <Activity>
21.3

>  <minimizedAffinity>
-9.34346

>  <RFScoreVS_v2>
5.95671067294

$$$$
HIPS6920
 OpenBabel05252300073D

 35 38  0  0  0  0  0  0  0  0999 V2000
   68.7470   79.7041   90.1571 C   0  0  0  0  0  0  0  0  0  0  0  0
   67.4262   79.2452   90.1938 C   0  0  0  0  0  0  0  0  0  0  0  0
   67.1584   77.9281   90.0017 N   0  0  0  0  0  0  0  0  0  0  0  0
   68.1550   77.0277   89.7786 C   0  0  0  0  0  0  0  0  0  0  0  0
   69.4467   77.4572   89.7533 N   0  0  0  0  0  0  0  0  0  0  0  0
   69.7609   78.7647   89.9405 C   0  0  0  0  0  0  0  0  0  0  0  0
   67.8370   75.5932   89.5685 C   0  0  0  0  0  0  0  0  0  0  0  0
   66.9692   75.1962   88.5349 C   0  0  0  0  0  0  0  0  0  0  0  0
   66.6706   73.8462   88.3407 C   0  0  0  0  0  0  0  0  0  0  0  0
   67.2323   72.8744   89.1702 C   0  0  0  0  0  0  0  0  0  0  0  0
   68.1065   73.2486   90.2070 C   0  0  0  0  0  0  0  0  0  0  0  0
   68.3982   74.6047   90.3999 C   0  0  0  0  0  0  0  0  0  0  0  0
   68.7042   72.3136   91.0679 O   0  0  0  0  0  0  0  0  0  0  0  0
   68.1414   71.8407   92.2923 C   0  0  0  0  0  0  0  0  0  0  0  0
   68.1744   72.9154   93.3466 C   0  0  0  0  0  0  0  0  0  0  0  0
   69.3948   73.2877   93.9337 C   0  0  0  0  0  0  0  0  0  0  0  0
   69.4316   74.2901   94.9074 C   0  0  0  0  0  0  0  0  0  0  0  0
   68.2533   74.9331   95.2962 C   0  0  0  0  0  0  0  0  0  0  0  0
   67.0351   74.5773   94.7084 C   0  0  0  0  0  0  0  0  0  0  0  0
   65.5574   75.3883   95.1937 Cl  0  0  0  0  0  0  0  0  0  0  0  0
   66.9952   73.5748   93.7326 C   0  0  0  0  0  0  0  0  0  0  0  0
   69.0645   81.1583   90.3798 C   0  0  0  0  0  0  0  0  0  0  0  0
   70.4602   81.4060   90.2055 O   0  0  0  0  0  0  0  0  0  0  0  0
   70.6879   84.3798   88.0029 C   0  0  0  0  0  0  0  0  0  0  0  0
   70.2024   83.2453   88.6776 C   0  0  0  0  0  0  0  0  0  0  0  0
   71.0122   82.5265   89.5630 C   0  0  0  0  0  0  0  0  0  0  0  0
   72.3331   82.9516   89.7824 C   0  0  0  0  0  0  0  0  0  0  0  0
   72.8349   84.0627   89.1044 C   0  0  0  0  0  0  0  0  0  0  0  0
   72.0363   84.7699   88.1995 C   0  0  0  0  0  0  0  0  0  0  0  0
   72.6274   85.8230   87.4978 O   0  0  0  0  0  0  0  0  0  0  0  0
   73.5226   86.0488   87.6580 H   0  0  0  0  0  0  0  0  0  0  0  0
   68.6198   85.4826   87.5643 O   0  0  0  0  0  0  0  0  0  0  0  0
   69.7535   85.1347   87.1388 C   0  0  0  0  0  0  0  0  0  0  0  0
   70.1016   85.4128   85.8196 O   0  0  0  0  0  0  0  0  0  0  0  0
   70.9422   85.1584   85.4932 H   0  0  0  0  0  0  0  0  0  0  0  0
  1  2  2  0  0  0  0
  2  3  2  0  0  0  0
  3  4  2  0  0  0  0
  4  7  1  0  0  0  0
  4  5  2  0  0  0  0
  5  6  2  0  0  0  0
  6  1  1  0  0  0  0
  7  8  2  0  0  0  0
  8  9  1  0  0  0  0
  9 10  2  0  0  0  0
 10 11  1  0  0  0  0
 11 13  1  0  0  0  0
 11 12  2  0  0  0  0
 12  7  1  0  0  0  0
 13 14  1  0  0  0  0
 14 15  1  0  0  0  0
 15 16  2  0  0  0  0
 16 17  1  0  0  0  0
 17 18  2  0  0  0  0
 18 19  1  0  0  0  0
 19 20  1  0  0  0  0
 19 21  2  0  0  0  0
 21 15  1  0  0  0  0
 22  1  1  0  0  0  0
 23 22  1  0  0  0  0
 24 25  2  0  0  0  0
 25 26  1  0  0  0  0
 26 23  1  0  0  0  0
 26 27  2  0  0  0  0
 27 28  1  0  0  0  0
 28 29  2  0  0  0  0
 29 30  1  0  0  0  0
 29 24  1  0  0  0  0
 30 31  1  0  0  0  0
 32 33  2  0  0  0  0
 33 34  1  0  0  0  0
 33 24  1  0  0  0  0
 34 35  1  0  0  0  0
M  END
>  <Activity>
21.3

>  <minimizedAffinity>
-9.05515

>  <RFScoreVS_v2>
5.96167310926

$$$$
HIPS6920
 OpenBabel05252300073D

 35 38  0  0  0  0  0  0  0  0999 V2000
   67.0762   79.3836   88.2084 C   0  0  0  0  0  0  0  0  0  0  0  0
   67.2088   79.0874   89.5690 C   0  0  0  0  0  0  0  0  0  0  0  0
   67.4261   77.8081   89.9684 N   0  0  0  0  0  0  0  0  0  0  0  0
   67.5275   76.7922   89.0676 C   0  0  0  0  0  0  0  0  0  0  0  0
   67.4139   77.0669   87.7389 N   0  0  0  0  0  0  0  0  0  0  0  0
   67.1965   78.3313   87.2944 C   0  0  0  0  0  0  0  0  0  0  0  0
   67.7625   75.4011   89.5288 C   0  0  0  0  0  0  0  0  0  0  0  0
   67.1082   74.3212   88.9086 C   0  0  0  0  0  0  0  0  0  0  0  0
   67.3300   73.0138   89.3456 C   0  0  0  0  0  0  0  0  0  0  0  0
   68.2060   72.7639   90.4030 C   0  0  0  0  0  0  0  0  0  0  0  0
   68.8747   73.8284   91.0344 C   0  0  0  0  0  0  0  0  0  0  0  0
   68.6443   75.1381   90.5948 C   0  0  0  0  0  0  0  0  0  0  0  0
   69.7705   73.6352   92.0988 O   0  0  0  0  0  0  0  0  0  0  0  0
   69.4240   73.6570   93.4841 C   0  0  0  0  0  0  0  0  0  0  0  0
   68.1503   74.4295   93.7048 C   0  0  0  0  0  0  0  0  0  0  0  0
   66.9775   73.7579   94.0867 C   0  0  0  0  0  0  0  0  0  0  0  0
   65.7945   74.4716   94.3001 C   0  0  0  0  0  0  0  0  0  0  0  0
   65.7753   75.8599   94.1419 C   0  0  0  0  0  0  0  0  0  0  0  0
   66.9414   76.5386   93.7736 C   0  0  0  0  0  0  0  0  0  0  0  0
   66.9174   78.2817   93.5800 Cl  0  0  0  0  0  0  0  0  0  0  0  0
   68.1276   75.8269   93.5602 C   0  0  0  0  0  0  0  0  0  0  0  0
   66.8470   80.7973   87.7458 C   0  0  0  0  0  0  0  0  0  0  0  0
   67.4917   81.7275   88.6170 O   0  0  0  0  0  0  0  0  0  0  0  0
   70.9935   82.8469   89.0978 C   0  0  0  0  0  0  0  0  0  0  0  0
   69.7430   82.2340   89.2944 C   0  0  0  0  0  0  0  0  0  0  0  0
   68.7132   82.3707   88.3578 C   0  0  0  0  0  0  0  0  0  0  0  0
   68.9380   83.1318   87.1986 C   0  0  0  0  0  0  0  0  0  0  0  0
   70.1662   83.7628   87.0002 C   0  0  0  0  0  0  0  0  0  0  0  0
   71.1905   83.6491   87.9459 C   0  0  0  0  0  0  0  0  0  0  0  0
   72.3649   84.3709   87.7207 O   0  0  0  0  0  0  0  0  0  0  0  0
   72.4546   84.8895   86.9455 H   0  0  0  0  0  0  0  0  0  0  0  0
   71.7888   82.1022   91.2187 O   0  0  0  0  0  0  0  0  0  0  0  0
   72.0601   82.5984   90.0928 C   0  0  0  0  0  0  0  0  0  0  0  0
   73.3714   82.9722   89.8104 O   0  0  0  0  0  0  0  0  0  0  0  0
   73.5837   83.3421   88.9761 H   0  0  0  0  0  0  0  0  0  0  0  0
  1  2  2  0  0  0  0
  2  3  2  0  0  0  0
  3  4  2  0  0  0  0
  4  7  1  0  0  0  0
  4  5  2  0  0  0  0
  5  6  2  0  0  0  0
  6  1  1  0  0  0  0
  7  8  2  0  0  0  0
  8  9  1  0  0  0  0
  9 10  2  0  0  0  0
 10 11  1  0  0  0  0
 11 13  1  0  0  0  0
 11 12  2  0  0  0  0
 12  7  1  0  0  0  0
 13 14  1  0  0  0  0
 14 15  1  0  0  0  0
 15 16  2  0  0  0  0
 16 17  1  0  0  0  0
 17 18  2  0  0  0  0
 18 19  1  0  0  0  0
 19 20  1  0  0  0  0
 19 21  2  0  0  0  0
 21 15  1  0  0  0  0
 22  1  1  0  0  0  0
 23 22  1  0  0  0  0
 24 25  2  0  0  0  0
 25 26  1  0  0  0  0
 26 23  1  0  0  0  0
 26 27  2  0  0  0  0
 27 28  1  0  0  0  0
 28 29  2  0  0  0  0
 29 30  1  0  0  0  0
 29 24  1  0  0  0  0
 30 31  1  0  0  0  0
 32 33  2  0  0  0  0
 33 34  1  0  0  0  0
 33 24  1  0  0  0  0
 34 35  1  0  0  0  0
M  END
>  <Activity>
21.3

>  <minimizedAffinity>
-8.96528

>  <RFScoreVS_v2>
5.95784442398

$$$$
HIPS6920
 OpenBabel05252300073D

 35 38  0  0  0  0  0  0  0  0999 V2000
   68.3119   78.9174   90.5905 C   0  0  0  0  0  0  0  0  0  0  0  0
   69.6866   78.7128   90.4321 C   0  0  0  0  0  0  0  0  0  0  0  0
   70.4911   79.7464   90.0747 N   0  0  0  0  0  0  0  0  0  0  0  0
   69.9906   80.9961   89.8707 C   0  0  0  0  0  0  0  0  0  0  0  0
   68.6565   81.2136   90.0340 N   0  0  0  0  0  0  0  0  0  0  0  0
   67.8149   80.2097   90.3908 C   0  0  0  0  0  0  0  0  0  0  0  0
   70.8899   82.1096   89.4777 C   0  0  0  0  0  0  0  0  0  0  0  0
   72.1454   82.2668   90.0924 C   0  0  0  0  0  0  0  0  0  0  0  0
   72.9885   83.3163   89.7218 C   0  0  0  0  0  0  0  0  0  0  0  0
   72.5946   84.2209   88.7346 C   0  0  0  0  0  0  0  0  0  0  0  0
   71.3454   84.0797   88.1034 C   0  0  0  0  0  0  0  0  0  0  0  0
   70.5021   83.0279   88.4830 C   0  0  0  0  0  0  0  0  0  0  0  0
   70.9001   84.9567   87.1008 O   0  0  0  0  0  0  0  0  0  0  0  0
   69.6806   85.6993   87.1351 C   0  0  0  0  0  0  0  0  0  0  0  0
   69.6018   86.5411   88.3812 C   0  0  0  0  0  0  0  0  0  0  0  0
   70.2099   87.8067   88.4148 C   0  0  0  0  0  0  0  0  0  0  0  0
   70.1331   88.5950   89.5667 C   0  0  0  0  0  0  0  0  0  0  0  0
   69.4430   88.1302   90.6894 C   0  0  0  0  0  0  0  0  0  0  0  0
   68.8241   86.8762   90.6609 C   0  0  0  0  0  0  0  0  0  0  0  0
   67.9539   86.2957   92.0689 Cl  0  0  0  0  0  0  0  0  0  0  0  0
   68.8984   86.0850   89.5087 C   0  0  0  0  0  0  0  0  0  0  0  0
   67.4061   77.7866   90.9979 C   0  0  0  0  0  0  0  0  0  0  0  0
   67.4243   76.7442   90.0218 O   0  0  0  0  0  0  0  0  0  0  0  0
   69.0992   73.8617   91.6444 C   0  0  0  0  0  0  0  0  0  0  0  0
   68.6629   75.1654   91.3473 C   0  0  0  0  0  0  0  0  0  0  0  0
   67.8244   75.4185   90.2567 C   0  0  0  0  0  0  0  0  0  0  0  0
   67.4095   74.3471   89.4484 C   0  0  0  0  0  0  0  0  0  0  0  0
   67.8511   73.0516   89.7185 C   0  0  0  0  0  0  0  0  0  0  0  0
   68.7094   72.7974   90.7933 C   0  0  0  0  0  0  0  0  0  0  0  0
   69.1743   71.4906   90.9575 O   0  0  0  0  0  0  0  0  0  0  0  0
   68.8916   70.8157   90.3722 H   0  0  0  0  0  0  0  0  0  0  0  0
   69.9227   74.5063   93.7873 O   0  0  0  0  0  0  0  0  0  0  0  0
   69.9236   73.6575   92.8561 C   0  0  0  0  0  0  0  0  0  0  0  0
   70.7588   72.5471   92.9464 O   0  0  0  0  0  0  0  0  0  0  0  0
   70.7671   71.9100   92.2594 H   0  0  0  0  0  0  0  0  0  0  0  0
  1  2  2  0  0  0  0
  2  3  2  0  0  0  0
  3  4  2  0  0  0  0
  4  7  1  0  0  0  0
  4  5  2  0  0  0  0
  5  6  2  0  0  0  0
  6  1  1  0  0  0  0
  7  8  2  0  0  0  0
  8  9  1  0  0  0  0
  9 10  2  0  0  0  0
 10 11  1  0  0  0  0
 11 13  1  0  0  0  0
 11 12  2  0  0  0  0
 12  7  1  0  0  0  0
 13 14  1  0  0  0  0
 14 15  1  0  0  0  0
 15 16  2  0  0  0  0
 16 17  1  0  0  0  0
 17 18  2  0  0  0  0
 18 19  1  0  0  0  0
 19 20  1  0  0  0  0
 19 21  2  0  0  0  0
 21 15  1  0  0  0  0
 22  1  1  0  0  0  0
 23 22  1  0  0  0  0
 24 25  2  0  0  0  0
 25 26  1  0  0  0  0
 26 23  1  0  0  0  0
 26 27  2  0  0  0  0
 27 28  1  0  0  0  0
 28 29  2  0  0  0  0
 29 30  1  0  0  0  0
 29 24  1  0  0  0  0
 30 31  1  0  0  0  0
 32 33  2  0  0  0  0
 33 34  1  0  0  0  0
 33 24  1  0  0  0  0
 34 35  1  0  0  0  0
M  END
>  <Activity>
21.3

>  <minimizedAffinity>
-8.95975

>  <RFScoreVS_v2>
5.96295945541

$$$$
HIPS6920
 OpenBabel05252300073D

 35 38  0  0  0  0  0  0  0  0999 V2000
   67.6088   74.2778   89.7119 C   0  0  0  0  0  0  0  0  0  0  0  0
   66.9144   74.7430   88.5903 C   0  0  0  0  0  0  0  0  0  0  0  0
   66.8820   76.0718   88.3136 N   0  0  0  0  0  0  0  0  0  0  0  0
   67.5224   76.9761   89.1047 C   0  0  0  0  0  0  0  0  0  0  0  0
   68.2137   76.5371   90.1924 N   0  0  0  0  0  0  0  0  0  0  0  0
   68.2731   75.2176   90.5071 C   0  0  0  0  0  0  0  0  0  0  0  0
   67.4702   78.4242   88.7831 C   0  0  0  0  0  0  0  0  0  0  0  0
   66.6701   78.8943   87.7258 C   0  0  0  0  0  0  0  0  0  0  0  0
   66.6243   80.2569   87.4246 C   0  0  0  0  0  0  0  0  0  0  0  0
   67.3716   81.1686   88.1717 C   0  0  0  0  0  0  0  0  0  0  0  0
   68.1748   80.7210   89.2364 C   0  0  0  0  0  0  0  0  0  0  0  0
   68.2204   79.3524   89.5305 C   0  0  0  0  0  0  0  0  0  0  0  0
   68.9429   81.5937   90.0245 O   0  0  0  0  0  0  0  0  0  0  0  0
   70.3466   81.4751   90.2594 C   0  0  0  0  0  0  0  0  0  0  0  0
   71.1066   82.5337   89.5049 C   0  0  0  0  0  0  0  0  0  0  0  0
   72.4312   82.8368   89.8603 C   0  0  0  0  0  0  0  0  0  0  0  0
   73.1433   83.8135   89.1580 C   0  0  0  0  0  0  0  0  0  0  0  0
   72.5424   84.4884   88.0921 C   0  0  0  0  0  0  0  0  0  0  0  0
   71.2278   84.1847   87.7233 C   0  0  0  0  0  0  0  0  0  0  0  0
   70.4761   85.0290   86.3822 Cl  0  0  0  0  0  0  0  0  0  0  0  0
   70.5126   83.2067   88.4239 C   0  0  0  0  0  0  0  0  0  0  0  0
   67.6661   72.8074   90.0281 C   0  0  0  0  0  0  0  0  0  0  0  0
   69.0070   72.3984   90.3008 O   0  0  0  0  0  0  0  0  0  0  0  0
   69.8782   72.2274   93.9006 C   0  0  0  0  0  0  0  0  0  0  0  0
   69.4410   72.6937   92.6478 C   0  0  0  0  0  0  0  0  0  0  0  0
   69.4625   71.8679   91.5190 C   0  0  0  0  0  0  0  0  0  0  0  0
   69.9262   70.5478   91.6446 C   0  0  0  0  0  0  0  0  0  0  0  0
   70.3826   70.0781   92.8763 C   0  0  0  0  0  0  0  0  0  0  0  0
   70.3860   70.9080   94.0023 C   0  0  0  0  0  0  0  0  0  0  0  0
   70.9296   70.3974   95.1832 O   0  0  0  0  0  0  0  0  0  0  0  0
   71.2546   69.5189   95.2079 H   0  0  0  0  0  0  0  0  0  0  0  0
   69.4697   72.6788   96.2060 O   0  0  0  0  0  0  0  0  0  0  0  0
   69.7576   73.1313   95.0659 C   0  0  0  0  0  0  0  0  0  0  0  0
   69.9022   74.5055   94.8943 O   0  0  0  0  0  0  0  0  0  0  0  0
   70.1162   74.8523   94.0506 H   0  0  0  0  0  0  0  0  0  0  0  0
  1  2  2  0  0  0  0
  2  3  2  0  0  0  0
  3  4  2  0  0  0  0
  4  7  1  0  0  0  0
  4  5  2  0  0  0  0
  5  6  2  0  0  0  0
  6  1  1  0  0  0  0
  7  8  2  0  0  0  0
  8  9  1  0  0  0  0
  9 10  2  0  0  0  0
 10 11  1  0  0  0  0
 11 13  1  0  0  0  0
 11 12  2  0  0  0  0
 12  7  1  0  0  0  0
 13 14  1  0  0  0  0
 14 15  1  0  0  0  0
 15 16  2  0  0  0  0
 16 17  1  0  0  0  0
 17 18  2  0  0  0  0
 18 19  1  0  0  0  0
 19 20  1  0  0  0  0
 19 21  2  0  0  0  0
 21 15  1  0  0  0  0
 22  1  1  0  0  0  0
 23 22  1  0  0  0  0
 24 25  2  0  0  0  0
 25 26  1  0  0  0  0
 26 23  1  0  0  0  0
 26 27  2  0  0  0  0
 27 28  1  0  0  0  0
 28 29  2  0  0  0  0
 29 30  1  0  0  0  0
 29 24  1  0  0  0  0
 30 31  1  0  0  0  0
 32 33  2  0  0  0  0
 33 34  1  0  0  0  0
 33 24  1  0  0  0  0
 34 35  1  0  0  0  0
M  END
>  <Activity>
21.3

>  <minimizedAffinity>
-8.87254

>  <RFScoreVS_v2>
5.95570956975

$$$$
HIPS6920
 OpenBabel05252300073D

 35 38  0  0  0  0  0  0  0  0999 V2000
   68.2653   79.5505   90.5598 C   0  0  0  0  0  0  0  0  0  0  0  0
   69.4464   78.8696   90.2467 C   0  0  0  0  0  0  0  0  0  0  0  0
   69.4728   77.5123   90.2604 N   0  0  0  0  0  0  0  0  0  0  0  0
   68.3634   76.7851   90.5673 C   0  0  0  0  0  0  0  0  0  0  0  0
   67.2028   77.4335   90.8613 N   0  0  0  0  0  0  0  0  0  0  0  0
   67.1304   78.7893   90.8596 C   0  0  0  0  0  0  0  0  0  0  0  0
   68.4177   75.3018   90.5784 C   0  0  0  0  0  0  0  0  0  0  0  0
   69.2802   74.6236   91.4589 C   0  0  0  0  0  0  0  0  0  0  0  0
   69.3303   73.2283   91.4659 C   0  0  0  0  0  0  0  0  0  0  0  0
   68.5227   72.4904   90.5992 C   0  0  0  0  0  0  0  0  0  0  0  0
   67.6493   73.1479   89.7138 C   0  0  0  0  0  0  0  0  0  0  0  0
   67.6071   74.5478   89.7080 C   0  0  0  0  0  0  0  0  0  0  0  0
   66.8107   72.4564   88.8243 O   0  0  0  0  0  0  0  0  0  0  0  0
   66.6048   72.7942   87.4520 C   0  0  0  0  0  0  0  0  0  0  0  0
   66.9164   71.6217   86.5599 C   0  0  0  0  0  0  0  0  0  0  0  0
   67.8073   70.6258   86.9925 C   0  0  0  0  0  0  0  0  0  0  0  0
   68.0939   69.5316   86.1710 C   0  0  0  0  0  0  0  0  0  0  0  0
   67.4883   69.4193   84.9167 C   0  0  0  0  0  0  0  0  0  0  0  0
   66.5905   70.3999   84.4825 C   0  0  0  0  0  0  0  0  0  0  0  0
   65.8271   70.2555   82.9100 Cl  0  0  0  0  0  0  0  0  0  0  0  0
   66.3008   71.4961   85.3031 C   0  0  0  0  0  0  0  0  0  0  0  0
   68.2135   81.0545   90.5381 C   0  0  0  0  0  0  0  0  0  0  0  0
   69.4685   81.6116   90.9309 O   0  0  0  0  0  0  0  0  0  0  0  0
   70.4471   83.9503   88.2254 C   0  0  0  0  0  0  0  0  0  0  0  0
   69.6896   83.1197   89.0706 C   0  0  0  0  0  0  0  0  0  0  0  0
   70.2866   82.4195   90.1241 C   0  0  0  0  0  0  0  0  0  0  0  0
   71.6680   82.5546   90.3407 C   0  0  0  0  0  0  0  0  0  0  0  0
   72.4356   83.3584   89.4977 C   0  0  0  0  0  0  0  0  0  0  0  0
   71.8470   84.0410   88.4280 C   0  0  0  0  0  0  0  0  0  0  0  0
   72.6873   84.7639   87.5782 O   0  0  0  0  0  0  0  0  0  0  0  0
   73.6082   84.7984   87.7481 H   0  0  0  0  0  0  0  0  0  0  0  0
   70.3506   85.1404   86.1614 O   0  0  0  0  0  0  0  0  0  0  0  0
   69.7378   84.7185   87.1783 C   0  0  0  0  0  0  0  0  0  0  0  0
   68.3918   85.0344   87.3432 O   0  0  0  0  0  0  0  0  0  0  0  0
   67.9269   84.7256   88.0958 H   0  0  0  0  0  0  0  0  0  0  0  0
  1  2  2  0  0  0  0
  2  3  2  0  0  0  0
  3  4  2  0  0  0  0
  4  7  1  0  0  0  0
  4  5  2  0  0  0  0
  5  6  2  0  0  0  0
  6  1  1  0  0  0  0
  7  8  2  0  0  0  0
  8  9  1  0  0  0  0
  9 10  2  0  0  0  0
 10 11  1  0  0  0  0
 11 13  1  0  0  0  0
 11 12  2  0  0  0  0
 12  7  1  0  0  0  0
 13 14  1  0  0  0  0
 14 15  1  0  0  0  0
 15 16  2  0  0  0  0
 16 17  1  0  0  0  0
 17 18  2  0  0  0  0
 18 19  1  0  0  0  0
 19 20  1  0  0  0  0
 19 21  2  0  0  0  0
 21 15  1  0  0  0  0
 22  1  1  0  0  0  0
 23 22  1  0  0  0  0
 24 25  2  0  0  0  0
 25 26  1  0  0  0  0
 26 23  1  0  0  0  0
 26 27  2  0  0  0  0
 27 28  1  0  0  0  0
 28 29  2  0  0  0  0
 29 30  1  0  0  0  0
 29 24  1  0  0  0  0
 30 31  1  0  0  0  0
 32 33  2  0  0  0  0
 33 34  1  0  0  0  0
 33 24  1  0  0  0  0
 34 35  1  0  0  0  0
M  END
>  <Activity>
21.3

>  <minimizedAffinity>
-8.83640

>  <RFScoreVS_v2>
5.97543952405

$$$$
HIPS6920
 OpenBabel05252300073D

 35 38  0  0  0  0  0  0  0  0999 V2000
   67.4990   79.5959   88.3999 C   0  0  0  0  0  0  0  0  0  0  0  0
   66.8321   78.8022   87.4608 C   0  0  0  0  0  0  0  0  0  0  0  0
   66.7852   77.4548   87.6201 N   0  0  0  0  0  0  0  0  0  0  0  0
   67.3713   76.8468   88.6881 C   0  0  0  0  0  0  0  0  0  0  0  0
   68.0127   77.6073   89.6176 N   0  0  0  0  0  0  0  0  0  0  0  0
   68.0843   78.9579   89.4987 C   0  0  0  0  0  0  0  0  0  0  0  0
   67.3090   75.3715   88.8391 C   0  0  0  0  0  0  0  0  0  0  0  0
   66.6590   74.5800   87.8747 C   0  0  0  0  0  0  0  0  0  0  0  0
   66.6006   73.1926   88.0203 C   0  0  0  0  0  0  0  0  0  0  0  0
   67.1890   72.5751   89.1250 C   0  0  0  0  0  0  0  0  0  0  0  0
   67.8484   73.3469   90.0990 C   0  0  0  0  0  0  0  0  0  0  0  0
   67.8994   74.7385   89.9499 C   0  0  0  0  0  0  0  0  0  0  0  0
   68.4623   72.7788   91.2273 O   0  0  0  0  0  0  0  0  0  0  0  0
   67.7754   72.2325   92.3539 C   0  0  0  0  0  0  0  0  0  0  0  0
   67.5081   73.2970   93.3851 C   0  0  0  0  0  0  0  0  0  0  0  0
   66.2459   73.3844   93.9950 C   0  0  0  0  0  0  0  0  0  0  0  0
   65.9953   74.3660   94.9582 C   0  0  0  0  0  0  0  0  0  0  0  0
   67.0034   75.2615   95.3252 C   0  0  0  0  0  0  0  0  0  0  0  0
   68.2670   75.1742   94.7320 C   0  0  0  0  0  0  0  0  0  0  0  0
   69.5332   76.2955   95.1969 Cl  0  0  0  0  0  0  0  0  0  0  0  0
   68.5213   74.1919   93.7680 C   0  0  0  0  0  0  0  0  0  0  0  0
   67.5513   81.0922   88.2466 C   0  0  0  0  0  0  0  0  0  0  0  0
   68.1815   81.6968   89.3767 O   0  0  0  0  0  0  0  0  0  0  0  0
   71.0471   83.8640   88.4611 C   0  0  0  0  0  0  0  0  0  0  0  0
   69.7713   83.2733   88.4986 C   0  0  0  0  0  0  0  0  0  0  0  0
   69.4780   82.2370   89.3911 C   0  0  0  0  0  0  0  0  0  0  0  0
   70.4782   81.7837   90.2671 C   0  0  0  0  0  0  0  0  0  0  0  0
   71.7544   82.3458   90.2269 C   0  0  0  0  0  0  0  0  0  0  0  0
   72.0592   83.3654   89.3191 C   0  0  0  0  0  0  0  0  0  0  0  0
   73.3769   83.8268   89.2798 O   0  0  0  0  0  0  0  0  0  0  0  0
   74.0158   83.4702   89.8651 H   0  0  0  0  0  0  0  0  0  0  0  0
   70.5662   85.1387   86.5042 O   0  0  0  0  0  0  0  0  0  0  0  0
   71.2647   85.0049   87.5442 C   0  0  0  0  0  0  0  0  0  0  0  0
   72.2924   85.9098   87.7965 O   0  0  0  0  0  0  0  0  0  0  0  0
   72.8178   85.8192   88.5671 H   0  0  0  0  0  0  0  0  0  0  0  0
  1  2  2  0  0  0  0
  2  3  2  0  0  0  0
  3  4  2  0  0  0  0
  4  7  1  0  0  0  0
  4  5  2  0  0  0  0
  5  6  2  0  0  0  0
  6  1  1  0  0  0  0
  7  8  2  0  0  0  0
  8  9  1  0  0  0  0
  9 10  2  0  0  0  0
 10 11  1  0  0  0  0
 11 13  1  0  0  0  0
 11 12  2  0  0  0  0
 12  7  1  0  0  0  0
 13 14  1  0  0  0  0
 14 15  1  0  0  0  0
 15 16  2  0  0  0  0
 16 17  1  0  0  0  0
 17 18  2  0  0  0  0
 18 19  1  0  0  0  0
 19 20  1  0  0  0  0
 19 21  2  0  0  0  0
 21 15  1  0  0  0  0
 22  1  1  0  0  0  0
 23 22  1  0  0  0  0
 24 25  2  0  0  0  0
 25 26  1  0  0  0  0
 26 23  1  0  0  0  0
 26 27  2  0  0  0  0
 27 28  1  0  0  0  0
 28 29  2  0  0  0  0
 29 30  1  0  0  0  0
 29 24  1  0  0  0  0
 30 31  1  0  0  0  0
 32 33  2  0  0  0  0
 33 34  1  0  0  0  0
 33 24  1  0  0  0  0
 34 35  1  0  0  0  0
M  END
>  <Activity>
21.3

>  <minimizedAffinity>
-8.81979

>  <RFScoreVS_v2>
5.96204694933

$$$$
HIPS6920
 OpenBabel05252300073D

 35 38  0  0  0  0  0  0  0  0999 V2000
   68.7112   79.3639   90.3950 C   0  0  0  0  0  0  0  0  0  0  0  0
   69.9223   78.6683   90.3175 C   0  0  0  0  0  0  0  0  0  0  0  0
   69.9407   77.3178   90.4553 N   0  0  0  0  0  0  0  0  0  0  0  0
   68.7955   76.6110   90.6621 C   0  0  0  0  0  0  0  0  0  0  0  0
   67.6074   77.2728   90.7266 N   0  0  0  0  0  0  0  0  0  0  0  0
   67.5417   78.6225   90.5942 C   0  0  0  0  0  0  0  0  0  0  0  0
   68.8414   75.1351   90.8126 C   0  0  0  0  0  0  0  0  0  0  0  0
   67.9949   74.3110   90.0489 C   0  0  0  0  0  0  0  0  0  0  0  0
   68.0391   72.9230   90.1938 C   0  0  0  0  0  0  0  0  0  0  0  0
   68.9264   72.3374   91.0980 C   0  0  0  0  0  0  0  0  0  0  0  0
   69.7854   73.1422   91.8684 C   0  0  0  0  0  0  0  0  0  0  0  0
   69.7328   74.5341   91.7221 C   0  0  0  0  0  0  0  0  0  0  0  0
   70.7013   72.6071   92.7890 O   0  0  0  0  0  0  0  0  0  0  0  0
   70.6655   71.2789   93.3124 C   0  0  0  0  0  0  0  0  0  0  0  0
   71.7708   70.4422   92.7242 C   0  0  0  0  0  0  0  0  0  0  0  0
   71.4692   69.4234   91.8057 C   0  0  0  0  0  0  0  0  0  0  0  0
   72.4924   68.6490   91.2511 C   0  0  0  0  0  0  0  0  0  0  0  0
   73.8232   68.8904   91.6027 C   0  0  0  0  0  0  0  0  0  0  0  0
   74.1340   69.9107   92.5075 C   0  0  0  0  0  0  0  0  0  0  0  0
   75.8051   70.2162   92.9444 Cl  0  0  0  0  0  0  0  0  0  0  0  0
   73.1118   70.6884   93.0636 C   0  0  0  0  0  0  0  0  0  0  0  0
   68.6694   80.8596   90.2326 C   0  0  0  0  0  0  0  0  0  0  0  0
   68.2790   81.2157   88.9058 O   0  0  0  0  0  0  0  0  0  0  0  0
   70.4358   84.0407   87.8500 C   0  0  0  0  0  0  0  0  0  0  0  0
   69.9583   82.8891   88.5011 C   0  0  0  0  0  0  0  0  0  0  0  0
   68.6894   82.3714   88.2210 C   0  0  0  0  0  0  0  0  0  0  0  0
   67.8820   83.0146   87.2681 C   0  0  0  0  0  0  0  0  0  0  0  0
   68.3340   84.1697   86.6297 C   0  0  0  0  0  0  0  0  0  0  0  0
   69.5922   84.7049   86.9246 C   0  0  0  0  0  0  0  0  0  0  0  0
   69.9476   85.9060   86.3067 O   0  0  0  0  0  0  0  0  0  0  0  0
   69.3603   86.3127   85.7003 H   0  0  0  0  0  0  0  0  0  0  0  0
   72.6434   83.7136   88.6896 O   0  0  0  0  0  0  0  0  0  0  0  0
   71.8157   84.4889   88.1407 C   0  0  0  0  0  0  0  0  0  0  0  0
   72.1907   85.8008   87.8627 O   0  0  0  0  0  0  0  0  0  0  0  0
   71.5827   86.3854   87.4547 H   0  0  0  0  0  0  0  0  0  0  0  0
  1  2  2  0  0  0  0
  2  3  2  0  0  0  0
  3  4  2  0  0  0  0
  4  7  1  0  0  0  0
  4  5  2  0  0  0  0
  5  6  2  0  0  0  0
  6  1  1  0  0  0  0
  7  8  2  0  0  0  0
  8  9  1  0  0  0  0
  9 10  2  0  0  0  0
 10 11  1  0  0  0  0
 11 13  1  0  0  0  0
 11 12  2  0  0  0  0
 12  7  1  0  0  0  0
 13 14  1  0  0  0  0
 14 15  1  0  0  0  0
 15 16  2  0  0  0  0
 16 17  1  0  0  0  0
 17 18  2  0  0  0  0
 18 19  1  0  0  0  0
 19 20  1  0  0  0  0
 19 21  2  0  0  0  0
 21 15  1  0  0  0  0
 22  1  1  0  0  0  0
 23 22  1  0  0  0  0
 24 25  2  0  0  0  0
 25 26  1  0  0  0  0
 26 23  1  0  0  0  0
 26 27  2  0  0  0  0
 27 28  1  0  0  0  0
 28 29  2  0  0  0  0
 29 30  1  0  0  0  0
 29 24  1  0  0  0  0
 30 31  1  0  0  0  0
 32 33  2  0  0  0  0
 33 34  1  0  0  0  0
 33 24  1  0  0  0  0
 34 35  1  0  0  0  0
M  END
>  <Activity>
21.3

>  <minimizedAffinity>
-8.68104

>  <RFScoreVS_v2>
5.97198387081

$$$$
HIPS6920
 OpenBabel05252300073D

 35 38  0  0  0  0  0  0  0  0999 V2000
   67.4191   79.4753   89.5678 C   0  0  0  0  0  0  0  0  0  0  0  0
   68.5147   78.7028   89.9673 C   0  0  0  0  0  0  0  0  0  0  0  0
   68.4722   77.3508   89.8502 N   0  0  0  0  0  0  0  0  0  0  0  0
   67.3800   76.7178   89.3402 C   0  0  0  0  0  0  0  0  0  0  0  0
   66.3111   77.4572   88.9347 N   0  0  0  0  0  0  0  0  0  0  0  0
   66.3098   78.8114   89.0332 C   0  0  0  0  0  0  0  0  0  0  0  0
   67.3561   75.2382   89.2247 C   0  0  0  0  0  0  0  0  0  0  0  0
   66.7013   74.6148   88.1469 C   0  0  0  0  0  0  0  0  0  0  0  0
   66.6790   73.2227   88.0418 C   0  0  0  0  0  0  0  0  0  0  0  0
   67.3088   72.4337   89.0055 C   0  0  0  0  0  0  0  0  0  0  0  0
   67.9737   73.0362   90.0890 C   0  0  0  0  0  0  0  0  0  0  0  0
   67.9883   74.4329   90.1916 C   0  0  0  0  0  0  0  0  0  0  0  0
   68.6283   72.2921   91.0842 O   0  0  0  0  0  0  0  0  0  0  0  0
   68.0494   71.8820   92.3237 C   0  0  0  0  0  0  0  0  0  0  0  0
   68.1255   72.9890   93.3419 C   0  0  0  0  0  0  0  0  0  0  0  0
   69.3750   73.4471   93.7909 C   0  0  0  0  0  0  0  0  0  0  0  0
   69.4509   74.4795   94.7303 C   0  0  0  0  0  0  0  0  0  0  0  0
   68.2822   75.0671   95.2220 C   0  0  0  0  0  0  0  0  0  0  0  0
   67.0338   74.6256   94.7716 C   0  0  0  0  0  0  0  0  0  0  0  0
   65.5676   75.3670   95.3857 Cl  0  0  0  0  0  0  0  0  0  0  0  0
   66.9546   73.5927   93.8303 C   0  0  0  0  0  0  0  0  0  0  0  0
   67.4523   80.9759   89.6788 C   0  0  0  0  0  0  0  0  0  0  0  0
   68.7784   81.4701   89.4864 O   0  0  0  0  0  0  0  0  0  0  0  0
   70.8307   84.1217   87.9040 C   0  0  0  0  0  0  0  0  0  0  0  0
   70.3998   83.0895   88.7566 C   0  0  0  0  0  0  0  0  0  0  0  0
   69.1413   82.4989   88.6016 C   0  0  0  0  0  0  0  0  0  0  0  0
   68.2971   82.9455   87.5714 C   0  0  0  0  0  0  0  0  0  0  0  0
   68.7026   83.9827   86.7314 C   0  0  0  0  0  0  0  0  0  0  0  0
   69.9501   84.5929   86.8982 C   0  0  0  0  0  0  0  0  0  0  0  0
   70.2581   85.6767   86.0726 O   0  0  0  0  0  0  0  0  0  0  0  0
   69.6475   85.9564   85.4194 H   0  0  0  0  0  0  0  0  0  0  0  0
   73.0987   83.9470   88.6189 O   0  0  0  0  0  0  0  0  0  0  0  0
   72.2023   84.6486   88.0789 C   0  0  0  0  0  0  0  0  0  0  0  0
   72.4954   85.9561   87.7001 O   0  0  0  0  0  0  0  0  0  0  0  0
   71.8359   86.4863   87.2977 H   0  0  0  0  0  0  0  0  0  0  0  0
  1  2  2  0  0  0  0
  2  3  2  0  0  0  0
  3  4  2  0  0  0  0
  4  7  1  0  0  0  0
  4  5  2  0  0  0  0
  5  6  2  0  0  0  0
  6  1  1  0  0  0  0
  7  8  2  0  0  0  0
  8  9  1  0  0  0  0
  9 10  2  0  0  0  0
 10 11  1  0  0  0  0
 11 13  1  0  0  0  0
 11 12  2  0  0  0  0
 12  7  1  0  0  0  0
 13 14  1  0  0  0  0
 14 15  1  0  0  0  0
 15 16  2  0  0  0  0
 16 17  1  0  0  0  0
 17 18  2  0  0  0  0
 18 19  1  0  0  0  0
 19 20  1  0  0  0  0
 19 21  2  0  0  0  0
 21 15  1  0  0  0  0
 22  1  1  0  0  0  0
 23 22  1  0  0  0  0
 24 25  2  0  0  0  0
 25 26  1  0  0  0  0
 26 23  1  0  0  0  0
 26 27  2  0  0  0  0
 27 28  1  0  0  0  0
 28 29  2  0  0  0  0
 29 30  1  0  0  0  0
 29 24  1  0  0  0  0
 30 31  1  0  0  0  0
 32 33  2  0  0  0  0
 33 34  1  0  0  0  0
 33 24  1  0  0  0  0
 34 35  1  0  0  0  0
M  END
>  <Activity>
21.3

>  <minimizedAffinity>
-8.59642

>  <RFScoreVS_v2>
5.95755142352

$$$$
HIPS6920
 OpenBabel05252300073D

 35 38  0  0  0  0  0  0  0  0999 V2000
   67.0262   80.4193   90.8731 C   0  0  0  0  0  0  0  0  0  0  0  0
   66.6953   80.5535   92.2256 C   0  0  0  0  0  0  0  0  0  0  0  0
   66.7178   79.4690   93.0420 N   0  0  0  0  0  0  0  0  0  0  0  0
   67.0661   78.2382   92.5755 C   0  0  0  0  0  0  0  0  0  0  0  0
   67.4036   78.0943   91.2644 N   0  0  0  0  0  0  0  0  0  0  0  0
   67.3951   79.1511   90.4120 C   0  0  0  0  0  0  0  0  0  0  0  0
   67.0806   77.0668   93.4870 C   0  0  0  0  0  0  0  0  0  0  0  0
   65.8921   76.6110   94.0859 C   0  0  0  0  0  0  0  0  0  0  0  0
   65.9091   75.5098   94.9442 C   0  0  0  0  0  0  0  0  0  0  0  0
   67.1072   74.8474   95.2160 C   0  0  0  0  0  0  0  0  0  0  0  0
   68.3067   75.2832   94.6241 C   0  0  0  0  0  0  0  0  0  0  0  0
   68.2840   76.3914   93.7679 C   0  0  0  0  0  0  0  0  0  0  0  0
   69.5394   74.6518   94.8574 O   0  0  0  0  0  0  0  0  0  0  0  0
   69.7229   73.2514   95.0693 C   0  0  0  0  0  0  0  0  0  0  0  0
   69.7564   72.5119   93.7579 C   0  0  0  0  0  0  0  0  0  0  0  0
   70.5238   71.3427   93.6291 C   0  0  0  0  0  0  0  0  0  0  0  0
   70.5521   70.6485   92.4160 C   0  0  0  0  0  0  0  0  0  0  0  0
   69.8094   71.1110   91.3264 C   0  0  0  0  0  0  0  0  0  0  0  0
   69.0328   72.2677   91.4490 C   0  0  0  0  0  0  0  0  0  0  0  0
   68.0972   72.8447   90.0822 Cl  0  0  0  0  0  0  0  0  0  0  0  0
   69.0017   72.9643   92.6626 C   0  0  0  0  0  0  0  0  0  0  0  0
   67.0186   81.6122   89.9555 C   0  0  0  0  0  0  0  0  0  0  0  0
   68.0490   81.5034   88.9725 O   0  0  0  0  0  0  0  0  0  0  0  0
   70.7264   83.9266   88.1318 C   0  0  0  0  0  0  0  0  0  0  0  0
   69.5095   83.2214   88.1363 C   0  0  0  0  0  0  0  0  0  0  0  0
   69.2897   82.1601   89.0204 C   0  0  0  0  0  0  0  0  0  0  0  0
   70.3046   81.7979   89.9217 C   0  0  0  0  0  0  0  0  0  0  0  0
   71.5245   82.4746   89.9145 C   0  0  0  0  0  0  0  0  0  0  0  0
   71.7576   83.5205   89.0154 C   0  0  0  0  0  0  0  0  0  0  0  0
   73.0281   84.1008   89.0101 O   0  0  0  0  0  0  0  0  0  0  0  0
   73.6818   83.8026   89.6114 H   0  0  0  0  0  0  0  0  0  0  0  0
   71.7784   85.9333   87.3888 O   0  0  0  0  0  0  0  0  0  0  0  0
   70.8617   85.0852   87.2214 C   0  0  0  0  0  0  0  0  0  0  0  0
   69.9313   85.2787   86.2037 O   0  0  0  0  0  0  0  0  0  0  0  0
   69.2457   84.6540   86.0708 H   0  0  0  0  0  0  0  0  0  0  0  0
  1  2  2  0  0  0  0
  2  3  2  0  0  0  0
  3  4  2  0  0  0  0
  4  7  1  0  0  0  0
  4  5  2  0  0  0  0
  5  6  2  0  0  0  0
  6  1  1  0  0  0  0
  7  8  2  0  0  0  0
  8  9  1  0  0  0  0
  9 10  2  0  0  0  0
 10 11  1  0  0  0  0
 11 13  1  0  0  0  0
 11 12  2  0  0  0  0
 12  7  1  0  0  0  0
 13 14  1  0  0  0  0
 14 15  1  0  0  0  0
 15 16  2  0  0  0  0
 16 17  1  0  0  0  0
 17 18  2  0  0  0  0
 18 19  1  0  0  0  0
 19 20  1  0  0  0  0
 19 21  2  0  0  0  0
 21 15  1  0  0  0  0
 22  1  1  0  0  0  0
 23 22  1  0  0  0  0
 24 25  2  0  0  0  0
 25 26  1  0  0  0  0
 26 23  1  0  0  0  0
 26 27  2  0  0  0  0
 27 28  1  0  0  0  0
 28 29  2  0  0  0  0
 29 30  1  0  0  0  0
 29 24  1  0  0  0  0
 30 31  1  0  0  0  0
 32 33  2  0  0  0  0
 33 34  1  0  0  0  0
 33 24  1  0  0  0  0
 34 35  1  0  0  0  0
M  END
>  <Activity>
21.3

>  <minimizedAffinity>
-8.56811

>  <RFScoreVS_v2>
5.9564670921

$$$$
HIPS6276
 OpenBabel05252300073D

 31 32  0  0  0  0  0  0  0  0999 V2000
   70.6923   76.9357   90.6180 O   0  0  0  0  0  0  0  0  0  0  0  0
   69.0720   74.8917   93.9390 C   0  0  0  0  0  0  0  0  0  0  0  0
   69.5180   76.2156   94.0408 C   0  0  0  0  0  0  0  0  0  0  0  0
   70.0566   76.8717   92.9343 C   0  0  0  0  0  0  0  0  0  0  0  0
   70.1534   76.2228   91.7021 C   0  0  0  0  0  0  0  0  0  0  0  0
   69.7024   74.8947   91.5887 C   0  0  0  0  0  0  0  0  0  0  0  0
   69.1317   74.2270   92.6886 C   0  0  0  0  0  0  0  0  0  0  0  0
   66.7539   73.5536   96.7319 C   0  0  0  0  0  0  0  0  0  0  0  0
   67.2073   74.2828   95.5098 C   0  0  0  0  0  0  0  0  0  0  0  0
   66.3621   74.8928   94.7998 O   0  0  0  0  0  0  0  0  0  0  0  0
   68.5885   74.2421   95.1236 N   0  0  0  0  0  0  0  0  0  0  0  0
   69.2265   73.7517   95.6908 H   0  0  0  0  0  0  0  0  0  0  0  0
   68.5579   72.8740   92.4870 C   0  0  0  0  0  0  0  0  0  0  0  0
   67.6362   72.6952   91.6454 O   0  0  0  0  0  0  0  0  0  0  0  0
   69.0004   71.7952   93.2478 O   0  0  0  0  0  0  0  0  0  0  0  0
   69.6847   71.9147   93.8766 H   0  0  0  0  0  0  0  0  0  0  0  0
   71.3853   78.1818   90.7113 C   0  0  0  0  0  0  0  0  0  0  0  0
   70.5073   79.3141   90.2405 C   0  0  0  0  0  0  0  0  0  0  0  0
   71.0256   80.6082   90.1141 C   0  0  0  0  0  0  0  0  0  0  0  0
   70.2333   81.6642   89.6179 C   0  0  0  0  0  0  0  0  0  0  0  0
   68.8930   81.3798   89.2786 C   0  0  0  0  0  0  0  0  0  0  0  0
   68.3363   80.0906   89.4228 C   0  0  0  0  0  0  0  0  0  0  0  0
   69.1713   79.0634   89.9095 C   0  0  0  0  0  0  0  0  0  0  0  0
   70.7833   83.0927   89.4145 C   0  0  0  0  0  0  0  0  0  0  0  0
   72.2835   83.2259   89.7732 C   0  0  0  0  0  0  0  0  0  0  0  0
   70.0006   84.0806   90.3076 C   0  0  0  0  0  0  0  0  0  0  0  0
   70.6204   83.4984   87.9331 C   0  0  0  0  0  0  0  0  0  0  0  0
   66.8632   79.8492   89.0278 C   0  0  0  0  0  0  0  0  0  0  0  0
   66.6237   78.3352   88.8408 C   0  0  0  0  0  0  0  0  0  0  0  0
   65.8566   80.3561   90.0893 C   0  0  0  0  0  0  0  0  0  0  0  0
   66.5546   80.5856   87.7049 C   0  0  0  0  0  0  0  0  0  0  0  0
  1 17  1  0  0  0  0
  2  3  2  0  0  0  0
  3  4  1  0  0  0  0
  4  5  2  0  0  0  0
  5  1  1  0  0  0  0
  5  6  1  0  0  0  0
  6  7  2  0  0  0  0
  7 13  1  0  0  0  0
  7  2  1  0  0  0  0
  8  9  1  0  0  0  0
  9 10  2  0  0  0  0
  9 11  1  0  0  0  0
 11  2  1  0  0  0  0
 11 12  1  0  0  0  0
 13 14  2  0  0  0  0
 13 15  1  0  0  0  0
 15 16  1  0  0  0  0
 17 18  1  0  0  0  0
 18 19  2  0  0  0  0
 19 20  1  0  0  0  0
 20 24  1  0  0  0  0
 20 21  2  0  0  0  0
 21 22  1  0  0  0  0
 22 28  1  0  0  0  0
 22 23  2  0  0  0  0
 23 18  1  0  0  0  0
 24 25  1  0  0  0  0
 24 26  1  0  0  0  0
 24 27  1  0  0  0  0
 28 29  1  0  0  0  0
 28 30  1  0  0  0  0
 28 31  1  0  0  0  0
M  END
>  <Activity>
29.4

>  <minimizedAffinity>
-7.90790

>  <RFScoreVS_v2>
5.95836088786

$$$$
HIPS6276
 OpenBabel05252300073D

 31 32  0  0  0  0  0  0  0  0999 V2000
   70.7232   76.7136   90.6470 O   0  0  0  0  0  0  0  0  0  0  0  0
   69.0686   74.7883   94.0216 C   0  0  0  0  0  0  0  0  0  0  0  0
   69.4546   76.1342   94.0629 C   0  0  0  0  0  0  0  0  0  0  0  0
   70.0056   76.7507   92.9399 C   0  0  0  0  0  0  0  0  0  0  0  0
   70.1750   76.0391   91.7508 C   0  0  0  0  0  0  0  0  0  0  0  0
   69.7846   74.6882   91.6981 C   0  0  0  0  0  0  0  0  0  0  0  0
   69.2023   74.0584   92.8141 C   0  0  0  0  0  0  0  0  0  0  0  0
   66.7091   73.5253   96.8149 C   0  0  0  0  0  0  0  0  0  0  0  0
   67.1771   74.2053   95.5702 C   0  0  0  0  0  0  0  0  0  0  0  0
   66.3363   74.7548   94.8076 O   0  0  0  0  0  0  0  0  0  0  0  0
   68.5694   74.1850   95.2241 N   0  0  0  0  0  0  0  0  0  0  0  0
   69.2041   73.7420   95.8325 H   0  0  0  0  0  0  0  0  0  0  0  0
   68.6936   72.6723   92.6706 C   0  0  0  0  0  0  0  0  0  0  0  0
   69.2356   71.7289   93.3078 O   0  0  0  0  0  0  0  0  0  0  0  0
   67.6403   72.3892   91.8052 O   0  0  0  0  0  0  0  0  0  0  0  0
   67.2289   73.0812   91.3258 H   0  0  0  0  0  0  0  0  0  0  0  0
   71.4292   77.9546   90.7044 C   0  0  0  0  0  0  0  0  0  0  0  0
   70.5531   79.0863   90.2290 C   0  0  0  0  0  0  0  0  0  0  0  0
   69.2410   78.8392   89.8086 C   0  0  0  0  0  0  0  0  0  0  0  0
   68.3907   79.8947   89.4188 C   0  0  0  0  0  0  0  0  0  0  0  0
   68.9141   81.2054   89.4404 C   0  0  0  0  0  0  0  0  0  0  0  0
   70.2420   81.4802   89.8326 C   0  0  0  0  0  0  0  0  0  0  0  0
   71.0503   80.3941   90.2277 C   0  0  0  0  0  0  0  0  0  0  0  0
   66.9219   79.6684   88.9991 C   0  0  0  0  0  0  0  0  0  0  0  0
   65.9022   80.2197   90.0254 C   0  0  0  0  0  0  0  0  0  0  0  0
   66.6555   78.1549   88.8435 C   0  0  0  0  0  0  0  0  0  0  0  0
   66.6587   80.3783   87.6529 C   0  0  0  0  0  0  0  0  0  0  0  0
   70.7478   82.9392   89.8368 C   0  0  0  0  0  0  0  0  0  0  0  0
   70.2287   83.6584   91.1010 C   0  0  0  0  0  0  0  0  0  0  0  0
   72.2922   83.0490   89.8351 C   0  0  0  0  0  0  0  0  0  0  0  0
   70.2280   83.6711   88.5792 C   0  0  0  0  0  0  0  0  0  0  0  0
  1 17  1  0  0  0  0
  2  3  2  0  0  0  0
  3  4  1  0  0  0  0
  4  5  2  0  0  0  0
  5  1  1  0  0  0  0
  5  6  1  0  0  0  0
  6  7  2  0  0  0  0
  7 13  1  0  0  0  0
  7  2  1  0  0  0  0
  8  9  1  0  0  0  0
  9 10  2  0  0  0  0
  9 11  1  0  0  0  0
 11  2  1  0  0  0  0
 11 12  1  0  0  0  0
 13 14  2  0  0  0  0
 13 15  1  0  0  0  0
 15 16  1  0  0  0  0
 17 18  1  0  0  0  0
 18 19  2  0  0  0  0
 19 20  1  0  0  0  0
 20 24  1  0  0  0  0
 20 21  2  0  0  0  0
 21 22  1  0  0  0  0
 22 28  1  0  0  0  0
 22 23  2  0  0  0  0
 23 18  1  0  0  0  0
 24 25  1  0  0  0  0
 24 26  1  0  0  0  0
 24 27  1  0  0  0  0
 28 29  1  0  0  0  0
 28 30  1  0  0  0  0
 28 31  1  0  0  0  0
M  END
>  <Activity>
29.4

>  <minimizedAffinity>
-7.88134

>  <RFScoreVS_v2>
5.96279884076

$$$$
HIPS6276
 OpenBabel05252300073D

 31 32  0  0  0  0  0  0  0  0999 V2000
   70.6051   80.0764   89.7594 O   0  0  0  0  0  0  0  0  0  0  0  0
   70.1422   76.2152   91.4055 C   0  0  0  0  0  0  0  0  0  0  0  0
   71.3765   76.8771   91.4277 C   0  0  0  0  0  0  0  0  0  0  0  0
   71.5112   78.1494   90.8727 C   0  0  0  0  0  0  0  0  0  0  0  0
   70.4153   78.7901   90.2918 C   0  0  0  0  0  0  0  0  0  0  0  0
   69.1699   78.1353   90.2702 C   0  0  0  0  0  0  0  0  0  0  0  0
   69.0105   76.8625   90.8496 C   0  0  0  0  0  0  0  0  0  0  0  0
   69.6755   73.2040   93.7887 C   0  0  0  0  0  0  0  0  0  0  0  0
   69.7730   74.6145   93.3074 C   0  0  0  0  0  0  0  0  0  0  0  0
   69.5444   75.5621   94.1075 O   0  0  0  0  0  0  0  0  0  0  0  0
   70.0744   74.8814   91.9302 N   0  0  0  0  0  0  0  0  0  0  0  0
   70.2403   74.1233   91.3244 H   0  0  0  0  0  0  0  0  0  0  0  0
   67.6527   76.2684   90.9126 C   0  0  0  0  0  0  0  0  0  0  0  0
   67.0065   76.0499   89.8521 O   0  0  0  0  0  0  0  0  0  0  0  0
   67.0604   75.9808   92.1393 O   0  0  0  0  0  0  0  0  0  0  0  0
   67.5298   76.1386   92.9347 H   0  0  0  0  0  0  0  0  0  0  0  0
   71.5268   81.0485   90.2566 C   0  0  0  0  0  0  0  0  0  0  0  0
   70.9103   82.4247   90.2342 C   0  0  0  0  0  0  0  0  0  0  0  0
   71.1267   83.2814   89.1487 C   0  0  0  0  0  0  0  0  0  0  0  0
   70.5081   84.5472   89.0859 C   0  0  0  0  0  0  0  0  0  0  0  0
   69.6854   84.9334   90.1659 C   0  0  0  0  0  0  0  0  0  0  0  0
   69.4725   84.1013   91.2862 C   0  0  0  0  0  0  0  0  0  0  0  0
   70.1006   82.8386   91.2976 C   0  0  0  0  0  0  0  0  0  0  0  0
   70.6801   85.4987   87.8819 C   0  0  0  0  0  0  0  0  0  0  0  0
   70.2990   84.8474   86.5300 C   0  0  0  0  0  0  0  0  0  0  0  0
   72.1547   85.9482   87.7840 C   0  0  0  0  0  0  0  0  0  0  0  0
   69.7765   86.7366   88.0741 C   0  0  0  0  0  0  0  0  0  0  0  0
   68.5560   84.5856   92.4306 C   0  0  0  0  0  0  0  0  0  0  0  0
   67.2969   83.6936   92.4920 C   0  0  0  0  0  0  0  0  0  0  0  0
   69.2366   84.5331   93.8203 C   0  0  0  0  0  0  0  0  0  0  0  0
   68.1362   86.0502   92.1732 C   0  0  0  0  0  0  0  0  0  0  0  0
  1 17  1  0  0  0  0
  2  3  2  0  0  0  0
  3  4  1  0  0  0  0
  4  5  2  0  0  0  0
  5  1  1  0  0  0  0
  5  6  1  0  0  0  0
  6  7  2  0  0  0  0
  7 13  1  0  0  0  0
  7  2  1  0  0  0  0
  8  9  1  0  0  0  0
  9 10  2  0  0  0  0
  9 11  1  0  0  0  0
 11  2  1  0  0  0  0
 11 12  1  0  0  0  0
 13 14  2  0  0  0  0
 13 15  1  0  0  0  0
 15 16  1  0  0  0  0
 17 18  1  0  0  0  0
 18 19  2  0  0  0  0
 19 20  1  0  0  0  0
 20 24  1  0  0  0  0
 20 21  2  0  0  0  0
 21 22  1  0  0  0  0
 22 28  1  0  0  0  0
 22 23  2  0  0  0  0
 23 18  1  0  0  0  0
 24 25  1  0  0  0  0
 24 26  1  0  0  0  0
 24 27  1  0  0  0  0
 28 29  1  0  0  0  0
 28 30  1  0  0  0  0
 28 31  1  0  0  0  0
M  END
>  <Activity>
29.4

>  <minimizedAffinity>
-7.78140

>  <RFScoreVS_v2>
5.98047230124

$$$$
HIPS6276
 OpenBabel05252300073D

 31 32  0  0  0  0  0  0  0  0999 V2000
   68.1807   79.3471   88.9474 O   0  0  0  0  0  0  0  0  0  0  0  0
   68.1298   77.1932   92.5794 C   0  0  0  0  0  0  0  0  0  0  0  0
   66.9972   77.8759   92.1174 C   0  0  0  0  0  0  0  0  0  0  0  0
   67.0356   78.5875   90.9186 C   0  0  0  0  0  0  0  0  0  0  0  0
   68.2023   78.6256   90.1528 C   0  0  0  0  0  0  0  0  0  0  0  0
   69.3432   77.9379   90.6060 C   0  0  0  0  0  0  0  0  0  0  0  0
   69.3135   77.1930   91.7999 C   0  0  0  0  0  0  0  0  0  0  0  0
   67.6063   74.5219   95.3279 C   0  0  0  0  0  0  0  0  0  0  0  0
   67.6242   75.1708   93.9828 C   0  0  0  0  0  0  0  0  0  0  0  0
   67.3017   74.5006   92.9643 O   0  0  0  0  0  0  0  0  0  0  0  0
   68.0560   76.5327   93.8511 N   0  0  0  0  0  0  0  0  0  0  0  0
   68.3105   77.0311   94.6610 H   0  0  0  0  0  0  0  0  0  0  0  0
   70.5011   76.3849   92.1705 C   0  0  0  0  0  0  0  0  0  0  0  0
   71.6171   76.9435   92.3498 O   0  0  0  0  0  0  0  0  0  0  0  0
   70.4088   75.0007   92.2876 O   0  0  0  0  0  0  0  0  0  0  0  0
   69.5853   74.5733   92.1568 H   0  0  0  0  0  0  0  0  0  0  0  0
   67.5289   80.6029   88.7478 C   0  0  0  0  0  0  0  0  0  0  0  0
   68.3333   81.7218   89.3606 C   0  0  0  0  0  0  0  0  0  0  0  0
   69.3510   82.3462   88.6301 C   0  0  0  0  0  0  0  0  0  0  0  0
   70.0708   83.4333   89.1677 C   0  0  0  0  0  0  0  0  0  0  0  0
   69.7503   83.8538   90.4765 C   0  0  0  0  0  0  0  0  0  0  0  0
   68.7484   83.2241   91.2462 C   0  0  0  0  0  0  0  0  0  0  0  0
   68.0456   82.1504   90.6610 C   0  0  0  0  0  0  0  0  0  0  0  0
   71.1640   84.1816   88.3742 C   0  0  0  0  0  0  0  0  0  0  0  0
   72.5978   83.8701   88.8683 C   0  0  0  0  0  0  0  0  0  0  0  0
   70.9464   85.7053   88.5042 C   0  0  0  0  0  0  0  0  0  0  0  0
   71.0852   83.7757   86.8860 C   0  0  0  0  0  0  0  0  0  0  0  0
   68.4465   83.7392   92.6702 C   0  0  0  0  0  0  0  0  0  0  0  0
   67.5216   84.9728   92.5842 C   0  0  0  0  0  0  0  0  0  0  0  0
   67.7439   82.6871   93.5627 C   0  0  0  0  0  0  0  0  0  0  0  0
   69.7669   84.1345   93.3687 C   0  0  0  0  0  0  0  0  0  0  0  0
  1 17  1  0  0  0  0
  2  3  2  0  0  0  0
  3  4  1  0  0  0  0
  4  5  2  0  0  0  0
  5  1  1  0  0  0  0
  5  6  1  0  0  0  0
  6  7  2  0  0  0  0
  7 13  1  0  0  0  0
  7  2  1  0  0  0  0
  8  9  1  0  0  0  0
  9 10  2  0  0  0  0
  9 11  1  0  0  0  0
 11  2  1  0  0  0  0
 11 12  1  0  0  0  0
 13 14  2  0  0  0  0
 13 15  1  0  0  0  0
 15 16  1  0  0  0  0
 17 18  1  0  0  0  0
 18 19  2  0  0  0  0
 19 20  1  0  0  0  0
 20 24  1  0  0  0  0
 20 21  2  0  0  0  0
 21 22  1  0  0  0  0
 22 28  1  0  0  0  0
 22 23  2  0  0  0  0
 23 18  1  0  0  0  0
 24 25  1  0  0  0  0
 24 26  1  0  0  0  0
 24 27  1  0  0  0  0
 28 29  1  0  0  0  0
 28 30  1  0  0  0  0
 28 31  1  0  0  0  0
M  END
>  <Activity>
29.4

>  <minimizedAffinity>
-7.68346

>  <RFScoreVS_v2>
5.9806348984

$$$$
HIPS6276
 OpenBabel05252300073D

 31 32  0  0  0  0  0  0  0  0999 V2000
   67.7208   79.4203   90.2469 O   0  0  0  0  0  0  0  0  0  0  0  0
   67.7999   76.5986   93.3876 C   0  0  0  0  0  0  0  0  0  0  0  0
   67.0156   77.7567   93.4638 C   0  0  0  0  0  0  0  0  0  0  0  0
   67.0080   78.6803   92.4190 C   0  0  0  0  0  0  0  0  0  0  0  0
   67.7764   78.4631   91.2739 C   0  0  0  0  0  0  0  0  0  0  0  0
   68.5628   77.2995   91.1859 C   0  0  0  0  0  0  0  0  0  0  0  0
   68.5613   76.3443   92.2196 C   0  0  0  0  0  0  0  0  0  0  0  0
   66.8685   73.8495   95.9449 C   0  0  0  0  0  0  0  0  0  0  0  0
   66.7716   74.7727   94.7749 C   0  0  0  0  0  0  0  0  0  0  0  0
   65.7854   74.6857   93.9937 O   0  0  0  0  0  0  0  0  0  0  0  0
   67.8227   75.7151   94.5180 N   0  0  0  0  0  0  0  0  0  0  0  0
   68.5857   75.7569   95.1387 H   0  0  0  0  0  0  0  0  0  0  0  0
   69.3080   75.0771   92.0258 C   0  0  0  0  0  0  0  0  0  0  0  0
   69.0814   74.3557   91.0169 O   0  0  0  0  0  0  0  0  0  0  0  0
   70.2374   74.6499   92.9703 O   0  0  0  0  0  0  0  0  0  0  0  0
   70.4149   75.1767   93.7246 H   0  0  0  0  0  0  0  0  0  0  0  0
   68.8351   79.8651   89.4709 C   0  0  0  0  0  0  0  0  0  0  0  0
   69.2242   81.2700   89.8574 C   0  0  0  0  0  0  0  0  0  0  0  0
   70.0483   82.0330   89.0220 C   0  0  0  0  0  0  0  0  0  0  0  0
   70.3711   83.3684   89.3407 C   0  0  0  0  0  0  0  0  0  0  0  0
   69.8586   83.9018   90.5428 C   0  0  0  0  0  0  0  0  0  0  0  0
   69.0486   83.1459   91.4178 C   0  0  0  0  0  0  0  0  0  0  0  0
   68.7409   81.8196   91.0498 C   0  0  0  0  0  0  0  0  0  0  0  0
   71.2335   84.2587   88.4196 C   0  0  0  0  0  0  0  0  0  0  0  0
   70.8769   85.7622   88.5160 C   0  0  0  0  0  0  0  0  0  0  0  0
   71.0371   83.8259   86.9498 C   0  0  0  0  0  0  0  0  0  0  0  0
   72.7210   84.1065   88.8064 C   0  0  0  0  0  0  0  0  0  0  0  0
   68.5181   83.7945   92.7147 C   0  0  0  0  0  0  0  0  0  0  0  0
   67.7014   82.7541   93.5117 C   0  0  0  0  0  0  0  0  0  0  0  0
   69.6443   84.3162   93.6403 C   0  0  0  0  0  0  0  0  0  0  0  0
   67.6133   84.9959   92.3603 C   0  0  0  0  0  0  0  0  0  0  0  0
  1 17  1  0  0  0  0
  2  3  2  0  0  0  0
  3  4  1  0  0  0  0
  4  5  2  0  0  0  0
  5  1  1  0  0  0  0
  5  6  1  0  0  0  0
  6  7  2  0  0  0  0
  7 13  1  0  0  0  0
  7  2  1  0  0  0  0
  8  9  1  0  0  0  0
  9 10  2  0  0  0  0
  9 11  1  0  0  0  0
 11  2  1  0  0  0  0
 11 12  1  0  0  0  0
 13 14  2  0  0  0  0
 13 15  1  0  0  0  0
 15 16  1  0  0  0  0
 17 18  1  0  0  0  0
 18 19  2  0  0  0  0
 19 20  1  0  0  0  0
 20 24  1  0  0  0  0
 20 21  2  0  0  0  0
 21 22  1  0  0  0  0
 22 28  1  0  0  0  0
 22 23  2  0  0  0  0
 23 18  1  0  0  0  0
 24 25  1  0  0  0  0
 24 26  1  0  0  0  0
 24 27  1  0  0  0  0
 28 29  1  0  0  0  0
 28 30  1  0  0  0  0
 28 31  1  0  0  0  0
M  END
>  <Activity>
29.4

>  <minimizedAffinity>
-7.66186

>  <RFScoreVS_v2>
5.97669763476

$$$$
HIPS6276
 OpenBabel05252300073D

 31 32  0  0  0  0  0  0  0  0999 V2000
   67.9177   79.3244   90.3670 O   0  0  0  0  0  0  0  0  0  0  0  0
   67.8332   76.4870   93.4935 C   0  0  0  0  0  0  0  0  0  0  0  0
   67.0561   77.6515   93.5408 C   0  0  0  0  0  0  0  0  0  0  0  0
   67.1027   78.5802   92.5015 C   0  0  0  0  0  0  0  0  0  0  0  0
   67.9194   78.3619   91.3905 C   0  0  0  0  0  0  0  0  0  0  0  0
   68.6992   77.1920   91.3315 C   0  0  0  0  0  0  0  0  0  0  0  0
   68.6436   76.2318   92.3591 C   0  0  0  0  0  0  0  0  0  0  0  0
   66.7563   73.7461   96.0020 C   0  0  0  0  0  0  0  0  0  0  0  0
   66.7194   74.6767   94.8343 C   0  0  0  0  0  0  0  0  0  0  0  0
   65.7594   74.6141   94.0189 O   0  0  0  0  0  0  0  0  0  0  0  0
   67.7982   75.5979   94.6192 N   0  0  0  0  0  0  0  0  0  0  0  0
   68.5399   75.6208   95.2662 H   0  0  0  0  0  0  0  0  0  0  0  0
   69.3875   74.9592   92.1922 C   0  0  0  0  0  0  0  0  0  0  0  0
   70.2214   74.5933   93.0643 O   0  0  0  0  0  0  0  0  0  0  0  0
   69.2042   74.1739   91.0573 O   0  0  0  0  0  0  0  0  0  0  0  0
   68.5876   74.4347   90.4017 H   0  0  0  0  0  0  0  0  0  0  0  0
   69.0784   79.8205   89.6976 C   0  0  0  0  0  0  0  0  0  0  0  0
   69.2433   81.2989   89.9460 C   0  0  0  0  0  0  0  0  0  0  0  0
   68.5951   81.9137   91.0236 C   0  0  0  0  0  0  0  0  0  0  0  0
   68.7877   83.2824   91.3039 C   0  0  0  0  0  0  0  0  0  0  0  0
   69.6337   84.0184   90.4466 C   0  0  0  0  0  0  0  0  0  0  0  0
   70.2774   83.4305   89.3363 C   0  0  0  0  0  0  0  0  0  0  0  0
   70.0659   82.0555   89.1044 C   0  0  0  0  0  0  0  0  0  0  0  0
   68.1323   83.9845   92.5131 C   0  0  0  0  0  0  0  0  0  0  0  0
   66.7853   84.6649   92.1672 C   0  0  0  0  0  0  0  0  0  0  0  0
   69.0813   85.0767   93.0541 C   0  0  0  0  0  0  0  0  0  0  0  0
   67.8584   82.9452   93.6224 C   0  0  0  0  0  0  0  0  0  0  0  0
   71.1936   84.2943   88.4425 C   0  0  0  0  0  0  0  0  0  0  0  0
   72.6608   84.1194   88.8911 C   0  0  0  0  0  0  0  0  0  0  0  0
   71.1131   83.9177   86.9429 C   0  0  0  0  0  0  0  0  0  0  0  0
   70.7905   85.7804   88.5712 C   0  0  0  0  0  0  0  0  0  0  0  0
  1 17  1  0  0  0  0
  2  3  2  0  0  0  0
  3  4  1  0  0  0  0
  4  5  2  0  0  0  0
  5  1  1  0  0  0  0
  5  6  1  0  0  0  0
  6  7  2  0  0  0  0
  7 13  1  0  0  0  0
  7  2  1  0  0  0  0
  8  9  1  0  0  0  0
  9 10  2  0  0  0  0
  9 11  1  0  0  0  0
 11  2  1  0  0  0  0
 11 12  1  0  0  0  0
 13 14  2  0  0  0  0
 13 15  1  0  0  0  0
 15 16  1  0  0  0  0
 17 18  1  0  0  0  0
 18 19  2  0  0  0  0
 19 20  1  0  0  0  0
 20 24  1  0  0  0  0
 20 21  2  0  0  0  0
 21 22  1  0  0  0  0
 22 28  1  0  0  0  0
 22 23  2  0  0  0  0
 23 18  1  0  0  0  0
 24 25  1  0  0  0  0
 24 26  1  0  0  0  0
 24 27  1  0  0  0  0
 28 29  1  0  0  0  0
 28 30  1  0  0  0  0
 28 31  1  0  0  0  0
M  END
>  <Activity>
29.4

>  <minimizedAffinity>
-7.64786

>  <RFScoreVS_v2>
5.97849101034

$$$$
HIPS6276
 OpenBabel05252300073D

 31 32  0  0  0  0  0  0  0  0999 V2000
   67.9662   79.6105   90.4925 O   0  0  0  0  0  0  0  0  0  0  0  0
   67.8215   76.6260   93.4766 C   0  0  0  0  0  0  0  0  0  0  0  0
   67.0599   77.7973   93.5755 C   0  0  0  0  0  0  0  0  0  0  0  0
   67.1263   78.7747   92.5829 C   0  0  0  0  0  0  0  0  0  0  0  0
   67.9478   78.5994   91.4679 C   0  0  0  0  0  0  0  0  0  0  0  0
   68.7122   77.4231   91.3570 C   0  0  0  0  0  0  0  0  0  0  0  0
   68.6365   76.4150   92.3363 C   0  0  0  0  0  0  0  0  0  0  0  0
   66.6697   73.8092   95.8649 C   0  0  0  0  0  0  0  0  0  0  0  0
   66.6538   74.7979   94.7454 C   0  0  0  0  0  0  0  0  0  0  0  0
   65.6797   74.8155   93.9447 O   0  0  0  0  0  0  0  0  0  0  0  0
   67.7667   75.6838   94.5574 N   0  0  0  0  0  0  0  0  0  0  0  0
   68.5185   75.6439   95.1918 H   0  0  0  0  0  0  0  0  0  0  0  0
   69.3643   75.1419   92.1124 C   0  0  0  0  0  0  0  0  0  0  0  0
   70.2484   74.7651   92.9285 O   0  0  0  0  0  0  0  0  0  0  0  0
   69.1095   74.3681   90.9833 O   0  0  0  0  0  0  0  0  0  0  0  0
   68.4550   74.6370   90.3691 H   0  0  0  0  0  0  0  0  0  0  0  0
   69.1170   80.0247   89.7536 C   0  0  0  0  0  0  0  0  0  0  0  0
   69.3596   81.5023   89.9334 C   0  0  0  0  0  0  0  0  0  0  0  0
   68.8413   82.1761   91.0455 C   0  0  0  0  0  0  0  0  0  0  0  0
   69.1105   83.5440   91.2581 C   0  0  0  0  0  0  0  0  0  0  0  0
   69.8968   84.2183   90.2991 C   0  0  0  0  0  0  0  0  0  0  0  0
   70.4084   83.5705   89.1540 C   0  0  0  0  0  0  0  0  0  0  0  0
   70.1248   82.1985   88.9915 C   0  0  0  0  0  0  0  0  0  0  0  0
   68.6010   84.3094   92.4988 C   0  0  0  0  0  0  0  0  0  0  0  0
   69.5749   84.2412   93.7004 C   0  0  0  0  0  0  0  0  0  0  0  0
   67.2520   83.7125   92.9571 C   0  0  0  0  0  0  0  0  0  0  0  0
   68.4087   85.7990   92.1385 C   0  0  0  0  0  0  0  0  0  0  0  0
   71.2656   84.3684   88.1475 C   0  0  0  0  0  0  0  0  0  0  0  0
   70.9749   83.8677   86.7159 C   0  0  0  0  0  0  0  0  0  0  0  0
   70.9835   85.8904   88.1787 C   0  0  0  0  0  0  0  0  0  0  0  0
   72.7634   84.1661   88.4685 C   0  0  0  0  0  0  0  0  0  0  0  0
  1 17  1  0  0  0  0
  2  3  2  0  0  0  0
  3  4  1  0  0  0  0
  4  5  2  0  0  0  0
  5  1  1  0  0  0  0
  5  6  1  0  0  0  0
  6  7  2  0  0  0  0
  7 13  1  0  0  0  0
  7  2  1  0  0  0  0
  8  9  1  0  0  0  0
  9 10  2  0  0  0  0
  9 11  1  0  0  0  0
 11  2  1  0  0  0  0
 11 12  1  0  0  0  0
 13 14  2  0  0  0  0
 13 15  1  0  0  0  0
 15 16  1  0  0  0  0
 17 18  1  0  0  0  0
 18 19  2  0  0  0  0
 19 20  1  0  0  0  0
 20 24  1  0  0  0  0
 20 21  2  0  0  0  0
 21 22  1  0  0  0  0
 22 28  1  0  0  0  0
 22 23  2  0  0  0  0
 23 18  1  0  0  0  0
 24 25  1  0  0  0  0
 24 26  1  0  0  0  0
 24 27  1  0  0  0  0
 28 29  1  0  0  0  0
 28 30  1  0  0  0  0
 28 31  1  0  0  0  0
M  END
>  <Activity>
29.4

>  <minimizedAffinity>
-7.64281

>  <RFScoreVS_v2>
5.97373987604

$$$$
HIPS6276
 OpenBabel05252300073D

 31 32  0  0  0  0  0  0  0  0999 V2000
   68.2131   79.3767   88.9894 O   0  0  0  0  0  0  0  0  0  0  0  0
   68.1365   77.1940   92.6036 C   0  0  0  0  0  0  0  0  0  0  0  0
   67.0097   77.8869   92.1431 C   0  0  0  0  0  0  0  0  0  0  0  0
   67.0565   78.6079   90.9503 C   0  0  0  0  0  0  0  0  0  0  0  0
   68.2261   78.6453   90.1890 C   0  0  0  0  0  0  0  0  0  0  0  0
   69.3614   77.9473   90.6406 C   0  0  0  0  0  0  0  0  0  0  0  0
   69.3230   77.1931   91.8284 C   0  0  0  0  0  0  0  0  0  0  0  0
   67.5891   74.5033   95.3285 C   0  0  0  0  0  0  0  0  0  0  0  0
   67.6156   75.1628   93.9887 C   0  0  0  0  0  0  0  0  0  0  0  0
   67.2944   74.5022   92.9635 O   0  0  0  0  0  0  0  0  0  0  0  0
   68.0544   76.5237   93.8697 N   0  0  0  0  0  0  0  0  0  0  0  0
   68.3078   77.0144   94.6847 H   0  0  0  0  0  0  0  0  0  0  0  0
   70.5045   76.3751   92.1967 C   0  0  0  0  0  0  0  0  0  0  0  0
   71.6263   76.9239   92.3703 O   0  0  0  0  0  0  0  0  0  0  0  0
   70.4000   74.9921   92.3177 O   0  0  0  0  0  0  0  0  0  0  0  0
   69.5721   74.5719   92.1912 H   0  0  0  0  0  0  0  0  0  0  0  0
   67.4913   80.5901   88.7694 C   0  0  0  0  0  0  0  0  0  0  0  0
   68.2333   81.7634   89.3587 C   0  0  0  0  0  0  0  0  0  0  0  0
   67.9488   82.2031   90.6568 C   0  0  0  0  0  0  0  0  0  0  0  0
   68.6758   83.2598   91.2430 C   0  0  0  0  0  0  0  0  0  0  0  0
   69.6813   83.8777   90.4685 C   0  0  0  0  0  0  0  0  0  0  0  0
   69.9698   83.4735   89.1471 C   0  0  0  0  0  0  0  0  0  0  0  0
   69.2262   82.4029   88.6086 C   0  0  0  0  0  0  0  0  0  0  0  0
   68.4275   83.7388   92.6899 C   0  0  0  0  0  0  0  0  0  0  0  0
   67.7464   82.6692   93.5783 C   0  0  0  0  0  0  0  0  0  0  0  0
   67.5123   84.9831   92.6732 C   0  0  0  0  0  0  0  0  0  0  0  0
   69.7769   84.1013   93.3482 C   0  0  0  0  0  0  0  0  0  0  0  0
   71.0868   84.1911   88.3585 C   0  0  0  0  0  0  0  0  0  0  0  0
   72.4603   83.8097   88.9523 C   0  0  0  0  0  0  0  0  0  0  0  0
   71.1061   83.8208   86.8553 C   0  0  0  0  0  0  0  0  0  0  0  0
   70.8905   85.7205   88.4584 C   0  0  0  0  0  0  0  0  0  0  0  0
  1 17  1  0  0  0  0
  2  3  2  0  0  0  0
  3  4  1  0  0  0  0
  4  5  2  0  0  0  0
  5  1  1  0  0  0  0
  5  6  1  0  0  0  0
  6  7  2  0  0  0  0
  7 13  1  0  0  0  0
  7  2  1  0  0  0  0
  8  9  1  0  0  0  0
  9 10  2  0  0  0  0
  9 11  1  0  0  0  0
 11  2  1  0  0  0  0
 11 12  1  0  0  0  0
 13 14  2  0  0  0  0
 13 15  1  0  0  0  0
 15 16  1  0  0  0  0
 17 18  1  0  0  0  0
 18 19  2  0  0  0  0
 19 20  1  0  0  0  0
 20 24  1  0  0  0  0
 20 21  2  0  0  0  0
 21 22  1  0  0  0  0
 22 28  1  0  0  0  0
 22 23  2  0  0  0  0
 23 18  1  0  0  0  0
 24 25  1  0  0  0  0
 24 26  1  0  0  0  0
 24 27  1  0  0  0  0
 28 29  1  0  0  0  0
 28 30  1  0  0  0  0
 28 31  1  0  0  0  0
M  END
>  <Activity>
29.4

>  <minimizedAffinity>
-7.64167

>  <RFScoreVS_v2>
5.97482426399

$$$$
HIPS6276
 OpenBabel05252300073D

 31 32  0  0  0  0  0  0  0  0999 V2000
   66.3305   78.9314   88.9959 O   0  0  0  0  0  0  0  0  0  0  0  0
   67.7625   82.7235   87.8117 C   0  0  0  0  0  0  0  0  0  0  0  0
   67.5974   81.6827   86.8889 C   0  0  0  0  0  0  0  0  0  0  0  0
   67.1296   80.4350   87.3004 C   0  0  0  0  0  0  0  0  0  0  0  0
   66.8096   80.2032   88.6394 C   0  0  0  0  0  0  0  0  0  0  0  0
   66.9667   81.2446   89.5726 C   0  0  0  0  0  0  0  0  0  0  0  0
   67.4121   82.5175   89.1695 C   0  0  0  0  0  0  0  0  0  0  0  0
   70.2369   85.4976   86.7409 C   0  0  0  0  0  0  0  0  0  0  0  0
   69.7237   84.1990   87.2710 C   0  0  0  0  0  0  0  0  0  0  0  0
   70.5397   83.2977   87.6061 O   0  0  0  0  0  0  0  0  0  0  0  0
   68.3100   83.9659   87.3473 N   0  0  0  0  0  0  0  0  0  0  0  0
   67.6944   84.6830   87.0714 H   0  0  0  0  0  0  0  0  0  0  0  0
   67.4419   83.6156   90.1665 C   0  0  0  0  0  0  0  0  0  0  0  0
   67.7806   83.3809   91.3581 O   0  0  0  0  0  0  0  0  0  0  0  0
   67.0613   84.9069   89.8112 O   0  0  0  0  0  0  0  0  0  0  0  0
   66.8074   85.0945   88.9290 H   0  0  0  0  0  0  0  0  0  0  0  0
   66.8125   77.6912   88.4750 C   0  0  0  0  0  0  0  0  0  0  0  0
   67.8665   77.1081   89.3825 C   0  0  0  0  0  0  0  0  0  0  0  0
   67.6759   75.8556   89.9778 C   0  0  0  0  0  0  0  0  0  0  0  0
   68.6777   75.2711   90.7799 C   0  0  0  0  0  0  0  0  0  0  0  0
   69.8679   76.0017   90.9853 C   0  0  0  0  0  0  0  0  0  0  0  0
   70.0751   77.2788   90.4205 C   0  0  0  0  0  0  0  0  0  0  0  0
   69.0506   77.8163   89.6139 C   0  0  0  0  0  0  0  0  0  0  0  0
   68.5266   73.8697   91.4107 C   0  0  0  0  0  0  0  0  0  0  0  0
   67.4818   73.8239   92.5524 C   0  0  0  0  0  0  0  0  0  0  0  0
   69.8814   73.4184   91.9998 C   0  0  0  0  0  0  0  0  0  0  0  0
   68.0769   72.8657   90.3266 C   0  0  0  0  0  0  0  0  0  0  0  0
   71.4038   78.0204   90.6829 C   0  0  0  0  0  0  0  0  0  0  0  0
   71.9140   77.6737   92.0986 C   0  0  0  0  0  0  0  0  0  0  0  0
   72.5198   77.6460   89.6771 C   0  0  0  0  0  0  0  0  0  0  0  0
   71.1753   79.5450   90.5780 C   0  0  0  0  0  0  0  0  0  0  0  0
  1 17  1  0  0  0  0
  2  3  2  0  0  0  0
  3  4  1  0  0  0  0
  4  5  2  0  0  0  0
  5  1  1  0  0  0  0
  5  6  1  0  0  0  0
  6  7  2  0  0  0  0
  7 13  1  0  0  0  0
  7  2  1  0  0  0  0
  8  9  1  0  0  0  0
  9 10  2  0  0  0  0
  9 11  1  0  0  0  0
 11  2  1  0  0  0  0
 11 12  1  0  0  0  0
 13 14  2  0  0  0  0
 13 15  1  0  0  0  0
 15 16  1  0  0  0  0
 17 18  1  0  0  0  0
 18 19  2  0  0  0  0
 19 20  1  0  0  0  0
 20 24  1  0  0  0  0
 20 21  2  0  0  0  0
 21 22  1  0  0  0  0
 22 28  1  0  0  0  0
 22 23  2  0  0  0  0
 23 18  1  0  0  0  0
 24 25  1  0  0  0  0
 24 26  1  0  0  0  0
 24 27  1  0  0  0  0
 28 29  1  0  0  0  0
 28 30  1  0  0  0  0
 28 31  1  0  0  0  0
M  END
>  <Activity>
29.4

>  <minimizedAffinity>
-7.62396

>  <RFScoreVS_v2>
5.97355630056

$$$$
HIPS6276
 OpenBabel05252300073D

 31 32  0  0  0  0  0  0  0  0999 V2000
   70.2915   81.1991   89.9310 O   0  0  0  0  0  0  0  0  0  0  0  0
   72.1060   84.6602   88.3309 C   0  0  0  0  0  0  0  0  0  0  0  0
   72.8113   83.7830   89.1647 C   0  0  0  0  0  0  0  0  0  0  0  0
   72.1926   82.6485   89.6891 C   0  0  0  0  0  0  0  0  0  0  0  0
   70.8604   82.3622   89.3856 C   0  0  0  0  0  0  0  0  0  0  0  0
   70.1456   83.2345   88.5440 C   0  0  0  0  0  0  0  0  0  0  0  0
   70.7627   84.3693   87.9849 C   0  0  0  0  0  0  0  0  0  0  0  0
   73.2024   88.3449   87.8997 C   0  0  0  0  0  0  0  0  0  0  0  0
   72.4500   87.1491   88.3842 C   0  0  0  0  0  0  0  0  0  0  0  0
   71.5679   87.2878   89.2747 O   0  0  0  0  0  0  0  0  0  0  0  0
   72.7697   85.8471   87.8729 N   0  0  0  0  0  0  0  0  0  0  0  0
   73.4685   85.7653   87.1842 H   0  0  0  0  0  0  0  0  0  0  0  0
   70.0060   85.1879   87.0062 C   0  0  0  0  0  0  0  0  0  0  0  0
   68.9793   85.8228   87.3702 O   0  0  0  0  0  0  0  0  0  0  0  0
   70.3948   85.2355   85.6702 O   0  0  0  0  0  0  0  0  0  0  0  0
   71.1558   84.7681   85.3868 H   0  0  0  0  0  0  0  0  0  0  0  0
   71.0005   79.9958   90.2327 C   0  0  0  0  0  0  0  0  0  0  0  0
   70.0966   78.7970   90.0901 C   0  0  0  0  0  0  0  0  0  0  0  0
   70.0453   77.8238   91.0949 C   0  0  0  0  0  0  0  0  0  0  0  0
   69.1609   76.7291   91.0033 C   0  0  0  0  0  0  0  0  0  0  0  0
   68.3488   76.6320   89.8528 C   0  0  0  0  0  0  0  0  0  0  0  0
   68.4005   77.5835   88.8113 C   0  0  0  0  0  0  0  0  0  0  0  0
   69.2900   78.6686   88.9542 C   0  0  0  0  0  0  0  0  0  0  0  0
   69.0374   75.6637   92.1143 C   0  0  0  0  0  0  0  0  0  0  0  0
   69.7973   74.3541   91.7912 C   0  0  0  0  0  0  0  0  0  0  0  0
   67.5500   75.3013   92.3206 C   0  0  0  0  0  0  0  0  0  0  0  0
   69.6171   76.2266   93.4306 C   0  0  0  0  0  0  0  0  0  0  0  0
   67.4799   77.4177   87.5828 C   0  0  0  0  0  0  0  0  0  0  0  0
   66.4315   78.5515   87.5706 C   0  0  0  0  0  0  0  0  0  0  0  0
   68.2438   77.4704   86.2371 C   0  0  0  0  0  0  0  0  0  0  0  0
   66.7597   76.0526   87.6558 C   0  0  0  0  0  0  0  0  0  0  0  0
  1 17  1  0  0  0  0
  2  3  2  0  0  0  0
  3  4  1  0  0  0  0
  4  5  2  0  0  0  0
  5  1  1  0  0  0  0
  5  6  1  0  0  0  0
  6  7  2  0  0  0  0
  7 13  1  0  0  0  0
  7  2  1  0  0  0  0
  8  9  1  0  0  0  0
  9 10  2  0  0  0  0
  9 11  1  0  0  0  0
 11  2  1  0  0  0  0
 11 12  1  0  0  0  0
 13 14  2  0  0  0  0
 13 15  1  0  0  0  0
 15 16  1  0  0  0  0
 17 18  1  0  0  0  0
 18 19  2  0  0  0  0
 19 20  1  0  0  0  0
 20 24  1  0  0  0  0
 20 21  2  0  0  0  0
 21 22  1  0  0  0  0
 22 28  1  0  0  0  0
 22 23  2  0  0  0  0
 23 18  1  0  0  0  0
 24 25  1  0  0  0  0
 24 26  1  0  0  0  0
 24 27  1  0  0  0  0
 28 29  1  0  0  0  0
 28 30  1  0  0  0  0
 28 31  1  0  0  0  0
M  END
>  <Activity>
29.4

>  <minimizedAffinity>
-7.61311

>  <RFScoreVS_v2>
5.96104392369

$$$$
HIPS7022
 OpenBabel05252300073D

 39 41  0  0  0  0  0  0  0  0999 V2000
   67.3977   76.7542   89.1486 C   0  0  0  0  0  0  0  0  0  0  0  0
   66.9574   76.9196   87.8708 N   0  0  0  0  0  0  0  0  0  0  0  0
   66.6442   78.1476   87.3840 C   0  0  0  0  0  0  0  0  0  0  0  0
   66.7802   79.2779   88.1960 C   0  0  0  0  0  0  0  0  0  0  0  0
   67.2145   79.0897   89.5126 C   0  0  0  0  0  0  0  0  0  0  0  0
   67.5177   77.8429   89.9568 N   0  0  0  0  0  0  0  0  0  0  0  0
   69.0524   73.9686   91.1504 C   0  0  0  0  0  0  0  0  0  0  0  0
   68.4397   72.8392   90.5773 C   0  0  0  0  0  0  0  0  0  0  0  0
   67.5062   72.9862   89.5512 C   0  0  0  0  0  0  0  0  0  0  0  0
   67.1634   74.2568   89.0885 C   0  0  0  0  0  0  0  0  0  0  0  0
   67.7535   75.4034   89.6495 C   0  0  0  0  0  0  0  0  0  0  0  0
   68.6967   75.2450   90.6839 C   0  0  0  0  0  0  0  0  0  0  0  0
   70.0294   73.8536   92.2020 N   0  0  0  0  0  0  0  0  0  0  0  0
   70.9338   74.2029   92.0309 H   0  0  0  0  0  0  0  0  0  0  0  0
   69.7141   73.1385   93.7520 S   0  0  0  0  0  0  0  0  0  0  0  0
   70.9979   72.6237   94.3383 O   0  0  0  0  0  0  0  0  0  0  0  0
   68.7771   71.9785   93.5674 O   0  0  0  0  0  0  0  0  0  0  0  0
   68.9213   74.3467   94.8124 C   0  0  0  0  0  0  0  0  0  0  0  0
   67.7261   73.7707   95.5906 C   0  0  0  0  0  0  0  0  0  0  0  0
   66.3396   74.1096   95.0028 C   0  0  0  0  0  0  0  0  0  0  0  0
   66.3494   74.9176   93.6906 C   0  0  0  0  0  0  0  0  0  0  0  0
   65.8622   76.3659   93.8653 C   0  0  0  0  0  0  0  0  0  0  0  0
   66.9237   77.3908   93.4315 C   0  0  0  0  0  0  0  0  0  0  0  0
   65.0715   78.9693   94.1214 C   0  0  0  0  0  0  0  0  0  0  0  0
   66.3338   78.8022   93.2781 C   0  0  0  0  0  0  0  0  0  0  0  0
   66.4510   80.6486   87.6679 C   0  0  0  0  0  0  0  0  0  0  0  0
   67.0723   81.6607   88.4624 O   0  0  0  0  0  0  0  0  0  0  0  0
   67.9469   82.6498   87.9809 C   0  0  0  0  0  0  0  0  0  0  0  0
   67.4622   83.5505   87.0299 C   0  0  0  0  0  0  0  0  0  0  0  0
   68.2886   84.5456   86.5094 C   0  0  0  0  0  0  0  0  0  0  0  0
   69.6189   84.6605   86.9350 C   0  0  0  0  0  0  0  0  0  0  0  0
   70.4222   85.6659   86.3986 O   0  0  0  0  0  0  0  0  0  0  0  0
   70.1289   83.7635   87.9016 C   0  0  0  0  0  0  0  0  0  0  0  0
   69.2798   82.7649   88.4191 C   0  0  0  0  0  0  0  0  0  0  0  0
   70.0721   86.2539   85.7586 H   0  0  0  0  0  0  0  0  0  0  0  0
   71.5337   83.8491   88.3781 C   0  0  0  0  0  0  0  0  0  0  0  0
   71.8128   83.5942   89.5808 O   0  0  0  0  0  0  0  0  0  0  0  0
   72.5618   84.2047   87.5095 O   0  0  0  0  0  0  0  0  0  0  0  0
   72.3717   84.3974   86.6124 H   0  0  0  0  0  0  0  0  0  0  0  0
  1  2  2  0  0  0  0
  2  3  2  0  0  0  0
  3  4  2  0  0  0  0
  4 26  1  0  0  0  0
  4  5  1  0  0  0  0
  5  6  2  0  0  0  0
  6  1  2  0  0  0  0
  7  8  2  0  0  0  0
  8  9  1  0  0  0  0
  9 10  2  0  0  0  0
 10 11  1  0  0  0  0
 11  1  1  0  0  0  0
 11 12  2  0  0  0  0
 12  7  1  0  0  0  0
 13  7  1  0  0  0  0
 13 14  1  0  0  0  0
 15 16  2  0  0  0  0
 15 17  2  0  0  0  0
 15 13  1  0  0  0  0
 18 15  1  0  0  0  0
 19 18  1  0  0  0  0
 20 19  1  0  0  0  0
 21 20  1  0  0  0  0
 22 21  1  0  0  0  0
 23 22  1  0  0  0  0
 24 25  1  0  0  0  0
 25 23  1  0  0  0  0
 26 27  1  0  0  0  0
 27 28  1  0  0  0  0
 28 29  2  0  0  0  0
 29 30  1  0  0  0  0
 30 31  2  0  0  0  0
 31 32  1  0  0  0  0
 31 33  1  0  0  0  0
 32 35  1  0  0  0  0
 33 36  1  0  0  0  0
 33 34  2  0  0  0  0
 34 28  1  0  0  0  0
 36 37  2  0  0  0  0
 36 38  1  0  0  0  0
 38 39  1  0  0  0  0
M  END
>  <Activity>
30.7

>  <minimizedAffinity>
-8.57975

>  <RFScoreVS_v2>
5.96059029853

$$$$
HIPS7022
 OpenBabel05252300073D

 39 41  0  0  0  0  0  0  0  0999 V2000
   68.1356   76.9291   89.8675 C   0  0  0  0  0  0  0  0  0  0  0  0
   67.1170   77.8268   89.7647 N   0  0  0  0  0  0  0  0  0  0  0  0
   67.3350   79.1611   89.8878 C   0  0  0  0  0  0  0  0  0  0  0  0
   68.6286   79.6407   90.1158 C   0  0  0  0  0  0  0  0  0  0  0  0
   69.6614   78.7050   90.2390 C   0  0  0  0  0  0  0  0  0  0  0  0
   69.3974   77.3796   90.1075 N   0  0  0  0  0  0  0  0  0  0  0  0
   68.2910   73.1575   90.3741 C   0  0  0  0  0  0  0  0  0  0  0  0
   67.3894   72.7262   89.3840 C   0  0  0  0  0  0  0  0  0  0  0  0
   66.7464   73.6521   88.5623 C   0  0  0  0  0  0  0  0  0  0  0  0
   66.9841   75.0176   88.7203 C   0  0  0  0  0  0  0  0  0  0  0  0
   67.8735   75.4771   89.7079 C   0  0  0  0  0  0  0  0  0  0  0  0
   68.5198   74.5345   90.5317 C   0  0  0  0  0  0  0  0  0  0  0  0
   68.9822   72.2295   91.2311 N   0  0  0  0  0  0  0  0  0  0  0  0
   69.2863   71.3790   90.8393 H   0  0  0  0  0  0  0  0  0  0  0  0
   69.3134   72.5147   92.9111 S   0  0  0  0  0  0  0  0  0  0  0  0
   70.4897   73.4401   93.0413 O   0  0  0  0  0  0  0  0  0  0  0  0
   69.6629   71.2071   93.5634 O   0  0  0  0  0  0  0  0  0  0  0  0
   67.8446   73.1702   93.7023 C   0  0  0  0  0  0  0  0  0  0  0  0
   68.0907   73.6107   95.1553 C   0  0  0  0  0  0  0  0  0  0  0  0
   66.9475   74.4294   95.7920 C   0  0  0  0  0  0  0  0  0  0  0  0
   65.7648   74.7617   94.8615 C   0  0  0  0  0  0  0  0  0  0  0  0
   65.6995   76.2474   94.4690 C   0  0  0  0  0  0  0  0  0  0  0  0
   66.4594   76.5358   93.1633 C   0  0  0  0  0  0  0  0  0  0  0  0
   68.9444   76.7481   93.5858 C   0  0  0  0  0  0  0  0  0  0  0  0
   67.6333   77.5043   93.3813 C   0  0  0  0  0  0  0  0  0  0  0  0
   68.8905   81.1178   90.2406 C   0  0  0  0  0  0  0  0  0  0  0  0
   70.2640   81.4130   89.9800 O   0  0  0  0  0  0  0  0  0  0  0  0
   70.7393   82.5663   89.3329 C   0  0  0  0  0  0  0  0  0  0  0  0
   72.0630   82.9500   89.5597 C   0  0  0  0  0  0  0  0  0  0  0  0
   72.5846   84.0916   88.9525 C   0  0  0  0  0  0  0  0  0  0  0  0
   71.7898   84.8711   88.1012 C   0  0  0  0  0  0  0  0  0  0  0  0
   72.3379   86.0068   87.5065 O   0  0  0  0  0  0  0  0  0  0  0  0
   70.4491   84.4980   87.8522 C   0  0  0  0  0  0  0  0  0  0  0  0
   69.9379   83.3402   88.4722 C   0  0  0  0  0  0  0  0  0  0  0  0
   73.2279   86.2432   87.6798 H   0  0  0  0  0  0  0  0  0  0  0  0
   69.5718   85.2978   86.9585 C   0  0  0  0  0  0  0  0  0  0  0  0
   68.7856   84.7216   86.1590 O   0  0  0  0  0  0  0  0  0  0  0  0
   69.5977   86.6893   86.9914 O   0  0  0  0  0  0  0  0  0  0  0  0
   70.1761   87.1333   87.5798 H   0  0  0  0  0  0  0  0  0  0  0  0
  1  2  2  0  0  0  0
  2  3  2  0  0  0  0
  3  4  2  0  0  0  0
  4 26  1  0  0  0  0
  4  5  1  0  0  0  0
  5  6  2  0  0  0  0
  6  1  2  0  0  0  0
  7  8  2  0  0  0  0
  8  9  1  0  0  0  0
  9 10  2  0  0  0  0
 10 11  1  0  0  0  0
 11  1  1  0  0  0  0
 11 12  2  0  0  0  0
 12  7  1  0  0  0  0
 13  7  1  0  0  0  0
 13 14  1  0  0  0  0
 15 16  2  0  0  0  0
 15 17  2  0  0  0  0
 15 13  1  0  0  0  0
 18 15  1  0  0  0  0
 19 18  1  0  0  0  0
 20 19  1  0  0  0  0
 21 20  1  0  0  0  0
 22 21  1  0  0  0  0
 23 22  1  0  0  0  0
 24 25  1  0  0  0  0
 25 23  1  0  0  0  0
 26 27  1  0  0  0  0
 27 28  1  0  0  0  0
 28 29  2  0  0  0  0
 29 30  1  0  0  0  0
 30 31  2  0  0  0  0
 31 32  1  0  0  0  0
 31 33  1  0  0  0  0
 32 35  1  0  0  0  0
 33 36  1  0  0  0  0
 33 34  2  0  0  0  0
 34 28  1  0  0  0  0
 36 37  2  0  0  0  0
 36 38  1  0  0  0  0
 38 39  1  0  0  0  0
M  END
>  <Activity>
30.7

>  <minimizedAffinity>
-8.37096

>  <RFScoreVS_v2>
5.95124894817

$$$$
HIPS7022
 OpenBabel05252300073D

 39 41  0  0  0  0  0  0  0  0999 V2000
   67.7417   77.2474   92.3977 C   0  0  0  0  0  0  0  0  0  0  0  0
   66.8635   78.2667   92.1888 N   0  0  0  0  0  0  0  0  0  0  0  0
   67.1484   79.2817   91.3333 C   0  0  0  0  0  0  0  0  0  0  0  0
   68.3611   79.2905   90.6370 C   0  0  0  0  0  0  0  0  0  0  0  0
   69.2615   78.2470   90.8774 C   0  0  0  0  0  0  0  0  0  0  0  0
   68.9340   77.2517   91.7409 N   0  0  0  0  0  0  0  0  0  0  0  0
   68.0208   74.0861   94.5034 C   0  0  0  0  0  0  0  0  0  0  0  0
   66.7286   74.0290   95.0566 C   0  0  0  0  0  0  0  0  0  0  0  0
   65.7817   75.0040   94.7423 C   0  0  0  0  0  0  0  0  0  0  0  0
   66.1098   76.0522   93.8823 C   0  0  0  0  0  0  0  0  0  0  0  0
   67.3968   76.1390   93.3222 C   0  0  0  0  0  0  0  0  0  0  0  0
   68.3458   75.1486   93.6438 C   0  0  0  0  0  0  0  0  0  0  0  0
   69.0189   73.0902   94.7953 N   0  0  0  0  0  0  0  0  0  0  0  0
   69.3134   72.9929   95.7297 H   0  0  0  0  0  0  0  0  0  0  0  0
   69.7360   72.0501   93.6047 S   0  0  0  0  0  0  0  0  0  0  0  0
   70.2554   70.8075   94.2705 O   0  0  0  0  0  0  0  0  0  0  0  0
   70.8931   72.7682   92.9698 O   0  0  0  0  0  0  0  0  0  0  0  0
   68.5276   71.6829   92.3328 C   0  0  0  0  0  0  0  0  0  0  0  0
   68.8637   72.3318   90.9794 C   0  0  0  0  0  0  0  0  0  0  0  0
   67.6820   73.0405   90.2836 C   0  0  0  0  0  0  0  0  0  0  0  0
   67.8980   74.5296   89.9507 C   0  0  0  0  0  0  0  0  0  0  0  0
   67.1632   74.9800   88.6768 C   0  0  0  0  0  0  0  0  0  0  0  0
   66.7452   76.4588   88.7410 C   0  0  0  0  0  0  0  0  0  0  0  0
   67.0205   76.5952   86.2302 C   0  0  0  0  0  0  0  0  0  0  0  0
   67.3168   77.2710   87.5675 C   0  0  0  0  0  0  0  0  0  0  0  0
   68.6871   80.4006   89.6740 C   0  0  0  0  0  0  0  0  0  0  0  0
   69.8509   81.1134   90.0972 O   0  0  0  0  0  0  0  0  0  0  0  0
   70.3849   82.2481   89.4630 C   0  0  0  0  0  0  0  0  0  0  0  0
   71.7274   82.5587   89.6908 C   0  0  0  0  0  0  0  0  0  0  0  0
   72.3072   83.6788   89.0962 C   0  0  0  0  0  0  0  0  0  0  0  0
   71.5527   84.5095   88.2568 C   0  0  0  0  0  0  0  0  0  0  0  0
   72.1586   85.6221   87.6746 O   0  0  0  0  0  0  0  0  0  0  0  0
   70.1936   84.2106   88.0070 C   0  0  0  0  0  0  0  0  0  0  0  0
   69.6235   83.0737   88.6141 C   0  0  0  0  0  0  0  0  0  0  0  0
   73.0601   85.8092   87.8483 H   0  0  0  0  0  0  0  0  0  0  0  0
   69.3578   85.0665   87.1256 C   0  0  0  0  0  0  0  0  0  0  0  0
   69.4860   86.3204   87.1514 O   0  0  0  0  0  0  0  0  0  0  0  0
   68.4276   84.5029   86.2566 O   0  0  0  0  0  0  0  0  0  0  0  0
   68.3197   83.5726   86.2250 H   0  0  0  0  0  0  0  0  0  0  0  0
  1  2  2  0  0  0  0
  2  3  2  0  0  0  0
  3  4  2  0  0  0  0
  4 26  1  0  0  0  0
  4  5  1  0  0  0  0
  5  6  2  0  0  0  0
  6  1  2  0  0  0  0
  7  8  2  0  0  0  0
  8  9  1  0  0  0  0
  9 10  2  0  0  0  0
 10 11  1  0  0  0  0
 11  1  1  0  0  0  0
 11 12  2  0  0  0  0
 12  7  1  0  0  0  0
 13  7  1  0  0  0  0
 13 14  1  0  0  0  0
 15 16  2  0  0  0  0
 15 17  2  0  0  0  0
 15 13  1  0  0  0  0
 18 15  1  0  0  0  0
 19 18  1  0  0  0  0
 20 19  1  0  0  0  0
 21 20  1  0  0  0  0
 22 21  1  0  0  0  0
 23 22  1  0  0  0  0
 24 25  1  0  0  0  0
 25 23  1  0  0  0  0
 26 27  1  0  0  0  0
 27 28  1  0  0  0  0
 28 29  2  0  0  0  0
 29 30  1  0  0  0  0
 30 31  2  0  0  0  0
 31 32  1  0  0  0  0
 31 33  1  0  0  0  0
 32 35  1  0  0  0  0
 33 36  1  0  0  0  0
 33 34  2  0  0  0  0
 34 28  1  0  0  0  0
 36 37  2  0  0  0  0
 36 38  1  0  0  0  0
 38 39  1  0  0  0  0
M  END
>  <Activity>
30.7

>  <minimizedAffinity>
-8.26608

>  <RFScoreVS_v2>
5.95309466357

$$$$
HIPS7022
 OpenBabel05252300073D

 39 41  0  0  0  0  0  0  0  0999 V2000
   67.1040   76.9022   88.5774 C   0  0  0  0  0  0  0  0  0  0  0  0
   67.4807   77.3651   87.3536 N   0  0  0  0  0  0  0  0  0  0  0  0
   67.3687   78.6786   87.0291 C   0  0  0  0  0  0  0  0  0  0  0  0
   66.8666   79.5899   87.9633 C   0  0  0  0  0  0  0  0  0  0  0  0
   66.4651   79.0960   89.2092 C   0  0  0  0  0  0  0  0  0  0  0  0
   66.5964   77.7743   89.4910 N   0  0  0  0  0  0  0  0  0  0  0  0
   68.2590   73.6990   90.2836 C   0  0  0  0  0  0  0  0  0  0  0  0
   67.5588   72.7383   89.5314 C   0  0  0  0  0  0  0  0  0  0  0  0
   66.7280   73.1310   88.4818 C   0  0  0  0  0  0  0  0  0  0  0  0
   66.5757   74.4829   88.1729 C   0  0  0  0  0  0  0  0  0  0  0  0
   67.2566   75.4649   88.9142 C   0  0  0  0  0  0  0  0  0  0  0  0
   68.0950   75.0587   89.9710 C   0  0  0  0  0  0  0  0  0  0  0  0
   69.1349   73.3291   91.3650 N   0  0  0  0  0  0  0  0  0  0  0  0
   70.1039   73.4420   91.2325 H   0  0  0  0  0  0  0  0  0  0  0  0
   68.5911   72.6967   92.8875 S   0  0  0  0  0  0  0  0  0  0  0  0
   68.9091   71.2305   92.9650 O   0  0  0  0  0  0  0  0  0  0  0  0
   67.1007   72.8653   92.9761 O   0  0  0  0  0  0  0  0  0  0  0  0
   69.3487   73.6257   94.2202 C   0  0  0  0  0  0  0  0  0  0  0  0
   68.5342   74.8656   94.6270 C   0  0  0  0  0  0  0  0  0  0  0  0
   68.6298   76.0584   93.6519 C   0  0  0  0  0  0  0  0  0  0  0  0
   70.0479   76.6103   93.4080 C   0  0  0  0  0  0  0  0  0  0  0  0
   70.4771   76.5516   91.9323 C   0  0  0  0  0  0  0  0  0  0  0  0
   71.7611   77.3566   91.6697 C   0  0  0  0  0  0  0  0  0  0  0  0
   70.2218   78.1996   89.8480 C   0  0  0  0  0  0  0  0  0  0  0  0
   71.5955   78.3410   90.5005 C   0  0  0  0  0  0  0  0  0  0  0  0
   66.7489   81.0521   87.6252 C   0  0  0  0  0  0  0  0  0  0  0  0
   67.3073   81.8592   88.6637 O   0  0  0  0  0  0  0  0  0  0  0  0
   68.6186   82.3641   88.6852 C   0  0  0  0  0  0  0  0  0  0  0  0
   69.5459   81.7513   89.5309 C   0  0  0  0  0  0  0  0  0  0  0  0
   70.8583   82.2172   89.6009 C   0  0  0  0  0  0  0  0  0  0  0  0
   71.2693   83.3062   88.8204 C   0  0  0  0  0  0  0  0  0  0  0  0
   72.5880   83.7501   88.9096 O   0  0  0  0  0  0  0  0  0  0  0  0
   70.3491   83.9377   87.9525 C   0  0  0  0  0  0  0  0  0  0  0  0
   69.0271   83.4532   87.8922 C   0  0  0  0  0  0  0  0  0  0  0  0
   73.1880   83.3228   89.4887 H   0  0  0  0  0  0  0  0  0  0  0  0
   70.7432   85.0965   87.1101 C   0  0  0  0  0  0  0  0  0  0  0  0
   71.6137   85.9117   87.5188 O   0  0  0  0  0  0  0  0  0  0  0  0
   70.1662   85.2990   85.8594 O   0  0  0  0  0  0  0  0  0  0  0  0
   69.5177   84.7026   85.5405 H   0  0  0  0  0  0  0  0  0  0  0  0
  1  2  2  0  0  0  0
  2  3  2  0  0  0  0
  3  4  2  0  0  0  0
  4 26  1  0  0  0  0
  4  5  1  0  0  0  0
  5  6  2  0  0  0  0
  6  1  2  0  0  0  0
  7  8  2  0  0  0  0
  8  9  1  0  0  0  0
  9 10  2  0  0  0  0
 10 11  1  0  0  0  0
 11  1  1  0  0  0  0
 11 12  2  0  0  0  0
 12  7  1  0  0  0  0
 13  7  1  0  0  0  0
 13 14  1  0  0  0  0
 15 16  2  0  0  0  0
 15 17  2  0  0  0  0
 15 13  1  0  0  0  0
 18 15  1  0  0  0  0
 19 18  1  0  0  0  0
 20 19  1  0  0  0  0
 21 20  1  0  0  0  0
 22 21  1  0  0  0  0
 23 22  1  0  0  0  0
 24 25  1  0  0  0  0
 25 23  1  0  0  0  0
 26 27  1  0  0  0  0
 27 28  1  0  0  0  0
 28 29  2  0  0  0  0
 29 30  1  0  0  0  0
 30 31  2  0  0  0  0
 31 32  1  0  0  0  0
 31 33  1  0  0  0  0
 32 35  1  0  0  0  0
 33 36  1  0  0  0  0
 33 34  2  0  0  0  0
 34 28  1  0  0  0  0
 36 37  2  0  0  0  0
 36 38  1  0  0  0  0
 38 39  1  0  0  0  0
M  END
>  <Activity>
30.7

>  <minimizedAffinity>
-8.18341

>  <RFScoreVS_v2>
5.97685171089

$$$$
HIPS7022
 OpenBabel05252300073D

 39 41  0  0  0  0  0  0  0  0999 V2000
   69.8362   76.3818   90.9473 C   0  0  0  0  0  0  0  0  0  0  0  0
   71.0999   76.6271   91.3911 N   0  0  0  0  0  0  0  0  0  0  0  0
   71.7094   77.8192   91.1666 C   0  0  0  0  0  0  0  0  0  0  0  0
   71.0355   78.8305   90.4748 C   0  0  0  0  0  0  0  0  0  0  0  0
   69.7455   78.5564   90.0077 C   0  0  0  0  0  0  0  0  0  0  0  0
   69.1743   77.3500   90.2565 N   0  0  0  0  0  0  0  0  0  0  0  0
   68.8380   73.1452   92.6889 C   0  0  0  0  0  0  0  0  0  0  0  0
   67.9651   72.5953   91.7324 C   0  0  0  0  0  0  0  0  0  0  0  0
   67.7118   73.2688   90.5373 C   0  0  0  0  0  0  0  0  0  0  0  0
   68.3152   74.5004   90.2820 C   0  0  0  0  0  0  0  0  0  0  0  0
   69.1849   75.0774   91.2245 C   0  0  0  0  0  0  0  0  0  0  0  0
   69.4362   74.3890   92.4277 C   0  0  0  0  0  0  0  0  0  0  0  0
   69.1325   72.4719   93.9273 N   0  0  0  0  0  0  0  0  0  0  0  0
   69.3755   71.5187   93.8872 H   0  0  0  0  0  0  0  0  0  0  0  0
   69.0862   73.2339   95.4864 S   0  0  0  0  0  0  0  0  0  0  0  0
   69.9778   74.4430   95.4814 O   0  0  0  0  0  0  0  0  0  0  0  0
   69.6035   72.2661   96.5127 O   0  0  0  0  0  0  0  0  0  0  0  0
   67.3901   73.6443   95.8958 C   0  0  0  0  0  0  0  0  0  0  0  0
   67.0065   75.0798   95.4983 C   0  0  0  0  0  0  0  0  0  0  0  0
   66.1432   75.1960   94.2240 C   0  0  0  0  0  0  0  0  0  0  0  0
   65.8863   76.6292   93.7190 C   0  0  0  0  0  0  0  0  0  0  0  0
   67.1738   77.3777   93.3349 C   0  0  0  0  0  0  0  0  0  0  0  0
   67.0167   78.9026   93.4595 C   0  0  0  0  0  0  0  0  0  0  0  0
   65.4728   80.0465   91.8144 C   0  0  0  0  0  0  0  0  0  0  0  0
   65.5767   79.3592   93.1744 C   0  0  0  0  0  0  0  0  0  0  0  0
   71.6910   80.1633   90.2295 C   0  0  0  0  0  0  0  0  0  0  0  0
   70.7172   81.1523   89.8900 O   0  0  0  0  0  0  0  0  0  0  0  0
   70.9923   82.3896   89.2830 C   0  0  0  0  0  0  0  0  0  0  0  0
   72.2317   82.9835   89.5317 C   0  0  0  0  0  0  0  0  0  0  0  0
   72.5544   84.2157   88.9646 C   0  0  0  0  0  0  0  0  0  0  0  0
   71.6412   84.8770   88.1323 C   0  0  0  0  0  0  0  0  0  0  0  0
   71.9909   86.1074   87.5777 O   0  0  0  0  0  0  0  0  0  0  0  0
   70.3832   84.2912   87.8616 C   0  0  0  0  0  0  0  0  0  0  0  0
   70.0736   83.0444   88.4410 C   0  0  0  0  0  0  0  0  0  0  0  0
   72.8278   86.4849   87.7650 H   0  0  0  0  0  0  0  0  0  0  0  0
   69.3854   84.9600   86.9869 C   0  0  0  0  0  0  0  0  0  0  0  0
   68.4453   84.2957   86.4730 O   0  0  0  0  0  0  0  0  0  0  0  0
   69.4666   86.3249   86.7250 O   0  0  0  0  0  0  0  0  0  0  0  0
   70.1590   86.8333   87.0991 H   0  0  0  0  0  0  0  0  0  0  0  0
  1  2  2  0  0  0  0
  2  3  2  0  0  0  0
  3  4  2  0  0  0  0
  4 26  1  0  0  0  0
  4  5  1  0  0  0  0
  5  6  2  0  0  0  0
  6  1  2  0  0  0  0
  7  8  2  0  0  0  0
  8  9  1  0  0  0  0
  9 10  2  0  0  0  0
 10 11  1  0  0  0  0
 11  1  1  0  0  0  0
 11 12  2  0  0  0  0
 12  7  1  0  0  0  0
 13  7  1  0  0  0  0
 13 14  1  0  0  0  0
 15 16  2  0  0  0  0
 15 17  2  0  0  0  0
 15 13  1  0  0  0  0
 18 15  1  0  0  0  0
 19 18  1  0  0  0  0
 20 19  1  0  0  0  0
 21 20  1  0  0  0  0
 22 21  1  0  0  0  0
 23 22  1  0  0  0  0
 24 25  1  0  0  0  0
 25 23  1  0  0  0  0
 26 27  1  0  0  0  0
 27 28  1  0  0  0  0
 28 29  2  0  0  0  0
 29 30  1  0  0  0  0
 30 31  2  0  0  0  0
 31 32  1  0  0  0  0
 31 33  1  0  0  0  0
 32 35  1  0  0  0  0
 33 36  1  0  0  0  0
 33 34  2  0  0  0  0
 34 28  1  0  0  0  0
 36 37  2  0  0  0  0
 36 38  1  0  0  0  0
 38 39  1  0  0  0  0
M  END
>  <Activity>
30.7

>  <minimizedAffinity>
-8.10061

>  <RFScoreVS_v2>
5.96008823854

$$$$
HIPS7022
 OpenBabel05252300073D

 39 41  0  0  0  0  0  0  0  0999 V2000
   69.7394   80.3710   90.2648 C   0  0  0  0  0  0  0  0  0  0  0  0
   68.4570   80.5330   90.6926 N   0  0  0  0  0  0  0  0  0  0  0  0
   67.6597   79.4666   90.9578 C   0  0  0  0  0  0  0  0  0  0  0  0
   68.1538   78.1677   90.8024 C   0  0  0  0  0  0  0  0  0  0  0  0
   69.4666   78.0173   90.3429 C   0  0  0  0  0  0  0  0  0  0  0  0
   70.2286   79.1127   90.0913 N   0  0  0  0  0  0  0  0  0  0  0  0
   70.8327   83.9056   89.3613 C   0  0  0  0  0  0  0  0  0  0  0  0
   72.2289   83.7838   89.4837 C   0  0  0  0  0  0  0  0  0  0  0  0
   72.8024   82.5661   89.8501 C   0  0  0  0  0  0  0  0  0  0  0  0
   71.9956   81.4576   90.1081 C   0  0  0  0  0  0  0  0  0  0  0  0
   70.5967   81.5536   90.0022 C   0  0  0  0  0  0  0  0  0  0  0  0
   70.0266   82.7869   89.6296 C   0  0  0  0  0  0  0  0  0  0  0  0
   70.2074   85.1432   88.9727 N   0  0  0  0  0  0  0  0  0  0  0  0
   69.9205   85.7584   89.6858 H   0  0  0  0  0  0  0  0  0  0  0  0
   69.9273   85.6195   87.3271 S   0  0  0  0  0  0  0  0  0  0  0  0
   71.2349   85.6707   86.5892 O   0  0  0  0  0  0  0  0  0  0  0  0
   69.3225   86.9949   87.3184 O   0  0  0  0  0  0  0  0  0  0  0  0
   68.7661   84.4830   86.5701 C   0  0  0  0  0  0  0  0  0  0  0  0
   67.4256   84.4053   87.3204 C   0  0  0  0  0  0  0  0  0  0  0  0
   67.1250   83.0430   87.9809 C   0  0  0  0  0  0  0  0  0  0  0  0
   67.4900   81.8002   87.1459 C   0  0  0  0  0  0  0  0  0  0  0  0
   66.6961   80.5451   87.5458 C   0  0  0  0  0  0  0  0  0  0  0  0
   67.4829   79.2513   87.2761 C   0  0  0  0  0  0  0  0  0  0  0  0
   66.9883   76.9284   86.4056 C   0  0  0  0  0  0  0  0  0  0  0  0
   66.6024   77.9997   87.4234 C   0  0  0  0  0  0  0  0  0  0  0  0
   67.2881   76.9741   91.1056 C   0  0  0  0  0  0  0  0  0  0  0  0
   66.7681   77.0494   92.4343 O   0  0  0  0  0  0  0  0  0  0  0  0
   66.8968   76.0517   93.4156 C   0  0  0  0  0  0  0  0  0  0  0  0
   65.8172   75.8292   94.2734 C   0  0  0  0  0  0  0  0  0  0  0  0
   65.8931   74.8595   95.2724 C   0  0  0  0  0  0  0  0  0  0  0  0
   67.0533   74.0893   95.4298 C   0  0  0  0  0  0  0  0  0  0  0  0
   67.1010   73.1258   96.4364 O   0  0  0  0  0  0  0  0  0  0  0  0
   68.1559   74.2931   94.5687 C   0  0  0  0  0  0  0  0  0  0  0  0
   68.0621   75.2757   93.5629 C   0  0  0  0  0  0  0  0  0  0  0  0
   66.3634   73.0006   97.0005 H   0  0  0  0  0  0  0  0  0  0  0  0
   69.4053   73.5000   94.7031 C   0  0  0  0  0  0  0  0  0  0  0  0
   70.2637   73.5064   93.7798 O   0  0  0  0  0  0  0  0  0  0  0  0
   69.6520   72.7447   95.8461 O   0  0  0  0  0  0  0  0  0  0  0  0
   69.0244   72.7289   96.5418 H   0  0  0  0  0  0  0  0  0  0  0  0
  1  2  2  0  0  0  0
  2  3  2  0  0  0  0
  3  4  2  0  0  0  0
  4 26  1  0  0  0  0
  4  5  1  0  0  0  0
  5  6  2  0  0  0  0
  6  1  2  0  0  0  0
  7  8  2  0  0  0  0
  8  9  1  0  0  0  0
  9 10  2  0  0  0  0
 10 11  1  0  0  0  0
 11  1  1  0  0  0  0
 11 12  2  0  0  0  0
 12  7  1  0  0  0  0
 13  7  1  0  0  0  0
 13 14  1  0  0  0  0
 15 16  2  0  0  0  0
 15 17  2  0  0  0  0
 15 13  1  0  0  0  0
 18 15  1  0  0  0  0
 19 18  1  0  0  0  0
 20 19  1  0  0  0  0
 21 20  1  0  0  0  0
 22 21  1  0  0  0  0
 23 22  1  0  0  0  0
 24 25  1  0  0  0  0
 25 23  1  0  0  0  0
 26 27  1  0  0  0  0
 27 28  1  0  0  0  0
 28 29  2  0  0  0  0
 29 30  1  0  0  0  0
 30 31  2  0  0  0  0
 31 32  1  0  0  0  0
 31 33  1  0  0  0  0
 32 35  1  0  0  0  0
 33 36  1  0  0  0  0
 33 34  2  0  0  0  0
 34 28  1  0  0  0  0
 36 37  2  0  0  0  0
 36 38  1  0  0  0  0
 38 39  1  0  0  0  0
M  END
>  <Activity>
30.7

>  <minimizedAffinity>
-7.88925

>  <RFScoreVS_v2>
5.95407944026

$$$$
HIPS7022
 OpenBabel05252300073D

 39 41  0  0  0  0  0  0  0  0999 V2000
   66.8043   77.5341   92.8689 C   0  0  0  0  0  0  0  0  0  0  0  0
   66.0046   78.6230   93.0387 N   0  0  0  0  0  0  0  0  0  0  0  0
   66.1416   79.7289   92.2632 C   0  0  0  0  0  0  0  0  0  0  0  0
   67.1134   79.7631   91.2584 C   0  0  0  0  0  0  0  0  0  0  0  0
   67.9406   78.6446   91.1094 C   0  0  0  0  0  0  0  0  0  0  0  0
   67.7670   77.5595   91.9069 N   0  0  0  0  0  0  0  0  0  0  0  0
   67.1260   73.9859   94.2150 C   0  0  0  0  0  0  0  0  0  0  0  0
   66.2472   74.0448   95.3121 C   0  0  0  0  0  0  0  0  0  0  0  0
   65.5582   75.2223   95.6029 C   0  0  0  0  0  0  0  0  0  0  0  0
   65.7406   76.3578   94.8133 C   0  0  0  0  0  0  0  0  0  0  0  0
   66.6198   76.3297   93.7161 C   0  0  0  0  0  0  0  0  0  0  0  0
   67.3098   75.1355   93.4289 C   0  0  0  0  0  0  0  0  0  0  0  0
   67.8436   72.7839   93.8777 N   0  0  0  0  0  0  0  0  0  0  0  0
   67.3269   71.9523   93.7745 H   0  0  0  0  0  0  0  0  0  0  0  0
   69.5617   72.7078   93.6416 S   0  0  0  0  0  0  0  0  0  0  0  0
   70.0702   71.3640   94.0807 O   0  0  0  0  0  0  0  0  0  0  0  0
   70.2133   73.7629   94.4899 O   0  0  0  0  0  0  0  0  0  0  0  0
   69.9397   73.0467   91.9225 C   0  0  0  0  0  0  0  0  0  0  0  0
   68.8349   72.5776   90.9606 C   0  0  0  0  0  0  0  0  0  0  0  0
   68.0703   73.7099   90.2423 C   0  0  0  0  0  0  0  0  0  0  0  0
   67.1861   73.2729   89.0582 C   0  0  0  0  0  0  0  0  0  0  0  0
   66.7862   74.4374   88.1365 C   0  0  0  0  0  0  0  0  0  0  0  0
   67.1114   75.8062   88.7578 C   0  0  0  0  0  0  0  0  0  0  0  0
   67.0932   76.4784   86.3193 C   0  0  0  0  0  0  0  0  0  0  0  0
   66.9078   76.9563   87.7581 C   0  0  0  0  0  0  0  0  0  0  0  0
   67.2695   80.9757   90.3801 C   0  0  0  0  0  0  0  0  0  0  0  0
   68.6172   81.0996   89.9217 O   0  0  0  0  0  0  0  0  0  0  0  0
   69.2580   82.3075   89.5975 C   0  0  0  0  0  0  0  0  0  0  0  0
   68.4675   83.4455   89.4222 C   0  0  0  0  0  0  0  0  0  0  0  0
   69.0485   84.6684   89.0891 C   0  0  0  0  0  0  0  0  0  0  0  0
   70.4365   84.7765   88.9284 C   0  0  0  0  0  0  0  0  0  0  0  0
   70.9906   86.0121   88.5965 O   0  0  0  0  0  0  0  0  0  0  0  0
   71.2567   83.6389   89.1073 C   0  0  0  0  0  0  0  0  0  0  0  0
   70.6538   82.4109   89.4458 C   0  0  0  0  0  0  0  0  0  0  0  0
   70.4359   86.7583   88.4807 H   0  0  0  0  0  0  0  0  0  0  0  0
   72.7320   83.7096   88.9439 C   0  0  0  0  0  0  0  0  0  0  0  0
   73.2328   84.2971   87.9472 O   0  0  0  0  0  0  0  0  0  0  0  0
   73.5829   83.1370   89.8852 O   0  0  0  0  0  0  0  0  0  0  0  0
   73.2270   82.6966   90.6318 H   0  0  0  0  0  0  0  0  0  0  0  0
  1  2  2  0  0  0  0
  2  3  2  0  0  0  0
  3  4  2  0  0  0  0
  4 26  1  0  0  0  0
  4  5  1  0  0  0  0
  5  6  2  0  0  0  0
  6  1  2  0  0  0  0
  7  8  2  0  0  0  0
  8  9  1  0  0  0  0
  9 10  2  0  0  0  0
 10 11  1  0  0  0  0
 11  1  1  0  0  0  0
 11 12  2  0  0  0  0
 12  7  1  0  0  0  0
 13  7  1  0  0  0  0
 13 14  1  0  0  0  0
 15 16  2  0  0  0  0
 15 17  2  0  0  0  0
 15 13  1  0  0  0  0
 18 15  1  0  0  0  0
 19 18  1  0  0  0  0
 20 19  1  0  0  0  0
 21 20  1  0  0  0  0
 22 21  1  0  0  0  0
 23 22  1  0  0  0  0
 24 25  1  0  0  0  0
 25 23  1  0  0  0  0
 26 27  1  0  0  0  0
 27 28  1  0  0  0  0
 28 29  2  0  0  0  0
 29 30  1  0  0  0  0
 30 31  2  0  0  0  0
 31 32  1  0  0  0  0
 31 33  1  0  0  0  0
 32 35  1  0  0  0  0
 33 36  1  0  0  0  0
 33 34  2  0  0  0  0
 34 28  1  0  0  0  0
 36 37  2  0  0  0  0
 36 38  1  0  0  0  0
 38 39  1  0  0  0  0
M  END
>  <Activity>
30.7

>  <minimizedAffinity>
-7.80449

>  <RFScoreVS_v2>
5.9535424928

$$$$
HIPS7022
 OpenBabel05252300073D

 39 41  0  0  0  0  0  0  0  0999 V2000
   67.2077   76.7384   88.6507 C   0  0  0  0  0  0  0  0  0  0  0  0
   67.4730   77.1399   87.3770 N   0  0  0  0  0  0  0  0  0  0  0  0
   67.3381   78.4377   87.0019 C   0  0  0  0  0  0  0  0  0  0  0  0
   66.9280   79.3965   87.9336 C   0  0  0  0  0  0  0  0  0  0  0  0
   66.6399   78.9652   89.2330 C   0  0  0  0  0  0  0  0  0  0  0  0
   66.7901   77.6571   89.5642 N   0  0  0  0  0  0  0  0  0  0  0  0
   68.4156   73.6194   90.4723 C   0  0  0  0  0  0  0  0  0  0  0  0
   67.7298   72.6205   89.7574 C   0  0  0  0  0  0  0  0  0  0  0  0
   66.8916   72.9609   88.6955 C   0  0  0  0  0  0  0  0  0  0  0  0
   66.7175   74.2977   88.3370 C   0  0  0  0  0  0  0  0  0  0  0  0
   67.3836   75.3172   89.0402 C   0  0  0  0  0  0  0  0  0  0  0  0
   68.2296   74.9638   90.1099 C   0  0  0  0  0  0  0  0  0  0  0  0
   69.2985   73.3037   91.5651 N   0  0  0  0  0  0  0  0  0  0  0  0
   70.2631   73.4523   91.4360 H   0  0  0  0  0  0  0  0  0  0  0  0
   68.7705   72.6777   93.0957 S   0  0  0  0  0  0  0  0  0  0  0  0
   69.6279   71.5063   93.4823 O   0  0  0  0  0  0  0  0  0  0  0  0
   67.3512   72.2037   92.9602 O   0  0  0  0  0  0  0  0  0  0  0  0
   68.8186   73.9860   94.3201 C   0  0  0  0  0  0  0  0  0  0  0  0
   67.4246   74.5359   94.6669 C   0  0  0  0  0  0  0  0  0  0  0  0
   66.6149   75.0677   93.4651 C   0  0  0  0  0  0  0  0  0  0  0  0
   66.7144   76.5845   93.2107 C   0  0  0  0  0  0  0  0  0  0  0  0
   68.0820   77.1759   93.5919 C   0  0  0  0  0  0  0  0  0  0  0  0
   68.9860   77.3832   92.3650 C   0  0  0  0  0  0  0  0  0  0  0  0
   71.2689   76.9912   91.3484 C   0  0  0  0  0  0  0  0  0  0  0  0
   70.3466   76.6860   92.5269 C   0  0  0  0  0  0  0  0  0  0  0  0
   66.7870   80.8422   87.5384 C   0  0  0  0  0  0  0  0  0  0  0  0
   67.4005   81.6947   88.5071 O   0  0  0  0  0  0  0  0  0  0  0  0
   68.6443   82.3317   88.3582 C   0  0  0  0  0  0  0  0  0  0  0  0
   68.8285   83.1656   87.2531 C   0  0  0  0  0  0  0  0  0  0  0  0
   70.0456   83.8147   87.0493 C   0  0  0  0  0  0  0  0  0  0  0  0
   71.1033   83.6437   87.9526 C   0  0  0  0  0  0  0  0  0  0  0  0
   72.3088   84.3060   87.7247 O   0  0  0  0  0  0  0  0  0  0  0  0
   70.9369   82.8092   89.0817 C   0  0  0  0  0  0  0  0  0  0  0  0
   69.6999   82.1621   89.2741 C   0  0  0  0  0  0  0  0  0  0  0  0
   72.4061   84.8563   86.9725 H   0  0  0  0  0  0  0  0  0  0  0  0
   72.0335   82.5988   90.0622 C   0  0  0  0  0  0  0  0  0  0  0  0
   73.2326   82.7927   89.7249 O   0  0  0  0  0  0  0  0  0  0  0  0
   71.7582   82.1918   91.3647 O   0  0  0  0  0  0  0  0  0  0  0  0
   70.8724   82.0433   91.6319 H   0  0  0  0  0  0  0  0  0  0  0  0
  1  2  2  0  0  0  0
  2  3  2  0  0  0  0
  3  4  2  0  0  0  0
  4 26  1  0  0  0  0
  4  5  1  0  0  0  0
  5  6  2  0  0  0  0
  6  1  2  0  0  0  0
  7  8  2  0  0  0  0
  8  9  1  0  0  0  0
  9 10  2  0  0  0  0
 10 11  1  0  0  0  0
 11  1  1  0  0  0  0
 11 12  2  0  0  0  0
 12  7  1  0  0  0  0
 13  7  1  0  0  0  0
 13 14  1  0  0  0  0
 15 16  2  0  0  0  0
 15 17  2  0  0  0  0
 15 13  1  0  0  0  0
 18 15  1  0  0  0  0
 19 18  1  0  0  0  0
 20 19  1  0  0  0  0
 21 20  1  0  0  0  0
 22 21  1  0  0  0  0
 23 22  1  0  0  0  0
 24 25  1  0  0  0  0
 25 23  1  0  0  0  0
 26 27  1  0  0  0  0
 27 28  1  0  0  0  0
 28 29  2  0  0  0  0
 29 30  1  0  0  0  0
 30 31  2  0  0  0  0
 31 32  1  0  0  0  0
 31 33  1  0  0  0  0
 32 35  1  0  0  0  0
 33 36  1  0  0  0  0
 33 34  2  0  0  0  0
 34 28  1  0  0  0  0
 36 37  2  0  0  0  0
 36 38  1  0  0  0  0
 38 39  1  0  0  0  0
M  END
>  <Activity>
30.7

>  <minimizedAffinity>
-7.76302

>  <RFScoreVS_v2>
5.97762142369

$$$$
HIPS7022
 OpenBabel05252300073D

 39 41  0  0  0  0  0  0  0  0999 V2000
   68.2518   76.3772   90.8670 C   0  0  0  0  0  0  0  0  0  0  0  0
   69.5005   75.8584   91.0263 N   0  0  0  0  0  0  0  0  0  0  0  0
   69.8122   75.0802   92.0942 C   0  0  0  0  0  0  0  0  0  0  0  0
   68.8391   74.7881   93.0550 C   0  0  0  0  0  0  0  0  0  0  0  0
   67.5665   75.3449   92.8881 C   0  0  0  0  0  0  0  0  0  0  0  0
   67.2990   76.1167   91.8036 N   0  0  0  0  0  0  0  0  0  0  0  0
   67.7479   79.4031   88.6097 C   0  0  0  0  0  0  0  0  0  0  0  0
   67.3000   78.7760   87.4326 C   0  0  0  0  0  0  0  0  0  0  0  0
   67.1605   77.3890   87.3802 C   0  0  0  0  0  0  0  0  0  0  0  0
   67.4729   76.6078   88.4930 C   0  0  0  0  0  0  0  0  0  0  0  0
   67.9313   77.2075   89.6794 C   0  0  0  0  0  0  0  0  0  0  0  0
   68.0672   78.6091   89.7237 C   0  0  0  0  0  0  0  0  0  0  0  0
   67.8913   80.8328   88.7037 N   0  0  0  0  0  0  0  0  0  0  0  0
   67.5550   81.3798   87.9573 H   0  0  0  0  0  0  0  0  0  0  0  0
   68.6193   81.6535   90.0490 S   0  0  0  0  0  0  0  0  0  0  0  0
   67.9383   81.2351   91.3211 O   0  0  0  0  0  0  0  0  0  0  0  0
   68.4292   83.1334   89.8726 O   0  0  0  0  0  0  0  0  0  0  0  0
   70.3774   81.3052   90.0754 C   0  0  0  0  0  0  0  0  0  0  0  0
   71.2245   82.5206   90.4892 C   0  0  0  0  0  0  0  0  0  0  0  0
   72.5885   82.6390   89.7764 C   0  0  0  0  0  0  0  0  0  0  0  0
   72.8151   83.9378   88.9784 C   0  0  0  0  0  0  0  0  0  0  0  0
   71.7567   84.1731   87.8876 C   0  0  0  0  0  0  0  0  0  0  0  0
   71.4966   85.6695   87.6456 C   0  0  0  0  0  0  0  0  0  0  0  0
   69.3684   84.6744   86.7081 C   0  0  0  0  0  0  0  0  0  0  0  0
   70.0418   85.9420   87.2300 C   0  0  0  0  0  0  0  0  0  0  0  0
   69.1636   73.9153   94.2378 C   0  0  0  0  0  0  0  0  0  0  0  0
   68.9333   72.5390   93.9306 O   0  0  0  0  0  0  0  0  0  0  0  0
   69.8363   71.6922   93.2655 C   0  0  0  0  0  0  0  0  0  0  0  0
   69.3686   70.9607   92.1715 C   0  0  0  0  0  0  0  0  0  0  0  0
   70.2175   70.0968   91.4806 C   0  0  0  0  0  0  0  0  0  0  0  0
   71.5556   69.9512   91.8707 C   0  0  0  0  0  0  0  0  0  0  0  0
   72.3822   69.0813   91.1608 O   0  0  0  0  0  0  0  0  0  0  0  0
   72.0522   70.6867   92.9713 C   0  0  0  0  0  0  0  0  0  0  0  0
   71.1817   71.5570   93.6574 C   0  0  0  0  0  0  0  0  0  0  0  0
   72.0408   68.5997   90.4333 H   0  0  0  0  0  0  0  0  0  0  0  0
   73.4634   70.5598   93.4191 C   0  0  0  0  0  0  0  0  0  0  0  0
   73.7687   69.7473   94.3334 O   0  0  0  0  0  0  0  0  0  0  0  0
   74.4688   71.3268   92.8370 O   0  0  0  0  0  0  0  0  0  0  0  0
   74.2591   71.9355   92.1562 H   0  0  0  0  0  0  0  0  0  0  0  0
  1  2  2  0  0  0  0
  2  3  2  0  0  0  0
  3  4  2  0  0  0  0
  4 26  1  0  0  0  0
  4  5  1  0  0  0  0
  5  6  2  0  0  0  0
  6  1  2  0  0  0  0
  7  8  2  0  0  0  0
  8  9  1  0  0  0  0
  9 10  2  0  0  0  0
 10 11  1  0  0  0  0
 11  1  1  0  0  0  0
 11 12  2  0  0  0  0
 12  7  1  0  0  0  0
 13  7  1  0  0  0  0
 13 14  1  0  0  0  0
 15 16  2  0  0  0  0
 15 17  2  0  0  0  0
 15 13  1  0  0  0  0
 18 15  1  0  0  0  0
 19 18  1  0  0  0  0
 20 19  1  0  0  0  0
 21 20  1  0  0  0  0
 22 21  1  0  0  0  0
 23 22  1  0  0  0  0
 24 25  1  0  0  0  0
 25 23  1  0  0  0  0
 26 27  1  0  0  0  0
 27 28  1  0  0  0  0
 28 29  2  0  0  0  0
 29 30  1  0  0  0  0
 30 31  2  0  0  0  0
 31 32  1  0  0  0  0
 31 33  1  0  0  0  0
 32 35  1  0  0  0  0
 33 36  1  0  0  0  0
 33 34  2  0  0  0  0
 34 28  1  0  0  0  0
 36 37  2  0  0  0  0
 36 38  1  0  0  0  0
 38 39  1  0  0  0  0
M  END
>  <Activity>
30.7

>  <minimizedAffinity>
-7.74593

>  <RFScoreVS_v2>
5.95689071421

$$$$
HIPS7022
 OpenBabel05252300073D

 39 41  0  0  0  0  0  0  0  0999 V2000
   67.8651   76.7855   89.8597 C   0  0  0  0  0  0  0  0  0  0  0  0
   66.8164   77.1600   89.0762 N   0  0  0  0  0  0  0  0  0  0  0  0
   66.5771   78.4657   88.7915 C   0  0  0  0  0  0  0  0  0  0  0  0
   67.4215   79.4586   89.2981 C   0  0  0  0  0  0  0  0  0  0  0  0
   68.4827   79.0597   90.1179 C   0  0  0  0  0  0  0  0  0  0  0  0
   68.6851   77.7419   90.3751 N   0  0  0  0  0  0  0  0  0  0  0  0
   69.4009   73.5995   91.2726 C   0  0  0  0  0  0  0  0  0  0  0  0
   68.6031   72.6266   90.6431 C   0  0  0  0  0  0  0  0  0  0  0  0
   67.5847   73.0059   89.7685 C   0  0  0  0  0  0  0  0  0  0  0  0
   67.3407   74.3560   89.5158 C   0  0  0  0  0  0  0  0  0  0  0  0
   68.1169   75.3497   90.1383 C   0  0  0  0  0  0  0  0  0  0  0  0
   69.1445   74.9571   91.0185 C   0  0  0  0  0  0  0  0  0  0  0  0
   70.4687   73.2439   92.1708 N   0  0  0  0  0  0  0  0  0  0  0  0
   71.3918   73.4394   91.8896 H   0  0  0  0  0  0  0  0  0  0  0  0
   70.2323   72.4927   93.7177 S   0  0  0  0  0  0  0  0  0  0  0  0
   71.5498   71.9966   94.2421 O   0  0  0  0  0  0  0  0  0  0  0  0
   69.3146   71.3152   93.5478 O   0  0  0  0  0  0  0  0  0  0  0  0
   69.4562   73.6622   94.8326 C   0  0  0  0  0  0  0  0  0  0  0  0
   69.7772   75.1261   94.4864 C   0  0  0  0  0  0  0  0  0  0  0  0
   68.7253   76.1537   94.9554 C   0  0  0  0  0  0  0  0  0  0  0  0
   67.9267   76.8509   93.8367 C   0  0  0  0  0  0  0  0  0  0  0  0
   66.6396   76.1021   93.4521 C   0  0  0  0  0  0  0  0  0  0  0  0
   65.8555   75.6255   94.6865 C   0  0  0  0  0  0  0  0  0  0  0  0
   66.3341   73.4488   93.4901 C   0  0  0  0  0  0  0  0  0  0  0  0
   65.7463   74.0931   94.7439 C   0  0  0  0  0  0  0  0  0  0  0  0
   67.1792   80.9100   88.9807 C   0  0  0  0  0  0  0  0  0  0  0  0
   68.1309   81.3862   88.0272 O   0  0  0  0  0  0  0  0  0  0  0  0
   68.5335   82.7244   87.8787 C   0  0  0  0  0  0  0  0  0  0  0  0
   67.5480   83.6859   87.6442 C   0  0  0  0  0  0  0  0  0  0  0  0
   67.8909   85.0272   87.4783 C   0  0  0  0  0  0  0  0  0  0  0  0
   69.2304   85.4331   87.5480 C   0  0  0  0  0  0  0  0  0  0  0  0
   69.5443   86.7811   87.3796 O   0  0  0  0  0  0  0  0  0  0  0  0
   70.2439   84.4778   87.7908 C   0  0  0  0  0  0  0  0  0  0  0  0
   69.8802   83.1265   87.9583 C   0  0  0  0  0  0  0  0  0  0  0  0
   68.8631   87.4043   87.2192 H   0  0  0  0  0  0  0  0  0  0  0  0
   71.6762   84.8656   87.8697 C   0  0  0  0  0  0  0  0  0  0  0  0
   72.5766   84.0305   87.5847 O   0  0  0  0  0  0  0  0  0  0  0  0
   72.0476   86.1517   88.2519 O   0  0  0  0  0  0  0  0  0  0  0  0
   71.3910   86.7845   88.4670 H   0  0  0  0  0  0  0  0  0  0  0  0
  1  2  2  0  0  0  0
  2  3  2  0  0  0  0
  3  4  2  0  0  0  0
  4 26  1  0  0  0  0
  4  5  1  0  0  0  0
  5  6  2  0  0  0  0
  6  1  2  0  0  0  0
  7  8  2  0  0  0  0
  8  9  1  0  0  0  0
  9 10  2  0  0  0  0
 10 11  1  0  0  0  0
 11  1  1  0  0  0  0
 11 12  2  0  0  0  0
 12  7  1  0  0  0  0
 13  7  1  0  0  0  0
 13 14  1  0  0  0  0
 15 16  2  0  0  0  0
 15 17  2  0  0  0  0
 15 13  1  0  0  0  0
 18 15  1  0  0  0  0
 19 18  1  0  0  0  0
 20 19  1  0  0  0  0
 21 20  1  0  0  0  0
 22 21  1  0  0  0  0
 23 22  1  0  0  0  0
 24 25  1  0  0  0  0
 25 23  1  0  0  0  0
 26 27  1  0  0  0  0
 27 28  1  0  0  0  0
 28 29  2  0  0  0  0
 29 30  1  0  0  0  0
 30 31  2  0  0  0  0
 31 32  1  0  0  0  0
 31 33  1  0  0  0  0
 32 35  1  0  0  0  0
 33 36  1  0  0  0  0
 33 34  2  0  0  0  0
 34 28  1  0  0  0  0
 36 37  2  0  0  0  0
 36 38  1  0  0  0  0
 38 39  1  0  0  0  0
M  END
>  <Activity>
30.7

>  <minimizedAffinity>
-7.67506

>  <RFScoreVS_v2>
5.95551080973

$$$$
HIPS6101
 OpenBabel05252300073D

 33 36  0  0  0  0  0  0  0  0999 V2000
   68.0229   79.5686   89.4115 C   0  0  0  0  0  0  0  0  0  0  0  0
   67.3453   79.9458   88.2431 C   0  0  0  0  0  0  0  0  0  0  0  0
   66.7805   78.9767   87.4119 C   0  0  0  0  0  0  0  0  0  0  0  0
   66.8887   77.6230   87.7363 C   0  0  0  0  0  0  0  0  0  0  0  0
   67.5755   77.2226   88.8950 C   0  0  0  0  0  0  0  0  0  0  0  0
   68.1582   78.2033   89.7171 C   0  0  0  0  0  0  0  0  0  0  0  0
   67.6684   75.7871   89.2579 C   0  0  0  0  0  0  0  0  0  0  0  0
   68.3858   75.3879   90.3999 C   0  0  0  0  0  0  0  0  0  0  0  0
   68.4431   74.0405   90.7626 C   0  0  0  0  0  0  0  0  0  0  0  0
   67.7970   73.0765   89.9862 C   0  0  0  0  0  0  0  0  0  0  0  0
   67.1011   73.4487   88.8319 C   0  0  0  0  0  0  0  0  0  0  0  0
   67.0248   74.8083   88.4788 C   0  0  0  0  0  0  0  0  0  0  0  0
   66.4576   72.4539   88.0818 O   0  0  0  0  0  0  0  0  0  0  0  0
   66.9900   71.8246   86.9471 C   0  0  0  0  0  0  0  0  0  0  0  0
   66.8798   72.4657   85.7068 C   0  0  0  0  0  0  0  0  0  0  0  0
   67.3786   71.8577   84.5505 C   0  0  0  0  0  0  0  0  0  0  0  0
   67.9782   70.5967   84.6247 C   0  0  0  0  0  0  0  0  0  0  0  0
   68.0826   69.9441   85.8556 C   0  0  0  0  0  0  0  0  0  0  0  0
   67.5866   70.5508   87.0138 C   0  0  0  0  0  0  0  0  0  0  0  0
   68.6389   80.6252   90.2957 C   0  0  0  0  0  0  0  0  0  0  0  0
   70.0372   80.7787   90.0444 O   0  0  0  0  0  0  0  0  0  0  0  0
   70.4881   83.9234   88.1272 C   0  0  0  0  0  0  0  0  0  0  0  0
   69.9252   82.7535   88.6740 C   0  0  0  0  0  0  0  0  0  0  0  0
   70.6485   81.9463   89.5577 C   0  0  0  0  0  0  0  0  0  0  0  0
   71.9518   82.3220   89.9215 C   0  0  0  0  0  0  0  0  0  0  0  0
   72.5208   83.4809   89.3952 C   0  0  0  0  0  0  0  0  0  0  0  0
   71.8032   84.2842   88.4984 C   0  0  0  0  0  0  0  0  0  0  0  0
   72.4003   85.4361   87.9854 O   0  0  0  0  0  0  0  0  0  0  0  0
   73.2729   85.6644   88.2394 H   0  0  0  0  0  0  0  0  0  0  0  0
   68.4716   84.9667   87.4006 O   0  0  0  0  0  0  0  0  0  0  0  0
   69.6922   84.7431   87.1771 C   0  0  0  0  0  0  0  0  0  0  0  0
   70.2735   85.2735   86.0289 O   0  0  0  0  0  0  0  0  0  0  0  0
   71.1793   85.1171   85.8473 H   0  0  0  0  0  0  0  0  0  0  0  0
  1  2  2  0  0  0  0
  2  3  1  0  0  0  0
  3  4  2  0  0  0  0
  4  5  1  0  0  0  0
  5  7  1  0  0  0  0
  5  6  2  0  0  0  0
  6  1  1  0  0  0  0
  7  8  2  0  0  0  0
  8  9  1  0  0  0  0
  9 10  2  0  0  0  0
 10 11  1  0  0  0  0
 11 13  1  0  0  0  0
 11 12  2  0  0  0  0
 12  7  1  0  0  0  0
 13 14  1  0  0  0  0
 14 15  2  0  0  0  0
 15 16  1  0  0  0  0
 16 17  2  0  0  0  0
 17 18  1  0  0  0  0
 18 19  2  0  0  0  0
 19 14  1  0  0  0  0
 20  1  1  0  0  0  0
 21 20  1  0  0  0  0
 22 23  2  0  0  0  0
 23 24  1  0  0  0  0
 24 21  1  0  0  0  0
 24 25  2  0  0  0  0
 25 26  1  0  0  0  0
 26 27  2  0  0  0  0
 27 28  1  0  0  0  0
 27 22  1  0  0  0  0
 28 29  1  0  0  0  0
 30 31  2  0  0  0  0
 31 32  1  0  0  0  0
 31 22  1  0  0  0  0
 32 33  1  0  0  0  0
M  END
>  <Activity>
39.1

>  <minimizedAffinity>
-9.49343

>  <RFScoreVS_v2>
5.97849844078

$$$$
HIPS6101
 OpenBabel05252300073D

 33 36  0  0  0  0  0  0  0  0999 V2000
   69.7327   76.6847   91.9660 C   0  0  0  0  0  0  0  0  0  0  0  0
   71.1241   76.7445   91.8020 C   0  0  0  0  0  0  0  0  0  0  0  0
   71.6864   77.6093   90.8611 C   0  0  0  0  0  0  0  0  0  0  0  0
   70.8667   78.4196   90.0733 C   0  0  0  0  0  0  0  0  0  0  0  0
   69.4694   78.3650   90.2117 C   0  0  0  0  0  0  0  0  0  0  0  0
   68.9096   77.4778   91.1479 C   0  0  0  0  0  0  0  0  0  0  0  0
   68.5963   79.2448   89.3963 C   0  0  0  0  0  0  0  0  0  0  0  0
   67.6560   78.6889   88.5104 C   0  0  0  0  0  0  0  0  0  0  0  0
   66.8087   79.5158   87.7696 C   0  0  0  0  0  0  0  0  0  0  0  0
   66.8969   80.9037   87.8947 C   0  0  0  0  0  0  0  0  0  0  0  0
   67.8431   81.4777   88.7494 C   0  0  0  0  0  0  0  0  0  0  0  0
   68.6815   80.6443   89.5120 C   0  0  0  0  0  0  0  0  0  0  0  0
   67.8967   82.8749   88.8554 O   0  0  0  0  0  0  0  0  0  0  0  0
   68.7623   83.7086   88.1323 C   0  0  0  0  0  0  0  0  0  0  0  0
   68.4221   85.0578   87.9732 C   0  0  0  0  0  0  0  0  0  0  0  0
   69.2497   85.9131   87.2390 C   0  0  0  0  0  0  0  0  0  0  0  0
   70.4165   85.4211   86.6461 C   0  0  0  0  0  0  0  0  0  0  0  0
   70.7585   84.0740   86.7896 C   0  0  0  0  0  0  0  0  0  0  0  0
   69.9338   83.2170   87.5250 C   0  0  0  0  0  0  0  0  0  0  0  0
   69.1367   75.7375   92.9785 C   0  0  0  0  0  0  0  0  0  0  0  0
   70.0508   74.6994   93.3370 O   0  0  0  0  0  0  0  0  0  0  0  0
   70.3792   71.0042   93.4137 C   0  0  0  0  0  0  0  0  0  0  0  0
   70.4138   72.3630   93.7839 C   0  0  0  0  0  0  0  0  0  0  0  0
   69.9623   73.3621   92.9157 C   0  0  0  0  0  0  0  0  0  0  0  0
   69.4460   73.0001   91.6609 C   0  0  0  0  0  0  0  0  0  0  0  0
   69.3977   71.6591   91.2822 C   0  0  0  0  0  0  0  0  0  0  0  0
   69.8625   70.6571   92.1449 C   0  0  0  0  0  0  0  0  0  0  0  0
   69.8048   69.3241   91.7367 O   0  0  0  0  0  0  0  0  0  0  0  0
   69.4600   69.1070   90.8929 H   0  0  0  0  0  0  0  0  0  0  0  0
   70.6585   70.0821   95.5942 O   0  0  0  0  0  0  0  0  0  0  0  0
   70.8861   69.9754   94.3585 C   0  0  0  0  0  0  0  0  0  0  0  0
   71.6192   68.8839   93.9018 O   0  0  0  0  0  0  0  0  0  0  0  0
   71.7976   68.7891   92.9868 H   0  0  0  0  0  0  0  0  0  0  0  0
  1  2  2  0  0  0  0
  2  3  1  0  0  0  0
  3  4  2  0  0  0  0
  4  5  1  0  0  0  0
  5  7  1  0  0  0  0
  5  6  2  0  0  0  0
  6  1  1  0  0  0  0
  7  8  2  0  0  0  0
  8  9  1  0  0  0  0
  9 10  2  0  0  0  0
 10 11  1  0  0  0  0
 11 13  1  0  0  0  0
 11 12  2  0  0  0  0
 12  7  1  0  0  0  0
 13 14  1  0  0  0  0
 14 15  2  0  0  0  0
 15 16  1  0  0  0  0
 16 17  2  0  0  0  0
 17 18  1  0  0  0  0
 18 19  2  0  0  0  0
 19 14  1  0  0  0  0
 20  1  1  0  0  0  0
 21 20  1  0  0  0  0
 22 23  2  0  0  0  0
 23 24  1  0  0  0  0
 24 21  1  0  0  0  0
 24 25  2  0  0  0  0
 25 26  1  0  0  0  0
 26 27  2  0  0  0  0
 27 28  1  0  0  0  0
 27 22  1  0  0  0  0
 28 29  1  0  0  0  0
 30 31  2  0  0  0  0
 31 32  1  0  0  0  0
 31 22  1  0  0  0  0
 32 33  1  0  0  0  0
M  END
>  <Activity>
39.1

>  <minimizedAffinity>
-9.42885

>  <RFScoreVS_v2>
6.0030022834

$$$$
HIPS6101
 OpenBabel05252300073D

 33 36  0  0  0  0  0  0  0  0999 V2000
   67.9913   79.5392   89.3604 C   0  0  0  0  0  0  0  0  0  0  0  0
   67.4034   79.9003   88.1396 C   0  0  0  0  0  0  0  0  0  0  0  0
   66.8594   78.9239   87.3031 C   0  0  0  0  0  0  0  0  0  0  0  0
   66.8996   77.5786   87.6745 C   0  0  0  0  0  0  0  0  0  0  0  0
   67.4966   77.1936   88.8869 C   0  0  0  0  0  0  0  0  0  0  0  0
   68.0593   78.1807   89.7152 C   0  0  0  0  0  0  0  0  0  0  0  0
   67.5161   75.7683   89.2983 C   0  0  0  0  0  0  0  0  0  0  0  0
   66.9873   74.7772   88.4520 C   0  0  0  0  0  0  0  0  0  0  0  0
   67.0384   73.4316   88.8224 C   0  0  0  0  0  0  0  0  0  0  0  0
   67.6055   73.0606   90.0432 C   0  0  0  0  0  0  0  0  0  0  0  0
   68.1124   74.0324   90.9115 C   0  0  0  0  0  0  0  0  0  0  0  0
   68.0810   75.3857   90.5287 C   0  0  0  0  0  0  0  0  0  0  0  0
   68.6820   73.6215   92.1252 O   0  0  0  0  0  0  0  0  0  0  0  0
   68.0576   73.6977   93.3788 C   0  0  0  0  0  0  0  0  0  0  0  0
   66.6595   73.7589   93.4328 C   0  0  0  0  0  0  0  0  0  0  0  0
   66.0039   73.8587   94.6639 C   0  0  0  0  0  0  0  0  0  0  0  0
   66.7433   73.9130   95.8494 C   0  0  0  0  0  0  0  0  0  0  0  0
   68.1389   73.8641   95.8051 C   0  0  0  0  0  0  0  0  0  0  0  0
   68.7970   73.7621   94.5755 C   0  0  0  0  0  0  0  0  0  0  0  0
   68.5860   80.6030   90.2505 C   0  0  0  0  0  0  0  0  0  0  0  0
   69.9855   80.7704   90.0158 O   0  0  0  0  0  0  0  0  0  0  0  0
   70.4206   83.9107   88.0878 C   0  0  0  0  0  0  0  0  0  0  0  0
   69.8645   82.7386   88.6368 C   0  0  0  0  0  0  0  0  0  0  0  0
   70.5899   81.9408   89.5273 C   0  0  0  0  0  0  0  0  0  0  0  0
   71.8883   82.3284   89.8958 C   0  0  0  0  0  0  0  0  0  0  0  0
   72.4507   83.4897   89.3674 C   0  0  0  0  0  0  0  0  0  0  0  0
   71.7310   84.2835   88.4639 C   0  0  0  0  0  0  0  0  0  0  0  0
   72.3214   85.4381   87.9490 O   0  0  0  0  0  0  0  0  0  0  0  0
   73.1909   85.6743   88.2063 H   0  0  0  0  0  0  0  0  0  0  0  0
   68.3972   84.9268   87.3422 O   0  0  0  0  0  0  0  0  0  0  0  0
   69.6229   84.7201   87.1304 C   0  0  0  0  0  0  0  0  0  0  0  0
   70.2080   85.2592   85.9883 O   0  0  0  0  0  0  0  0  0  0  0  0
   71.1176   85.1154   85.8154 H   0  0  0  0  0  0  0  0  0  0  0  0
  1  2  2  0  0  0  0
  2  3  1  0  0  0  0
  3  4  2  0  0  0  0
  4  5  1  0  0  0  0
  5  7  1  0  0  0  0
  5  6  2  0  0  0  0
  6  1  1  0  0  0  0
  7  8  2  0  0  0  0
  8  9  1  0  0  0  0
  9 10  2  0  0  0  0
 10 11  1  0  0  0  0
 11 13  1  0  0  0  0
 11 12  2  0  0  0  0
 12  7  1  0  0  0  0
 13 14  1  0  0  0  0
 14 15  2  0  0  0  0
 15 16  1  0  0  0  0
 16 17  2  0  0  0  0
 17 18  1  0  0  0  0
 18 19  2  0  0  0  0
 19 14  1  0  0  0  0
 20  1  1  0  0  0  0
 21 20  1  0  0  0  0
 22 23  2  0  0  0  0
 23 24  1  0  0  0  0
 24 21  1  0  0  0  0
 24 25  2  0  0  0  0
 25 26  1  0  0  0  0
 26 27  2  0  0  0  0
 27 28  1  0  0  0  0
 27 22  1  0  0  0  0
 28 29  1  0  0  0  0
 30 31  2  0  0  0  0
 31 32  1  0  0  0  0
 31 22  1  0  0  0  0
 32 33  1  0  0  0  0
M  END
>  <Activity>
39.1

>  <minimizedAffinity>
-9.39180

>  <RFScoreVS_v2>
5.98179268246

$$$$
HIPS6101
 OpenBabel05252300073D

 33 36  0  0  0  0  0  0  0  0999 V2000
   67.3703   80.4299   88.3826 C   0  0  0  0  0  0  0  0  0  0  0  0
   66.5679   79.5564   87.6346 C   0  0  0  0  0  0  0  0  0  0  0  0
   66.7946   78.1794   87.6782 C   0  0  0  0  0  0  0  0  0  0  0  0
   67.8250   77.6614   88.4651 C   0  0  0  0  0  0  0  0  0  0  0  0
   68.6497   78.5203   89.2113 C   0  0  0  0  0  0  0  0  0  0  0  0
   68.4275   79.9072   89.1474 C   0  0  0  0  0  0  0  0  0  0  0  0
   69.7276   77.9718   90.0706 C   0  0  0  0  0  0  0  0  0  0  0  0
   71.0315   78.4937   89.9951 C   0  0  0  0  0  0  0  0  0  0  0  0
   72.0381   78.0028   90.8295 C   0  0  0  0  0  0  0  0  0  0  0  0
   71.7597   76.9803   91.7386 C   0  0  0  0  0  0  0  0  0  0  0  0
   70.4768   76.4286   91.8110 C   0  0  0  0  0  0  0  0  0  0  0  0
   69.4576   76.9381   90.9860 C   0  0  0  0  0  0  0  0  0  0  0  0
   70.2325   75.4089   92.7420 O   0  0  0  0  0  0  0  0  0  0  0  0
   69.3080   74.3672   92.5771 C   0  0  0  0  0  0  0  0  0  0  0  0
   69.5664   73.3828   91.6150 C   0  0  0  0  0  0  0  0  0  0  0  0
   68.6557   72.3420   91.4072 C   0  0  0  0  0  0  0  0  0  0  0  0
   67.4726   72.2870   92.1503 C   0  0  0  0  0  0  0  0  0  0  0  0
   67.2006   73.2708   93.1044 C   0  0  0  0  0  0  0  0  0  0  0  0
   68.1105   74.3115   93.3158 C   0  0  0  0  0  0  0  0  0  0  0  0
   67.1223   81.9172   88.3181 C   0  0  0  0  0  0  0  0  0  0  0  0
   67.8102   82.5232   87.2220 O   0  0  0  0  0  0  0  0  0  0  0  0
   71.0407   83.9380   88.3755 C   0  0  0  0  0  0  0  0  0  0  0  0
   69.9418   83.0758   88.1922 C   0  0  0  0  0  0  0  0  0  0  0  0
   68.8885   83.4163   87.3375 C   0  0  0  0  0  0  0  0  0  0  0  0
   68.9395   84.6307   86.6343 C   0  0  0  0  0  0  0  0  0  0  0  0
   70.0237   85.4920   86.7987 C   0  0  0  0  0  0  0  0  0  0  0  0
   71.0738   85.1594   87.6653 C   0  0  0  0  0  0  0  0  0  0  0  0
   72.1436   86.0430   87.8120 O   0  0  0  0  0  0  0  0  0  0  0  0
   72.1537   86.8497   87.3355 H   0  0  0  0  0  0  0  0  0  0  0  0
   73.3017   83.9776   89.1298 O   0  0  0  0  0  0  0  0  0  0  0  0
   72.1300   83.5467   89.3073 C   0  0  0  0  0  0  0  0  0  0  0  0
   71.8809   82.7009   90.3843 O   0  0  0  0  0  0  0  0  0  0  0  0
   71.0160   82.3714   90.5310 H   0  0  0  0  0  0  0  0  0  0  0  0
  1  2  2  0  0  0  0
  2  3  1  0  0  0  0
  3  4  2  0  0  0  0
  4  5  1  0  0  0  0
  5  7  1  0  0  0  0
  5  6  2  0  0  0  0
  6  1  1  0  0  0  0
  7  8  2  0  0  0  0
  8  9  1  0  0  0  0
  9 10  2  0  0  0  0
 10 11  1  0  0  0  0
 11 13  1  0  0  0  0
 11 12  2  0  0  0  0
 12  7  1  0  0  0  0
 13 14  1  0  0  0  0
 14 15  2  0  0  0  0
 15 16  1  0  0  0  0
 16 17  2  0  0  0  0
 17 18  1  0  0  0  0
 18 19  2  0  0  0  0
 19 14  1  0  0  0  0
 20  1  1  0  0  0  0
 21 20  1  0  0  0  0
 22 23  2  0  0  0  0
 23 24  1  0  0  0  0
 24 21  1  0  0  0  0
 24 25  2  0  0  0  0
 25 26  1  0  0  0  0
 26 27  2  0  0  0  0
 27 28  1  0  0  0  0
 27 22  1  0  0  0  0
 28 29  1  0  0  0  0
 30 31  2  0  0  0  0
 31 32  1  0  0  0  0
 31 22  1  0  0  0  0
 32 33  1  0  0  0  0
M  END
>  <Activity>
39.1

>  <minimizedAffinity>
-9.20931

>  <RFScoreVS_v2>
6.00516761885

$$$$
HIPS6101
 OpenBabel05252300073D

 33 36  0  0  0  0  0  0  0  0999 V2000
   67.6193   78.3459   89.9803 C   0  0  0  0  0  0  0  0  0  0  0  0
   66.5618   78.5915   89.0927 C   0  0  0  0  0  0  0  0  0  0  0  0
   66.5377   79.7618   88.3317 C   0  0  0  0  0  0  0  0  0  0  0  0
   67.5657   80.6989   88.4511 C   0  0  0  0  0  0  0  0  0  0  0  0
   68.6275   80.4790   89.3449 C   0  0  0  0  0  0  0  0  0  0  0  0
   68.6350   79.3071   90.1219 C   0  0  0  0  0  0  0  0  0  0  0  0
   69.7361   81.4589   89.4541 C   0  0  0  0  0  0  0  0  0  0  0  0
   70.7478   81.2831   90.4151 C   0  0  0  0  0  0  0  0  0  0  0  0
   71.8111   82.1851   90.4942 C   0  0  0  0  0  0  0  0  0  0  0  0
   71.8716   83.2767   89.6257 C   0  0  0  0  0  0  0  0  0  0  0  0
   70.8620   83.4853   88.6810 C   0  0  0  0  0  0  0  0  0  0  0  0
   69.8026   82.5645   88.5866 C   0  0  0  0  0  0  0  0  0  0  0  0
   70.9609   84.5878   87.8202 O   0  0  0  0  0  0  0  0  0  0  0  0
   71.1381   85.9183   88.2267 C   0  0  0  0  0  0  0  0  0  0  0  0
   70.0358   86.6228   88.7268 C   0  0  0  0  0  0  0  0  0  0  0  0
   70.1701   87.9580   89.1201 C   0  0  0  0  0  0  0  0  0  0  0  0
   71.4052   88.6027   89.0018 C   0  0  0  0  0  0  0  0  0  0  0  0
   72.5080   87.9117   88.4933 C   0  0  0  0  0  0  0  0  0  0  0  0
   72.3770   86.5758   88.1013 C   0  0  0  0  0  0  0  0  0  0  0  0
   67.6278   77.0824   90.8056 C   0  0  0  0  0  0  0  0  0  0  0  0
   67.2620   77.3328   92.1640 O   0  0  0  0  0  0  0  0  0  0  0  0
   68.0462   74.4784   94.4013 C   0  0  0  0  0  0  0  0  0  0  0  0
   68.1629   75.5050   93.4436 C   0  0  0  0  0  0  0  0  0  0  0  0
   67.0860   76.3473   93.1496 C   0  0  0  0  0  0  0  0  0  0  0  0
   65.8737   76.1784   93.8380 C   0  0  0  0  0  0  0  0  0  0  0  0
   65.7439   75.1720   94.7942 C   0  0  0  0  0  0  0  0  0  0  0  0
   66.8174   74.3175   95.0807 C   0  0  0  0  0  0  0  0  0  0  0  0
   66.6564   73.3172   96.0399 O   0  0  0  0  0  0  0  0  0  0  0  0
   65.8366   73.2209   96.4834 H   0  0  0  0  0  0  0  0  0  0  0  0
   69.2611   72.9210   95.7359 O   0  0  0  0  0  0  0  0  0  0  0  0
   69.2090   73.5933   94.6704 C   0  0  0  0  0  0  0  0  0  0  0  0
   70.2569   73.4922   93.7599 O   0  0  0  0  0  0  0  0  0  0  0  0
   70.2344   73.9848   92.9631 H   0  0  0  0  0  0  0  0  0  0  0  0
  1  2  2  0  0  0  0
  2  3  1  0  0  0  0
  3  4  2  0  0  0  0
  4  5  1  0  0  0  0
  5  7  1  0  0  0  0
  5  6  2  0  0  0  0
  6  1  1  0  0  0  0
  7  8  2  0  0  0  0
  8  9  1  0  0  0  0
  9 10  2  0  0  0  0
 10 11  1  0  0  0  0
 11 13  1  0  0  0  0
 11 12  2  0  0  0  0
 12  7  1  0  0  0  0
 13 14  1  0  0  0  0
 14 15  2  0  0  0  0
 15 16  1  0  0  0  0
 16 17  2  0  0  0  0
 17 18  1  0  0  0  0
 18 19  2  0  0  0  0
 19 14  1  0  0  0  0
 20  1  1  0  0  0  0
 21 20  1  0  0  0  0
 22 23  2  0  0  0  0
 23 24  1  0  0  0  0
 24 21  1  0  0  0  0
 24 25  2  0  0  0  0
 25 26  1  0  0  0  0
 26 27  2  0  0  0  0
 27 28  1  0  0  0  0
 27 22  1  0  0  0  0
 28 29  1  0  0  0  0
 30 31  2  0  0  0  0
 31 32  1  0  0  0  0
 31 22  1  0  0  0  0
 32 33  1  0  0  0  0
M  END
>  <Activity>
39.1

>  <minimizedAffinity>
-9.20791

>  <RFScoreVS_v2>
6.04261276722

$$$$
HIPS6101
 OpenBabel05252300073D

 33 36  0  0  0  0  0  0  0  0999 V2000
   67.2678   79.5757   89.9676 C   0  0  0  0  0  0  0  0  0  0  0  0
   66.3414   79.9501   88.9837 C   0  0  0  0  0  0  0  0  0  0  0  0
   66.6303   80.9958   88.1050 C   0  0  0  0  0  0  0  0  0  0  0  0
   67.8437   81.6797   88.2013 C   0  0  0  0  0  0  0  0  0  0  0  0
   68.7801   81.3299   89.1890 C   0  0  0  0  0  0  0  0  0  0  0  0
   68.4740   80.2883   90.0825 C   0  0  0  0  0  0  0  0  0  0  0  0
   70.0823   82.0354   89.2766 C   0  0  0  0  0  0  0  0  0  0  0  0
   71.0848   81.5712   90.1470 C   0  0  0  0  0  0  0  0  0  0  0  0
   72.3239   82.2129   90.2032 C   0  0  0  0  0  0  0  0  0  0  0  0
   72.5731   83.3293   89.4025 C   0  0  0  0  0  0  0  0  0  0  0  0
   71.5809   83.8236   88.5501 C   0  0  0  0  0  0  0  0  0  0  0  0
   70.3406   83.1640   88.4773 C   0  0  0  0  0  0  0  0  0  0  0  0
   71.8704   84.9417   87.7548 O   0  0  0  0  0  0  0  0  0  0  0  0
   71.6471   86.2763   88.1233 C   0  0  0  0  0  0  0  0  0  0  0  0
   72.7515   87.1134   88.3259 C   0  0  0  0  0  0  0  0  0  0  0  0
   72.5674   88.4436   88.7163 C   0  0  0  0  0  0  0  0  0  0  0  0
   71.2772   88.9417   88.9212 C   0  0  0  0  0  0  0  0  0  0  0  0
   70.1696   88.1112   88.7327 C   0  0  0  0  0  0  0  0  0  0  0  0
   70.3507   86.7812   88.3403 C   0  0  0  0  0  0  0  0  0  0  0  0
   66.9388   78.4511   90.9187 C   0  0  0  0  0  0  0  0  0  0  0  0
   68.0994   77.6945   91.2683 O   0  0  0  0  0  0  0  0  0  0  0  0
   68.7357   74.1854   92.2930 C   0  0  0  0  0  0  0  0  0  0  0  0
   68.5775   75.5850   92.3226 C   0  0  0  0  0  0  0  0  0  0  0  0
   68.2128   76.2972   91.1757 C   0  0  0  0  0  0  0  0  0  0  0  0
   67.9802   75.6002   89.9790 C   0  0  0  0  0  0  0  0  0  0  0  0
   68.1251   74.2142   89.9345 C   0  0  0  0  0  0  0  0  0  0  0  0
   68.5041   73.4995   91.0791 C   0  0  0  0  0  0  0  0  0  0  0  0
   68.6447   72.1135   91.0031 O   0  0  0  0  0  0  0  0  0  0  0  0
   68.4883   71.6705   90.1924 H   0  0  0  0  0  0  0  0  0  0  0  0
   68.2912   72.8194   94.1954 O   0  0  0  0  0  0  0  0  0  0  0  0
   69.1426   73.4689   93.5294 C   0  0  0  0  0  0  0  0  0  0  0  0
   70.4608   73.5029   93.9751 O   0  0  0  0  0  0  0  0  0  0  0  0
   71.1064   73.9807   93.4925 H   0  0  0  0  0  0  0  0  0  0  0  0
  1  2  2  0  0  0  0
  2  3  1  0  0  0  0
  3  4  2  0  0  0  0
  4  5  1  0  0  0  0
  5  7  1  0  0  0  0
  5  6  2  0  0  0  0
  6  1  1  0  0  0  0
  7  8  2  0  0  0  0
  8  9  1  0  0  0  0
  9 10  2  0  0  0  0
 10 11  1  0  0  0  0
 11 13  1  0  0  0  0
 11 12  2  0  0  0  0
 12  7  1  0  0  0  0
 13 14  1  0  0  0  0
 14 15  2  0  0  0  0
 15 16  1  0  0  0  0
 16 17  2  0  0  0  0
 17 18  1  0  0  0  0
 18 19  2  0  0  0  0
 19 14  1  0  0  0  0
 20  1  1  0  0  0  0
 21 20  1  0  0  0  0
 22 23  2  0  0  0  0
 23 24  1  0  0  0  0
 24 21  1  0  0  0  0
 24 25  2  0  0  0  0
 25 26  1  0  0  0  0
 26 27  2  0  0  0  0
 27 28  1  0  0  0  0
 27 22  1  0  0  0  0
 28 29  1  0  0  0  0
 30 31  2  0  0  0  0
 31 32  1  0  0  0  0
 31 22  1  0  0  0  0
 32 33  1  0  0  0  0
M  END
>  <Activity>
39.1

>  <minimizedAffinity>
-9.06585

>  <RFScoreVS_v2>
6.01026548213

$$$$
HIPS6101
 OpenBabel05252300073D

 33 36  0  0  0  0  0  0  0  0999 V2000
   66.8989   75.6285   87.9700 C   0  0  0  0  0  0  0  0  0  0  0  0
   67.1224   75.4724   86.5945 C   0  0  0  0  0  0  0  0  0  0  0  0
   67.3822   76.5848   85.7919 C   0  0  0  0  0  0  0  0  0  0  0  0
   67.4184   77.8629   86.3527 C   0  0  0  0  0  0  0  0  0  0  0  0
   67.1832   78.0431   87.7263 C   0  0  0  0  0  0  0  0  0  0  0  0
   66.9032   76.9201   88.5247 C   0  0  0  0  0  0  0  0  0  0  0  0
   67.2486   79.3963   88.3310 C   0  0  0  0  0  0  0  0  0  0  0  0
   67.2362   79.5513   89.7289 C   0  0  0  0  0  0  0  0  0  0  0  0
   67.3346   80.8222   90.2994 C   0  0  0  0  0  0  0  0  0  0  0  0
   67.4345   81.9516   89.4844 C   0  0  0  0  0  0  0  0  0  0  0  0
   67.4213   81.8221   88.0921 C   0  0  0  0  0  0  0  0  0  0  0  0
   67.3445   80.5403   87.5178 C   0  0  0  0  0  0  0  0  0  0  0  0
   67.5320   82.9780   87.3061 O   0  0  0  0  0  0  0  0  0  0  0  0
   68.6539   83.8183   87.2564 C   0  0  0  0  0  0  0  0  0  0  0  0
   68.4627   85.2033   87.3367 C   0  0  0  0  0  0  0  0  0  0  0  0
   69.5560   86.0725   87.2674 C   0  0  0  0  0  0  0  0  0  0  0  0
   70.8473   85.5626   87.1022 C   0  0  0  0  0  0  0  0  0  0  0  0
   71.0471   84.1829   87.0095 C   0  0  0  0  0  0  0  0  0  0  0  0
   69.9558   83.3113   87.0807 C   0  0  0  0  0  0  0  0  0  0  0  0
   66.6077   74.4192   88.8248 C   0  0  0  0  0  0  0  0  0  0  0  0
   67.7901   73.6646   89.0975 O   0  0  0  0  0  0  0  0  0  0  0  0
   69.5183   74.7752   92.1875 C   0  0  0  0  0  0  0  0  0  0  0  0
   68.8444   74.7805   90.9503 C   0  0  0  0  0  0  0  0  0  0  0  0
   68.4324   73.5893   90.3446 C   0  0  0  0  0  0  0  0  0  0  0  0
   68.6773   72.3681   90.9934 C   0  0  0  0  0  0  0  0  0  0  0  0
   69.3363   72.3459   92.2219 C   0  0  0  0  0  0  0  0  0  0  0  0
   69.7627   73.5374   92.8244 C   0  0  0  0  0  0  0  0  0  0  0  0
   70.4229   73.4833   94.0523 O   0  0  0  0  0  0  0  0  0  0  0  0
   70.5789   72.6563   94.4643 H   0  0  0  0  0  0  0  0  0  0  0  0
   69.2007   76.6775   93.5885 O   0  0  0  0  0  0  0  0  0  0  0  0
   69.9557   76.0621   92.7878 C   0  0  0  0  0  0  0  0  0  0  0  0
   71.1969   76.6107   92.4780 O   0  0  0  0  0  0  0  0  0  0  0  0
   71.7706   76.1667   91.8849 H   0  0  0  0  0  0  0  0  0  0  0  0
  1  2  2  0  0  0  0
  2  3  1  0  0  0  0
  3  4  2  0  0  0  0
  4  5  1  0  0  0  0
  5  7  1  0  0  0  0
  5  6  2  0  0  0  0
  6  1  1  0  0  0  0
  7  8  2  0  0  0  0
  8  9  1  0  0  0  0
  9 10  2  0  0  0  0
 10 11  1  0  0  0  0
 11 13  1  0  0  0  0
 11 12  2  0  0  0  0
 12  7  1  0  0  0  0
 13 14  1  0  0  0  0
 14 15  2  0  0  0  0
 15 16  1  0  0  0  0
 16 17  2  0  0  0  0
 17 18  1  0  0  0  0
 18 19  2  0  0  0  0
 19 14  1  0  0  0  0
 20  1  1  0  0  0  0
 21 20  1  0  0  0  0
 22 23  2  0  0  0  0
 23 24  1  0  0  0  0
 24 21  1  0  0  0  0
 24 25  2  0  0  0  0
 25 26  1  0  0  0  0
 26 27  2  0  0  0  0
 27 28  1  0  0  0  0
 27 22  1  0  0  0  0
 28 29  1  0  0  0  0
 30 31  2  0  0  0  0
 31 32  1  0  0  0  0
 31 22  1  0  0  0  0
 32 33  1  0  0  0  0
M  END
>  <Activity>
39.1

>  <minimizedAffinity>
-8.93503

>  <RFScoreVS_v2>
6.01479458712

$$$$
HIPS6101
 OpenBabel05252300073D

 33 36  0  0  0  0  0  0  0  0999 V2000
   67.6080   75.4245   89.2001 C   0  0  0  0  0  0  0  0  0  0  0  0
   66.7324   75.6794   88.1349 C   0  0  0  0  0  0  0  0  0  0  0  0
   66.7007   76.9396   87.5348 C   0  0  0  0  0  0  0  0  0  0  0  0
   67.5391   77.9576   87.9931 C   0  0  0  0  0  0  0  0  0  0  0  0
   68.4140   77.7274   89.0683 C   0  0  0  0  0  0  0  0  0  0  0  0
   68.4267   76.4615   89.6801 C   0  0  0  0  0  0  0  0  0  0  0  0
   69.3266   78.7979   89.5399 C   0  0  0  0  0  0  0  0  0  0  0  0
   70.6214   78.4813   89.9887 C   0  0  0  0  0  0  0  0  0  0  0  0
   71.4937   79.4920   90.3983 C   0  0  0  0  0  0  0  0  0  0  0  0
   71.0821   80.8261   90.3761 C   0  0  0  0  0  0  0  0  0  0  0  0
   69.7898   81.1603   89.9593 C   0  0  0  0  0  0  0  0  0  0  0  0
   68.9188   80.1443   89.5259 C   0  0  0  0  0  0  0  0  0  0  0  0
   69.4148   82.5114   89.9425 O   0  0  0  0  0  0  0  0  0  0  0  0
   69.2802   83.2994   88.7901 C   0  0  0  0  0  0  0  0  0  0  0  0
   68.0036   83.7421   88.4216 C   0  0  0  0  0  0  0  0  0  0  0  0
   67.8285   84.5103   87.2663 C   0  0  0  0  0  0  0  0  0  0  0  0
   68.9278   84.8286   86.4630 C   0  0  0  0  0  0  0  0  0  0  0  0
   70.2037   84.3818   86.8161 C   0  0  0  0  0  0  0  0  0  0  0  0
   70.3819   83.6153   87.9721 C   0  0  0  0  0  0  0  0  0  0  0  0
   67.6246   74.0615   89.8478 C   0  0  0  0  0  0  0  0  0  0  0  0
   68.8659   73.8013   90.5060 O   0  0  0  0  0  0  0  0  0  0  0  0
   70.1384   72.3802   93.6887 C   0  0  0  0  0  0  0  0  0  0  0  0
   69.9504   72.6487   92.3186 C   0  0  0  0  0  0  0  0  0  0  0  0
   69.0232   73.6029   91.8879 C   0  0  0  0  0  0  0  0  0  0  0  0
   68.2823   74.3202   92.8411 C   0  0  0  0  0  0  0  0  0  0  0  0
   68.4618   74.0720   94.2013 C   0  0  0  0  0  0  0  0  0  0  0  0
   69.3803   73.1063   94.6351 C   0  0  0  0  0  0  0  0  0  0  0  0
   69.5355   72.8774   96.0027 O   0  0  0  0  0  0  0  0  0  0  0  0
   69.0269   73.3654   96.6200 H   0  0  0  0  0  0  0  0  0  0  0  0
   72.2819   71.3399   93.6126 O   0  0  0  0  0  0  0  0  0  0  0  0
   71.1204   71.3450   94.1034 C   0  0  0  0  0  0  0  0  0  0  0  0
   70.7789   70.3662   95.0322 O   0  0  0  0  0  0  0  0  0  0  0  0
   69.9201   70.3552   95.4069 H   0  0  0  0  0  0  0  0  0  0  0  0
  1  2  2  0  0  0  0
  2  3  1  0  0  0  0
  3  4  2  0  0  0  0
  4  5  1  0  0  0  0
  5  7  1  0  0  0  0
  5  6  2  0  0  0  0
  6  1  1  0  0  0  0
  7  8  2  0  0  0  0
  8  9  1  0  0  0  0
  9 10  2  0  0  0  0
 10 11  1  0  0  0  0
 11 13  1  0  0  0  0
 11 12  2  0  0  0  0
 12  7  1  0  0  0  0
 13 14  1  0  0  0  0
 14 15  2  0  0  0  0
 15 16  1  0  0  0  0
 16 17  2  0  0  0  0
 17 18  1  0  0  0  0
 18 19  2  0  0  0  0
 19 14  1  0  0  0  0
 20  1  1  0  0  0  0
 21 20  1  0  0  0  0
 22 23  2  0  0  0  0
 23 24  1  0  0  0  0
 24 21  1  0  0  0  0
 24 25  2  0  0  0  0
 25 26  1  0  0  0  0
 26 27  2  0  0  0  0
 27 28  1  0  0  0  0
 27 22  1  0  0  0  0
 28 29  1  0  0  0  0
 30 31  2  0  0  0  0
 31 32  1  0  0  0  0
 31 22  1  0  0  0  0
 32 33  1  0  0  0  0
M  END
>  <Activity>
39.1

>  <minimizedAffinity>
-8.92360

>  <RFScoreVS_v2>
5.98632583607

$$$$
HIPS6101
 OpenBabel05252300073D

 33 36  0  0  0  0  0  0  0  0999 V2000
   69.2882   78.5498   90.3460 C   0  0  0  0  0  0  0  0  0  0  0  0
   70.6148   78.6240   89.8977 C   0  0  0  0  0  0  0  0  0  0  0  0
   71.5963   77.8074   90.4626 C   0  0  0  0  0  0  0  0  0  0  0  0
   71.2648   76.9122   91.4814 C   0  0  0  0  0  0  0  0  0  0  0  0
   69.9443   76.8320   91.9551 C   0  0  0  0  0  0  0  0  0  0  0  0
   68.9651   77.6711   91.3945 C   0  0  0  0  0  0  0  0  0  0  0  0
   69.5824   75.8622   93.0179 C   0  0  0  0  0  0  0  0  0  0  0  0
   69.3078   76.3080   94.3232 C   0  0  0  0  0  0  0  0  0  0  0  0
   68.9315   75.3999   95.3152 C   0  0  0  0  0  0  0  0  0  0  0  0
   68.8360   74.0384   95.0207 C   0  0  0  0  0  0  0  0  0  0  0  0
   69.1311   73.5705   93.7363 C   0  0  0  0  0  0  0  0  0  0  0  0
   69.4886   74.4879   92.7316 C   0  0  0  0  0  0  0  0  0  0  0  0
   69.0161   72.1975   93.4756 O   0  0  0  0  0  0  0  0  0  0  0  0
   70.0639   71.3620   93.0619 C   0  0  0  0  0  0  0  0  0  0  0  0
   71.2486   71.3468   93.8086 C   0  0  0  0  0  0  0  0  0  0  0  0
   72.3227   70.5434   93.4129 C   0  0  0  0  0  0  0  0  0  0  0  0
   72.2244   69.7605   92.2586 C   0  0  0  0  0  0  0  0  0  0  0  0
   71.0508   69.7778   91.5007 C   0  0  0  0  0  0  0  0  0  0  0  0
   69.9744   70.5786   91.8953 C   0  0  0  0  0  0  0  0  0  0  0  0
   68.2387   79.4460   89.7351 C   0  0  0  0  0  0  0  0  0  0  0  0
   67.0769   78.7124   89.3429 O   0  0  0  0  0  0  0  0  0  0  0  0
   66.9985   75.2580   87.9904 C   0  0  0  0  0  0  0  0  0  0  0  0
   66.9931   76.3533   88.8764 C   0  0  0  0  0  0  0  0  0  0  0  0
   67.0582   77.6678   88.4037 C   0  0  0  0  0  0  0  0  0  0  0  0
   67.1085   77.8984   87.0194 C   0  0  0  0  0  0  0  0  0  0  0  0
   67.1070   76.8257   86.1286 C   0  0  0  0  0  0  0  0  0  0  0  0
   67.0560   75.5069   86.6004 C   0  0  0  0  0  0  0  0  0  0  0  0
   67.0596   74.4539   85.6851 O   0  0  0  0  0  0  0  0  0  0  0  0
   67.0980   74.6322   84.7660 H   0  0  0  0  0  0  0  0  0  0  0  0
   66.2237   73.0036   87.9825 O   0  0  0  0  0  0  0  0  0  0  0  0
   66.9470   73.8764   88.5348 C   0  0  0  0  0  0  0  0  0  0  0  0
   67.6882   73.5221   89.6585 O   0  0  0  0  0  0  0  0  0  0  0  0
   68.2309   74.1582   90.0814 H   0  0  0  0  0  0  0  0  0  0  0  0
  1  2  2  0  0  0  0
  2  3  1  0  0  0  0
  3  4  2  0  0  0  0
  4  5  1  0  0  0  0
  5  7  1  0  0  0  0
  5  6  2  0  0  0  0
  6  1  1  0  0  0  0
  7  8  2  0  0  0  0
  8  9  1  0  0  0  0
  9 10  2  0  0  0  0
 10 11  1  0  0  0  0
 11 13  1  0  0  0  0
 11 12  2  0  0  0  0
 12  7  1  0  0  0  0
 13 14  1  0  0  0  0
 14 15  2  0  0  0  0
 15 16  1  0  0  0  0
 16 17  2  0  0  0  0
 17 18  1  0  0  0  0
 18 19  2  0  0  0  0
 19 14  1  0  0  0  0
 20  1  1  0  0  0  0
 21 20  1  0  0  0  0
 22 23  2  0  0  0  0
 23 24  1  0  0  0  0
 24 21  1  0  0  0  0
 24 25  2  0  0  0  0
 25 26  1  0  0  0  0
 26 27  2  0  0  0  0
 27 28  1  0  0  0  0
 27 22  1  0  0  0  0
 28 29  1  0  0  0  0
 30 31  2  0  0  0  0
 31 32  1  0  0  0  0
 31 22  1  0  0  0  0
 32 33  1  0  0  0  0
M  END
>  <Activity>
39.1

>  <minimizedAffinity>
-8.90561

>  <RFScoreVS_v2>
5.9984038212

$$$$
HIPS6101
 OpenBabel05252300073D

 33 36  0  0  0  0  0  0  0  0999 V2000
   69.7466   78.6712   90.3174 C   0  0  0  0  0  0  0  0  0  0  0  0
   71.1434   78.5792   90.2352 C   0  0  0  0  0  0  0  0  0  0  0  0
   71.8199   77.5374   90.8726 C   0  0  0  0  0  0  0  0  0  0  0  0
   71.1103   76.5801   91.6002 C   0  0  0  0  0  0  0  0  0  0  0  0
   69.7115   76.6617   91.7070 C   0  0  0  0  0  0  0  0  0  0  0  0
   69.0391   77.7245   91.0783 C   0  0  0  0  0  0  0  0  0  0  0  0
   68.9514   75.6307   92.4556 C   0  0  0  0  0  0  0  0  0  0  0  0
   67.5722   75.7889   92.6812 C   0  0  0  0  0  0  0  0  0  0  0  0
   66.8489   74.8016   93.3539 C   0  0  0  0  0  0  0  0  0  0  0  0
   67.4931   73.6532   93.8184 C   0  0  0  0  0  0  0  0  0  0  0  0
   68.8687   73.4886   93.6287 C   0  0  0  0  0  0  0  0  0  0  0  0
   69.5931   74.4728   92.9318 C   0  0  0  0  0  0  0  0  0  0  0  0
   69.4797   72.3185   94.1017 O   0  0  0  0  0  0  0  0  0  0  0  0
   70.2001   71.4073   93.3156 C   0  0  0  0  0  0  0  0  0  0  0  0
   69.5620   70.8090   92.2218 C   0  0  0  0  0  0  0  0  0  0  0  0
   70.2421   69.8787   91.4296 C   0  0  0  0  0  0  0  0  0  0  0  0
   71.5610   69.5291   91.7351 C   0  0  0  0  0  0  0  0  0  0  0  0
   72.2022   70.1120   92.8310 C   0  0  0  0  0  0  0  0  0  0  0  0
   71.5253   71.0442   93.6236 C   0  0  0  0  0  0  0  0  0  0  0  0
   69.0282   79.8086   89.6334 C   0  0  0  0  0  0  0  0  0  0  0  0
   69.3359   81.0685   90.2333 O   0  0  0  0  0  0  0  0  0  0  0  0
   70.2271   83.8958   88.0017 C   0  0  0  0  0  0  0  0  0  0  0  0
   69.5051   82.8797   88.6583 C   0  0  0  0  0  0  0  0  0  0  0  0
   70.1051   82.0820   89.6378 C   0  0  0  0  0  0  0  0  0  0  0  0
   71.4456   82.3137   89.9864 C   0  0  0  0  0  0  0  0  0  0  0  0
   72.1720   83.3203   89.3515 C   0  0  0  0  0  0  0  0  0  0  0  0
   71.5771   84.1120   88.3596 C   0  0  0  0  0  0  0  0  0  0  0  0
   72.3303   85.1092   87.7392 O   0  0  0  0  0  0  0  0  0  0  0  0
   73.2245   85.2426   87.9855 H   0  0  0  0  0  0  0  0  0  0  0  0
   68.3083   84.8786   86.9843 O   0  0  0  0  0  0  0  0  0  0  0  0
   69.5574   84.7085   86.9533 C   0  0  0  0  0  0  0  0  0  0  0  0
   70.2898   85.2908   85.9228 O   0  0  0  0  0  0  0  0  0  0  0  0
   71.2187   85.1745   85.8846 H   0  0  0  0  0  0  0  0  0  0  0  0
  1  2  2  0  0  0  0
  2  3  1  0  0  0  0
  3  4  2  0  0  0  0
  4  5  1  0  0  0  0
  5  7  1  0  0  0  0
  5  6  2  0  0  0  0
  6  1  1  0  0  0  0
  7  8  2  0  0  0  0
  8  9  1  0  0  0  0
  9 10  2  0  0  0  0
 10 11  1  0  0  0  0
 11 13  1  0  0  0  0
 11 12  2  0  0  0  0
 12  7  1  0  0  0  0
 13 14  1  0  0  0  0
 14 15  2  0  0  0  0
 15 16  1  0  0  0  0
 16 17  2  0  0  0  0
 17 18  1  0  0  0  0
 18 19  2  0  0  0  0
 19 14  1  0  0  0  0
 20  1  1  0  0  0  0
 21 20  1  0  0  0  0
 22 23  2  0  0  0  0
 23 24  1  0  0  0  0
 24 21  1  0  0  0  0
 24 25  2  0  0  0  0
 25 26  1  0  0  0  0
 26 27  2  0  0  0  0
 27 28  1  0  0  0  0
 27 22  1  0  0  0  0
 28 29  1  0  0  0  0
 30 31  2  0  0  0  0
 31 32  1  0  0  0  0
 31 22  1  0  0  0  0
 32 33  1  0  0  0  0
M  END
>  <Activity>
39.1

>  <minimizedAffinity>
-8.88018

>  <RFScoreVS_v2>
5.99082596459

$$$$
HIPS6124
 OpenBabel05252300073D

 26 29  0  0  0  0  0  0  0  0999 V2000
   67.6657   77.5856   92.8018 O   0  0  0  0  0  0  0  0  0  0  0  0
   68.2040   74.4872   94.7205 C   0  0  0  0  0  0  0  0  0  0  0  0
   68.4342   75.6002   93.9183 C   0  0  0  0  0  0  0  0  0  0  0  0
   67.4298   76.4839   93.5980 C   0  0  0  0  0  0  0  0  0  0  0  0
   66.1435   76.3055   94.0600 C   0  0  0  0  0  0  0  0  0  0  0  0
   65.9155   75.1978   94.8580 C   0  0  0  0  0  0  0  0  0  0  0  0
   66.9220   74.2981   95.1883 C   0  0  0  0  0  0  0  0  0  0  0  0
   66.6602   73.1873   95.9976 O   0  0  0  0  0  0  0  0  0  0  0  0
   65.7951   73.0404   96.3261 H   0  0  0  0  0  0  0  0  0  0  0  0
   70.2274   73.4063   94.2253 O   0  0  0  0  0  0  0  0  0  0  0  0
   69.2880   73.5613   95.0476 C   0  0  0  0  0  0  0  0  0  0  0  0
   69.3250   72.8486   96.2220 O   0  0  0  0  0  0  0  0  0  0  0  0
   68.6374   72.9461   96.8510 H   0  0  0  0  0  0  0  0  0  0  0  0
   68.6173   77.4470   91.7667 C   0  0  0  0  0  0  0  0  0  0  0  0
   68.1481   76.6372   90.6402 C   0  0  0  0  0  0  0  0  0  0  0  0
   68.1480   75.2626   90.7738 C   0  0  0  0  0  0  0  0  0  0  0  0
   67.7157   74.4510   89.7421 C   0  0  0  0  0  0  0  0  0  0  0  0
   67.2848   75.0654   88.5756 C   0  0  0  0  0  0  0  0  0  0  0  0
   67.2729   76.4323   88.4121 C   0  0  0  0  0  0  0  0  0  0  0  0
   67.7125   77.2130   89.4653 C   0  0  0  0  0  0  0  0  0  0  0  0
   67.7290   72.9953   89.9176 C   0  0  0  0  0  0  0  0  0  0  0  0
   67.2543   72.4224   91.2206 C   0  0  0  0  0  0  0  0  0  0  0  0
   68.6954   72.4441   90.9101 C   0  0  0  0  0  0  0  0  0  0  0  0
   66.8092   77.0680   87.1592 C   0  0  0  0  0  0  0  0  0  0  0  0
   67.8332   77.5773   86.2174 C   0  0  0  0  0  0  0  0  0  0  0  0
   67.0435   76.3621   85.8776 C   0  0  0  0  0  0  0  0  0  0  0  0
  1 14  1  0  0  0  0
  2  3  2  0  0  0  0
  3  4  1  0  0  0  0
  4  1  1  0  0  0  0
  4  5  2  0  0  0  0
  5  6  1  0  0  0  0
  6  7  2  0  0  0  0
  7  8  1  0  0  0  0
  7  2  1  0  0  0  0
  8  9  1  0  0  0  0
 10 11  2  0  0  0  0
 11 12  1  0  0  0  0
 11  2  1  0  0  0  0
 12 13  1  0  0  0  0
 14 15  1  0  0  0  0
 15 16  2  0  0  0  0
 16 17  1  0  0  0  0
 17 21  1  0  0  0  0
 17 18  2  0  0  0  0
 18 19  1  0  0  0  0
 19 24  1  0  0  0  0
 19 20  2  0  0  0  0
 20 15  1  0  0  0  0
 21 22  1  0  0  0  0
 22 23  1  0  0  0  0
 23 21  1  0  0  0  0
 24 25  1  0  0  0  0
 25 26  1  0  0  0  0
 26 24  1  0  0  0  0
M  END
>  <Activity>
59.9

>  <minimizedAffinity>
-8.34258

>  <RFScoreVS_v2>
5.96936512158

$$$$
HIPS6124
 OpenBabel05252300073D

 26 29  0  0  0  0  0  0  0  0999 V2000
   68.2315   77.5950   92.8354 O   0  0  0  0  0  0  0  0  0  0  0  0
   68.4068   74.4418   94.7321 C   0  0  0  0  0  0  0  0  0  0  0  0
   68.7760   75.5529   93.9808 C   0  0  0  0  0  0  0  0  0  0  0  0
   67.8578   76.4957   93.5804 C   0  0  0  0  0  0  0  0  0  0  0  0
   66.5237   76.3815   93.9074 C   0  0  0  0  0  0  0  0  0  0  0  0
   66.1573   75.2756   94.6549 C   0  0  0  0  0  0  0  0  0  0  0  0
   67.0757   74.3166   95.0651 C   0  0  0  0  0  0  0  0  0  0  0  0
   66.6745   73.2093   95.8203 O   0  0  0  0  0  0  0  0  0  0  0  0
   65.7740   73.1053   96.0574 H   0  0  0  0  0  0  0  0  0  0  0  0
   70.3858   73.2258   94.3968 O   0  0  0  0  0  0  0  0  0  0  0  0
   69.4011   73.4523   95.1463 C   0  0  0  0  0  0  0  0  0  0  0  0
   69.3056   72.7547   96.3265 O   0  0  0  0  0  0  0  0  0  0  0  0
   68.5818   72.9050   96.9022 H   0  0  0  0  0  0  0  0  0  0  0  0
   69.0540   77.3674   91.7094 C   0  0  0  0  0  0  0  0  0  0  0  0
   68.4427   76.5007   90.6994 C   0  0  0  0  0  0  0  0  0  0  0  0
   67.9056   77.0856   89.5694 C   0  0  0  0  0  0  0  0  0  0  0  0
   67.3167   76.3148   88.5850 C   0  0  0  0  0  0  0  0  0  0  0  0
   67.2861   74.9410   88.7738 C   0  0  0  0  0  0  0  0  0  0  0  0
   67.8127   74.3286   89.8885 C   0  0  0  0  0  0  0  0  0  0  0  0
   68.3940   75.1312   90.8529 C   0  0  0  0  0  0  0  0  0  0  0  0
   66.7562   76.9684   87.3982 C   0  0  0  0  0  0  0  0  0  0  0  0
   67.1128   76.4308   86.0434 C   0  0  0  0  0  0  0  0  0  0  0  0
   67.7115   77.6937   86.5127 C   0  0  0  0  0  0  0  0  0  0  0  0
   67.7698   72.8610   90.0708 C   0  0  0  0  0  0  0  0  0  0  0  0
   68.8134   72.2342   90.9154 C   0  0  0  0  0  0  0  0  0  0  0  0
   67.4099   72.3228   91.4038 C   0  0  0  0  0  0  0  0  0  0  0  0
  1 14  1  0  0  0  0
  2  3  2  0  0  0  0
  3  4  1  0  0  0  0
  4  1  1  0  0  0  0
  4  5  2  0  0  0  0
  5  6  1  0  0  0  0
  6  7  2  0  0  0  0
  7  8  1  0  0  0  0
  7  2  1  0  0  0  0
  8  9  1  0  0  0  0
 10 11  2  0  0  0  0
 11 12  1  0  0  0  0
 11  2  1  0  0  0  0
 12 13  1  0  0  0  0
 14 15  1  0  0  0  0
 15 16  2  0  0  0  0
 16 17  1  0  0  0  0
 17 21  1  0  0  0  0
 17 18  2  0  0  0  0
 18 19  1  0  0  0  0
 19 24  1  0  0  0  0
 19 20  2  0  0  0  0
 20 15  1  0  0  0  0
 21 22  1  0  0  0  0
 22 23  1  0  0  0  0
 23 21  1  0  0  0  0
 24 25  1  0  0  0  0
 25 26  1  0  0  0  0
 26 24  1  0  0  0  0
M  END
>  <Activity>
59.9

>  <minimizedAffinity>
-8.17435

>  <RFScoreVS_v2>
5.97744222562

$$$$
HIPS6124
 OpenBabel05252300073D

 26 29  0  0  0  0  0  0  0  0999 V2000
   68.1275   72.8729   90.2679 O   0  0  0  0  0  0  0  0  0  0  0  0
   67.8127   73.4162   93.8979 C   0  0  0  0  0  0  0  0  0  0  0  0
   67.5075   73.3418   92.5427 C   0  0  0  0  0  0  0  0  0  0  0  0
   68.4375   72.9442   91.6102 C   0  0  0  0  0  0  0  0  0  0  0  0
   69.7202   72.5996   91.9788 C   0  0  0  0  0  0  0  0  0  0  0  0
   70.0229   72.6740   93.3274 C   0  0  0  0  0  0  0  0  0  0  0  0
   69.0919   73.0742   94.2785 C   0  0  0  0  0  0  0  0  0  0  0  0
   69.4281   73.1393   95.6351 O   0  0  0  0  0  0  0  0  0  0  0  0
   70.2927   72.9109   95.9149 H   0  0  0  0  0  0  0  0  0  0  0  0
   66.6813   73.1941   95.9420 O   0  0  0  0  0  0  0  0  0  0  0  0
   66.8070   73.8419   94.8709 C   0  0  0  0  0  0  0  0  0  0  0  0
   65.9879   74.9258   94.6642 O   0  0  0  0  0  0  0  0  0  0  0  0
   66.0615   75.4249   93.8746 H   0  0  0  0  0  0  0  0  0  0  0  0
   67.0608   73.6751   89.8042 C   0  0  0  0  0  0  0  0  0  0  0  0
   67.4774   75.0041   89.3513 C   0  0  0  0  0  0  0  0  0  0  0  0
   67.0763   75.4276   88.0993 C   0  0  0  0  0  0  0  0  0  0  0  0
   67.4411   76.6723   87.6225 C   0  0  0  0  0  0  0  0  0  0  0  0
   68.2199   77.4745   88.4434 C   0  0  0  0  0  0  0  0  0  0  0  0
   68.6352   77.0810   89.6955 C   0  0  0  0  0  0  0  0  0  0  0  0
   68.2514   75.8291   90.1399 C   0  0  0  0  0  0  0  0  0  0  0  0
   66.9981   77.0902   86.2886 C   0  0  0  0  0  0  0  0  0  0  0  0
   67.3201   76.2127   85.1148 C   0  0  0  0  0  0  0  0  0  0  0  0
   68.0595   77.4727   85.3140 C   0  0  0  0  0  0  0  0  0  0  0  0
   69.4658   77.9521   90.5558 C   0  0  0  0  0  0  0  0  0  0  0  0
   70.8317   78.2897   90.0912 C   0  0  0  0  0  0  0  0  0  0  0  0
   69.7647   79.3277   90.0928 C   0  0  0  0  0  0  0  0  0  0  0  0
  1 14  1  0  0  0  0
  2  3  2  0  0  0  0
  3  4  1  0  0  0  0
  4  1  1  0  0  0  0
  4  5  2  0  0  0  0
  5  6  1  0  0  0  0
  6  7  2  0  0  0  0
  7  8  1  0  0  0  0
  7  2  1  0  0  0  0
  8  9  1  0  0  0  0
 10 11  2  0  0  0  0
 11 12  1  0  0  0  0
 11  2  1  0  0  0  0
 12 13  1  0  0  0  0
 14 15  1  0  0  0  0
 15 16  2  0  0  0  0
 16 17  1  0  0  0  0
 17 21  1  0  0  0  0
 17 18  2  0  0  0  0
 18 19  1  0  0  0  0
 19 24  1  0  0  0  0
 19 20  2  0  0  0  0
 20 15  1  0  0  0  0
 21 22  1  0  0  0  0
 22 23  1  0  0  0  0
 23 21  1  0  0  0  0
 24 25  1  0  0  0  0
 25 26  1  0  0  0  0
 26 24  1  0  0  0  0
M  END
>  <Activity>
59.9

>  <minimizedAffinity>
-8.01768

>  <RFScoreVS_v2>
5.97592117201

$$$$
HIPS6124
 OpenBabel05252300073D

 26 29  0  0  0  0  0  0  0  0999 V2000
   69.3771   80.2309   90.2158 O   0  0  0  0  0  0  0  0  0  0  0  0
   70.4376   83.3110   88.4956 C   0  0  0  0  0  0  0  0  0  0  0  0
   69.6733   82.2219   88.9017 C   0  0  0  0  0  0  0  0  0  0  0  0
   70.1409   81.3086   89.8180 C   0  0  0  0  0  0  0  0  0  0  0  0
   71.3943   81.4323   90.3780 C   0  0  0  0  0  0  0  0  0  0  0  0
   72.1540   82.5162   89.9733 C   0  0  0  0  0  0  0  0  0  0  0  0
   71.6924   83.4453   89.0484 C   0  0  0  0  0  0  0  0  0  0  0  0
   72.4843   84.5311   88.6592 O   0  0  0  0  0  0  0  0  0  0  0  0
   73.3407   84.6407   89.0233 H   0  0  0  0  0  0  0  0  0  0  0  0
   70.6315   84.5791   86.5303 O   0  0  0  0  0  0  0  0  0  0  0  0
   69.9190   84.2692   87.5197 C   0  0  0  0  0  0  0  0  0  0  0  0
   68.6788   84.8494   87.6376 O   0  0  0  0  0  0  0  0  0  0  0  0
   68.1287   84.6353   88.3653 H   0  0  0  0  0  0  0  0  0  0  0  0
   69.9901   78.9581   90.1969 C   0  0  0  0  0  0  0  0  0  0  0  0
   69.1175   77.8918   89.7002 C   0  0  0  0  0  0  0  0  0  0  0  0
   68.5245   78.0505   88.4630 C   0  0  0  0  0  0  0  0  0  0  0  0
   67.6923   77.0755   87.9465 C   0  0  0  0  0  0  0  0  0  0  0  0
   67.4770   75.9395   88.7126 C   0  0  0  0  0  0  0  0  0  0  0  0
   68.0534   75.7521   89.9486 C   0  0  0  0  0  0  0  0  0  0  0  0
   68.8803   76.7485   90.4338 C   0  0  0  0  0  0  0  0  0  0  0  0
   67.0790   77.2765   86.6299 C   0  0  0  0  0  0  0  0  0  0  0  0
   67.1902   76.1827   85.6087 C   0  0  0  0  0  0  0  0  0  0  0  0
   68.0034   77.4044   85.4672 C   0  0  0  0  0  0  0  0  0  0  0  0
   67.8107   74.5325   90.7501 C   0  0  0  0  0  0  0  0  0  0  0  0
   67.8575   73.2238   90.0568 C   0  0  0  0  0  0  0  0  0  0  0  0
   68.9440   73.6104   90.9981 C   0  0  0  0  0  0  0  0  0  0  0  0
  1 14  1  0  0  0  0
  2  3  2  0  0  0  0
  3  4  1  0  0  0  0
  4  1  1  0  0  0  0
  4  5  2  0  0  0  0
  5  6  1  0  0  0  0
  6  7  2  0  0  0  0
  7  8  1  0  0  0  0
  7  2  1  0  0  0  0
  8  9  1  0  0  0  0
 10 11  2  0  0  0  0
 11 12  1  0  0  0  0
 11  2  1  0  0  0  0
 12 13  1  0  0  0  0
 14 15  1  0  0  0  0
 15 16  2  0  0  0  0
 16 17  1  0  0  0  0
 17 21  1  0  0  0  0
 17 18  2  0  0  0  0
 18 19  1  0  0  0  0
 19 24  1  0  0  0  0
 19 20  2  0  0  0  0
 20 15  1  0  0  0  0
 21 22  1  0  0  0  0
 22 23  1  0  0  0  0
 23 21  1  0  0  0  0
 24 25  1  0  0  0  0
 25 26  1  0  0  0  0
 26 24  1  0  0  0  0
M  END
>  <Activity>
59.9

>  <minimizedAffinity>
-7.94551

>  <RFScoreVS_v2>
5.96672553876

$$$$
HIPS6124
 OpenBabel05252300073D

 26 29  0  0  0  0  0  0  0  0999 V2000
   70.4963   76.1671   92.5553 O   0  0  0  0  0  0  0  0  0  0  0  0
   67.7165   73.9302   93.4721 C   0  0  0  0  0  0  0  0  0  0  0  0
   68.6663   74.9454   93.5235 C   0  0  0  0  0  0  0  0  0  0  0  0
   69.5572   75.1583   92.4971 C   0  0  0  0  0  0  0  0  0  0  0  0
   69.5486   74.3713   91.3656 C   0  0  0  0  0  0  0  0  0  0  0  0
   68.6033   73.3615   91.3153 C   0  0  0  0  0  0  0  0  0  0  0  0
   67.6982   73.1368   92.3459 C   0  0  0  0  0  0  0  0  0  0  0  0
   66.7539   72.1076   92.2657 O   0  0  0  0  0  0  0  0  0  0  0  0
   66.7247   71.5565   91.5084 H   0  0  0  0  0  0  0  0  0  0  0  0
   67.2324   73.4559   95.7189 O   0  0  0  0  0  0  0  0  0  0  0  0
   66.7796   73.7231   94.5760 C   0  0  0  0  0  0  0  0  0  0  0  0
   65.4171   73.8080   94.4176 O   0  0  0  0  0  0  0  0  0  0  0  0
   65.0547   74.0057   93.5765 H   0  0  0  0  0  0  0  0  0  0  0  0
   71.0764   76.5855   91.3369 C   0  0  0  0  0  0  0  0  0  0  0  0
   70.4622   77.7909   90.7757 C   0  0  0  0  0  0  0  0  0  0  0  0
   71.2281   78.9364   90.6825 C   0  0  0  0  0  0  0  0  0  0  0  0
   70.6986   80.1016   90.1610 C   0  0  0  0  0  0  0  0  0  0  0  0
   69.3780   80.0767   89.7376 C   0  0  0  0  0  0  0  0  0  0  0  0
   68.5894   78.9512   89.8172 C   0  0  0  0  0  0  0  0  0  0  0  0
   69.1525   77.8036   90.3445 C   0  0  0  0  0  0  0  0  0  0  0  0
   71.5397   81.2997   90.0768 C   0  0  0  0  0  0  0  0  0  0  0  0
   71.2161   82.4705   90.9577 C   0  0  0  0  0  0  0  0  0  0  0  0
   70.9090   82.5290   89.5169 C   0  0  0  0  0  0  0  0  0  0  0  0
   67.1825   78.9457   89.3598 C   0  0  0  0  0  0  0  0  0  0  0  0
   66.7863   79.9209   88.3171 C   0  0  0  0  0  0  0  0  0  0  0  0
   66.8855   78.4728   87.9871 C   0  0  0  0  0  0  0  0  0  0  0  0
  1 14  1  0  0  0  0
  2  3  2  0  0  0  0
  3  4  1  0  0  0  0
  4  1  1  0  0  0  0
  4  5  2  0  0  0  0
  5  6  1  0  0  0  0
  6  7  2  0  0  0  0
  7  8  1  0  0  0  0
  7  2  1  0  0  0  0
  8  9  1  0  0  0  0
 10 11  2  0  0  0  0
 11 12  1  0  0  0  0
 11  2  1  0  0  0  0
 12 13  1  0  0  0  0
 14 15  1  0  0  0  0
 15 16  2  0  0  0  0
 16 17  1  0  0  0  0
 17 21  1  0  0  0  0
 17 18  2  0  0  0  0
 18 19  1  0  0  0  0
 19 24  1  0  0  0  0
 19 20  2  0  0  0  0
 20 15  1  0  0  0  0
 21 22  1  0  0  0  0
 22 23  1  0  0  0  0
 23 21  1  0  0  0  0
 24 25  1  0  0  0  0
 25 26  1  0  0  0  0
 26 24  1  0  0  0  0
M  END
>  <Activity>
59.9

>  <minimizedAffinity>
-7.77471

>  <RFScoreVS_v2>
5.98853041439

$$$$
HIPS6124
 OpenBabel05252300073D

 26 29  0  0  0  0  0  0  0  0999 V2000
   68.9267   77.6132   92.5207 O   0  0  0  0  0  0  0  0  0  0  0  0
   67.1341   75.2110   94.6625 C   0  0  0  0  0  0  0  0  0  0  0  0
   67.3998   76.2808   93.8138 C   0  0  0  0  0  0  0  0  0  0  0  0
   68.6709   76.5504   93.3622 C   0  0  0  0  0  0  0  0  0  0  0  0
   69.7441   75.7685   93.7321 C   0  0  0  0  0  0  0  0  0  0  0  0
   69.4788   74.7044   94.5766 C   0  0  0  0  0  0  0  0  0  0  0  0
   68.1990   74.4221   95.0393 C   0  0  0  0  0  0  0  0  0  0  0  0
   67.9624   73.3387   95.8923 O   0  0  0  0  0  0  0  0  0  0  0  0
   68.6729   72.7898   96.1605 H   0  0  0  0  0  0  0  0  0  0  0  0
   65.2234   75.7656   95.9073 O   0  0  0  0  0  0  0  0  0  0  0  0
   65.7740   74.9441   95.1297 C   0  0  0  0  0  0  0  0  0  0  0  0
   65.0669   73.8273   94.7536 O   0  0  0  0  0  0  0  0  0  0  0  0
   65.4545   73.2002   94.1753 H   0  0  0  0  0  0  0  0  0  0  0  0
   69.5622   77.3298   91.2911 C   0  0  0  0  0  0  0  0  0  0  0  0
   68.7427   76.5339   90.3746 C   0  0  0  0  0  0  0  0  0  0  0  0
   68.5671   75.1913   90.6470 C   0  0  0  0  0  0  0  0  0  0  0  0
   67.8036   74.3941   89.8154 C   0  0  0  0  0  0  0  0  0  0  0  0
   67.2245   74.9897   88.7046 C   0  0  0  0  0  0  0  0  0  0  0  0
   67.3808   76.3245   88.4064 C   0  0  0  0  0  0  0  0  0  0  0  0
   68.1514   77.0916   89.2607 C   0  0  0  0  0  0  0  0  0  0  0  0
   67.6381   72.9726   90.1342 C   0  0  0  0  0  0  0  0  0  0  0  0
   67.2953   72.5853   91.5428 C   0  0  0  0  0  0  0  0  0  0  0  0
   68.6591   72.3586   91.0305 C   0  0  0  0  0  0  0  0  0  0  0  0
   66.7542   76.9405   87.2161 C   0  0  0  0  0  0  0  0  0  0  0  0
   67.6083   77.7632   86.3279 C   0  0  0  0  0  0  0  0  0  0  0  0
   67.1257   76.4297   85.8755 C   0  0  0  0  0  0  0  0  0  0  0  0
  1 14  1  0  0  0  0
  2  3  2  0  0  0  0
  3  4  1  0  0  0  0
  4  1  1  0  0  0  0
  4  5  2  0  0  0  0
  5  6  1  0  0  0  0
  6  7  2  0  0  0  0
  7  8  1  0  0  0  0
  7  2  1  0  0  0  0
  8  9  1  0  0  0  0
 10 11  2  0  0  0  0
 11 12  1  0  0  0  0
 11  2  1  0  0  0  0
 12 13  1  0  0  0  0
 14 15  1  0  0  0  0
 15 16  2  0  0  0  0
 16 17  1  0  0  0  0
 17 21  1  0  0  0  0
 17 18  2  0  0  0  0
 18 19  1  0  0  0  0
 19 24  1  0  0  0  0
 19 20  2  0  0  0  0
 20 15  1  0  0  0  0
 21 22  1  0  0  0  0
 22 23  1  0  0  0  0
 23 21  1  0  0  0  0
 24 25  1  0  0  0  0
 25 26  1  0  0  0  0
 26 24  1  0  0  0  0
M  END
>  <Activity>
59.9

>  <minimizedAffinity>
-7.74824

>  <RFScoreVS_v2>
5.98544030843

$$$$
HIPS6124
 OpenBabel05252300073D

 26 29  0  0  0  0  0  0  0  0999 V2000
   70.5428   76.1921   92.5231 O   0  0  0  0  0  0  0  0  0  0  0  0
   67.7574   73.9743   93.4685 C   0  0  0  0  0  0  0  0  0  0  0  0
   68.7110   74.9865   93.5077 C   0  0  0  0  0  0  0  0  0  0  0  0
   69.5999   75.1863   92.4770 C   0  0  0  0  0  0  0  0  0  0  0  0
   69.5854   74.3885   91.3531 C   0  0  0  0  0  0  0  0  0  0  0  0
   68.6364   73.3817   91.3150 C   0  0  0  0  0  0  0  0  0  0  0  0
   67.7332   73.1702   92.3500 C   0  0  0  0  0  0  0  0  0  0  0  0
   66.7850   72.1437   92.2822 O   0  0  0  0  0  0  0  0  0  0  0  0
   66.7517   71.5856   91.5303 H   0  0  0  0  0  0  0  0  0  0  0  0
   65.5956   73.9785   94.3819 O   0  0  0  0  0  0  0  0  0  0  0  0
   66.8227   73.7812   94.5768 C   0  0  0  0  0  0  0  0  0  0  0  0
   67.2296   73.3910   95.8302 O   0  0  0  0  0  0  0  0  0  0  0  0
   68.1380   73.2377   96.0012 H   0  0  0  0  0  0  0  0  0  0  0  0
   71.1066   76.6105   91.2970 C   0  0  0  0  0  0  0  0  0  0  0  0
   70.5320   77.8541   90.7787 C   0  0  0  0  0  0  0  0  0  0  0  0
   69.2073   77.8533   90.3878 C   0  0  0  0  0  0  0  0  0  0  0  0
   68.6149   78.9991   89.8917 C   0  0  0  0  0  0  0  0  0  0  0  0
   69.3959   80.1418   89.8020 C   0  0  0  0  0  0  0  0  0  0  0  0
   70.7182   80.1743   90.1834 C   0  0  0  0  0  0  0  0  0  0  0  0
   71.2778   79.0093   90.6752 C   0  0  0  0  0  0  0  0  0  0  0  0
   67.2063   78.9630   89.4858 C   0  0  0  0  0  0  0  0  0  0  0  0
   66.8793   78.9125   88.0222 C   0  0  0  0  0  0  0  0  0  0  0  0
   66.6775   80.1630   88.7766 C   0  0  0  0  0  0  0  0  0  0  0  0
   71.5342   81.4040   90.0797 C   0  0  0  0  0  0  0  0  0  0  0  0
   70.9336   82.5830   89.4129 C   0  0  0  0  0  0  0  0  0  0  0  0
   71.1433   82.5839   90.8866 C   0  0  0  0  0  0  0  0  0  0  0  0
  1 14  1  0  0  0  0
  2  3  2  0  0  0  0
  3  4  1  0  0  0  0
  4  1  1  0  0  0  0
  4  5  2  0  0  0  0
  5  6  1  0  0  0  0
  6  7  2  0  0  0  0
  7  8  1  0  0  0  0
  7  2  1  0  0  0  0
  8  9  1  0  0  0  0
 10 11  2  0  0  0  0
 11 12  1  0  0  0  0
 11  2  1  0  0  0  0
 12 13  1  0  0  0  0
 14 15  1  0  0  0  0
 15 16  2  0  0  0  0
 16 17  1  0  0  0  0
 17 21  1  0  0  0  0
 17 18  2  0  0  0  0
 18 19  1  0  0  0  0
 19 24  1  0  0  0  0
 19 20  2  0  0  0  0
 20 15  1  0  0  0  0
 21 22  1  0  0  0  0
 22 23  1  0  0  0  0
 23 21  1  0  0  0  0
 24 25  1  0  0  0  0
 25 26  1  0  0  0  0
 26 24  1  0  0  0  0
M  END
>  <Activity>
59.9

>  <minimizedAffinity>
-7.67335

>  <RFScoreVS_v2>
5.98329858793

$$$$
HIPS6124
 OpenBabel05252300073D

 26 29  0  0  0  0  0  0  0  0999 V2000
   66.6780   76.6242   92.0303 O   0  0  0  0  0  0  0  0  0  0  0  0
   68.0344   74.1485   94.3972 C   0  0  0  0  0  0  0  0  0  0  0  0
   67.9044   74.9904   93.2974 C   0  0  0  0  0  0  0  0  0  0  0  0
   66.7999   75.7918   93.1236 C   0  0  0  0  0  0  0  0  0  0  0  0
   65.7670   75.7968   94.0363 C   0  0  0  0  0  0  0  0  0  0  0  0
   65.8972   74.9587   95.1302 C   0  0  0  0  0  0  0  0  0  0  0  0
   67.0082   74.1447   95.3164 C   0  0  0  0  0  0  0  0  0  0  0  0
   67.1109   73.3080   96.4331 O   0  0  0  0  0  0  0  0  0  0  0  0
   66.4240   73.2904   97.0701 H   0  0  0  0  0  0  0  0  0  0  0  0
   70.1155   73.6623   95.3668 O   0  0  0  0  0  0  0  0  0  0  0  0
   69.2184   73.3053   94.5604 C   0  0  0  0  0  0  0  0  0  0  0  0
   69.3943   72.1322   93.8664 O   0  0  0  0  0  0  0  0  0  0  0  0
   68.7408   71.8442   93.2599 H   0  0  0  0  0  0  0  0  0  0  0  0
   67.7304   76.6165   91.0877 C   0  0  0  0  0  0  0  0  0  0  0  0
   67.3805   77.2400   89.8094 C   0  0  0  0  0  0  0  0  0  0  0  0
   67.4286   76.4669   88.6660 C   0  0  0  0  0  0  0  0  0  0  0  0
   67.1084   77.0047   87.4338 C   0  0  0  0  0  0  0  0  0  0  0  0
   66.7394   78.3410   87.3897 C   0  0  0  0  0  0  0  0  0  0  0  0
   66.6819   79.1372   88.5113 C   0  0  0  0  0  0  0  0  0  0  0  0
   67.0090   78.5654   89.7271 C   0  0  0  0  0  0  0  0  0  0  0  0
   67.1702   76.1556   86.2400 C   0  0  0  0  0  0  0  0  0  0  0  0
   68.1091   76.5359   85.1331 C   0  0  0  0  0  0  0  0  0  0  0  0
   66.6585   76.7413   84.9681 C   0  0  0  0  0  0  0  0  0  0  0  0
   66.2857   80.5610   88.4427 C   0  0  0  0  0  0  0  0  0  0  0  0
   67.2371   81.5732   88.9579 C   0  0  0  0  0  0  0  0  0  0  0  0
   66.9974   81.4495   87.4940 C   0  0  0  0  0  0  0  0  0  0  0  0
  1 14  1  0  0  0  0
  2  3  2  0  0  0  0
  3  4  1  0  0  0  0
  4  1  1  0  0  0  0
  4  5  2  0  0  0  0
  5  6  1  0  0  0  0
  6  7  2  0  0  0  0
  7  8  1  0  0  0  0
  7  2  1  0  0  0  0
  8  9  1  0  0  0  0
 10 11  2  0  0  0  0
 11 12  1  0  0  0  0
 11  2  1  0  0  0  0
 12 13  1  0  0  0  0
 14 15  1  0  0  0  0
 15 16  2  0  0  0  0
 16 17  1  0  0  0  0
 17 21  1  0  0  0  0
 17 18  2  0  0  0  0
 18 19  1  0  0  0  0
 19 24  1  0  0  0  0
 19 20  2  0  0  0  0
 20 15  1  0  0  0  0
 21 22  1  0  0  0  0
 22 23  1  0  0  0  0
 23 21  1  0  0  0  0
 24 25  1  0  0  0  0
 25 26  1  0  0  0  0
 26 24  1  0  0  0  0
M  END
>  <Activity>
59.9

>  <minimizedAffinity>
-7.62842

>  <RFScoreVS_v2>
5.97533864574

$$$$
HIPS6124
 OpenBabel05252300073D

 26 29  0  0  0  0  0  0  0  0999 V2000
   67.3366   77.8264   88.8186 O   0  0  0  0  0  0  0  0  0  0  0  0
   69.1810   75.5243   91.0253 C   0  0  0  0  0  0  0  0  0  0  0  0
   68.7312   76.6895   90.4128 C   0  0  0  0  0  0  0  0  0  0  0  0
   67.7777   76.6667   89.4214 C   0  0  0  0  0  0  0  0  0  0  0  0
   67.2221   75.4820   88.9883 C   0  0  0  0  0  0  0  0  0  0  0  0
   67.6703   74.3231   89.5983 C   0  0  0  0  0  0  0  0  0  0  0  0
   68.6329   74.3337   90.6007 C   0  0  0  0  0  0  0  0  0  0  0  0
   69.0657   73.1450   91.1985 O   0  0  0  0  0  0  0  0  0  0  0  0
   68.7056   72.3246   90.9243 H   0  0  0  0  0  0  0  0  0  0  0  0
   70.0821   74.8112   93.0716 O   0  0  0  0  0  0  0  0  0  0  0  0
   70.1959   75.5736   92.0775 C   0  0  0  0  0  0  0  0  0  0  0  0
   71.2754   76.4226   92.0267 O   0  0  0  0  0  0  0  0  0  0  0  0
   71.3831   77.0005   91.2970 H   0  0  0  0  0  0  0  0  0  0  0  0
   67.0607   78.9298   89.6569 C   0  0  0  0  0  0  0  0  0  0  0  0
   67.8138   80.1367   89.3087 C   0  0  0  0  0  0  0  0  0  0  0  0
   69.0708   80.3076   89.8549 C   0  0  0  0  0  0  0  0  0  0  0  0
   69.8245   81.4278   89.5600 C   0  0  0  0  0  0  0  0  0  0  0  0
   69.2743   82.3672   88.7005 C   0  0  0  0  0  0  0  0  0  0  0  0
   68.0249   82.2253   88.1403 C   0  0  0  0  0  0  0  0  0  0  0  0
   67.2992   81.0919   88.4578 C   0  0  0  0  0  0  0  0  0  0  0  0
   71.1551   81.5776   90.1575 C   0  0  0  0  0  0  0  0  0  0  0  0
   71.3374   82.5653   91.2722 C   0  0  0  0  0  0  0  0  0  0  0  0
   71.8565   82.8728   89.9269 C   0  0  0  0  0  0  0  0  0  0  0  0
   67.4561   83.2394   87.2254 C   0  0  0  0  0  0  0  0  0  0  0  0
   67.3766   84.6399   87.7025 C   0  0  0  0  0  0  0  0  0  0  0  0
   68.3611   84.2630   86.6515 C   0  0  0  0  0  0  0  0  0  0  0  0
  1 14  1  0  0  0  0
  2  3  2  0  0  0  0
  3  4  1  0  0  0  0
  4  1  1  0  0  0  0
  4  5  2  0  0  0  0
  5  6  1  0  0  0  0
  6  7  2  0  0  0  0
  7  8  1  0  0  0  0
  7  2  1  0  0  0  0
  8  9  1  0  0  0  0
 10 11  2  0  0  0  0
 11 12  1  0  0  0  0
 11  2  1  0  0  0  0
 12 13  1  0  0  0  0
 14 15  1  0  0  0  0
 15 16  2  0  0  0  0
 16 17  1  0  0  0  0
 17 21  1  0  0  0  0
 17 18  2  0  0  0  0
 18 19  1  0  0  0  0
 19 24  1  0  0  0  0
 19 20  2  0  0  0  0
 20 15  1  0  0  0  0
 21 22  1  0  0  0  0
 22 23  1  0  0  0  0
 23 21  1  0  0  0  0
 24 25  1  0  0  0  0
 25 26  1  0  0  0  0
 26 24  1  0  0  0  0
M  END
>  <Activity>
59.9

>  <minimizedAffinity>
-7.62836

>  <RFScoreVS_v2>
5.97592979966

$$$$
HIPS6124
 OpenBabel05252300073D

 26 29  0  0  0  0  0  0  0  0999 V2000
   69.7335   77.0982   90.4364 O   0  0  0  0  0  0  0  0  0  0  0  0
   69.4577   74.4414   92.9734 C   0  0  0  0  0  0  0  0  0  0  0  0
   69.7379   75.1083   91.7852 C   0  0  0  0  0  0  0  0  0  0  0  0
   69.4527   76.4436   91.6178 C   0  0  0  0  0  0  0  0  0  0  0  0
   68.8736   77.1848   92.6254 C   0  0  0  0  0  0  0  0  0  0  0  0
   68.5951   76.5204   93.8073 C   0  0  0  0  0  0  0  0  0  0  0  0
   68.8786   75.1718   93.9880 C   0  0  0  0  0  0  0  0  0  0  0  0
   68.5852   74.5280   95.1950 O   0  0  0  0  0  0  0  0  0  0  0  0
   68.1913   75.0066   95.8977 H   0  0  0  0  0  0  0  0  0  0  0  0
   70.9679   72.6464   93.0417 O   0  0  0  0  0  0  0  0  0  0  0  0
   69.7701   73.0209   93.1279 C   0  0  0  0  0  0  0  0  0  0  0  0
   68.8052   72.0713   93.3646 O   0  0  0  0  0  0  0  0  0  0  0  0
   67.9056   72.3244   93.4332 H   0  0  0  0  0  0  0  0  0  0  0  0
   70.7983   78.0267   90.4456 C   0  0  0  0  0  0  0  0  0  0  0  0
   70.3859   79.3985   90.1403 C   0  0  0  0  0  0  0  0  0  0  0  0
   69.1111   79.6084   89.6519 C   0  0  0  0  0  0  0  0  0  0  0  0
   68.6705   80.8824   89.3474 C   0  0  0  0  0  0  0  0  0  0  0  0
   69.5511   81.9348   89.5496 C   0  0  0  0  0  0  0  0  0  0  0  0
   70.8272   81.7579   90.0348 C   0  0  0  0  0  0  0  0  0  0  0  0
   71.2340   80.4693   90.3286 C   0  0  0  0  0  0  0  0  0  0  0  0
   67.3111   81.0693   88.8307 C   0  0  0  0  0  0  0  0  0  0  0  0
   66.9323   80.4018   87.5413 C   0  0  0  0  0  0  0  0  0  0  0  0
   67.1697   81.8566   87.5725 C   0  0  0  0  0  0  0  0  0  0  0  0
   71.7512   82.8943   90.2433 C   0  0  0  0  0  0  0  0  0  0  0  0
   73.1444   82.7558   89.7584 C   0  0  0  0  0  0  0  0  0  0  0  0
   72.1980   83.6701   89.0624 C   0  0  0  0  0  0  0  0  0  0  0  0
  1 14  1  0  0  0  0
  2  3  2  0  0  0  0
  3  4  1  0  0  0  0
  4  1  1  0  0  0  0
  4  5  2  0  0  0  0
  5  6  1  0  0  0  0
  6  7  2  0  0  0  0
  7  8  1  0  0  0  0
  7  2  1  0  0  0  0
  8  9  1  0  0  0  0
 10 11  2  0  0  0  0
 11 12  1  0  0  0  0
 11  2  1  0  0  0  0
 12 13  1  0  0  0  0
 14 15  1  0  0  0  0
 15 16  2  0  0  0  0
 16 17  1  0  0  0  0
 17 21  1  0  0  0  0
 17 18  2  0  0  0  0
 18 19  1  0  0  0  0
 19 24  1  0  0  0  0
 19 20  2  0  0  0  0
 20 15  1  0  0  0  0
 21 22  1  0  0  0  0
 22 23  1  0  0  0  0
 23 21  1  0  0  0  0
 24 25  1  0  0  0  0
 25 26  1  0  0  0  0
 26 24  1  0  0  0  0
M  END
>  <Activity>
59.9

>  <minimizedAffinity>
-7.59410

>  <RFScoreVS_v2>
5.95871853353

$$$$
HIPS7757 (IAE-158)
 OpenBabel05252300073D

 38 41  0  0  0  0  0  0  0  0999 V2000
   68.6896   74.0317   90.6724 C   0  0  0  0  0  0  0  0  0  0  0  0
   67.7138   73.7867   89.6943 C   0  0  0  0  0  0  0  0  0  0  0  0
   67.1099   74.8520   89.0224 C   0  0  0  0  0  0  0  0  0  0  0  0
   67.4845   76.1670   89.3089 C   0  0  0  0  0  0  0  0  0  0  0  0
   68.4803   76.4268   90.2705 C   0  0  0  0  0  0  0  0  0  0  0  0
   69.0695   75.3540   90.9503 C   0  0  0  0  0  0  0  0  0  0  0  0
   69.3668   72.8889   91.3786 C   0  0  0  0  0  0  0  0  0  0  0  0
   70.0772   73.3855   92.5657 N   0  0  0  0  0  0  0  0  0  0  0  0
   71.0800   73.2610   92.4267 H   0  0  0  0  0  0  0  0  0  0  0  0
   69.6696   72.6621   93.7928 C   0  0  1  0  0  0  0  0  0  0  0  0
   70.7456   71.6993   94.2276 C   0  0  0  0  0  0  0  0  0  0  0  0
   71.8478   71.6708   93.6131 O   0  0  0  0  0  0  0  0  0  0  0  0
   71.2483   69.6401   95.5040 C   0  0  0  0  0  0  0  0  0  0  0  0
   70.5098   70.8392   95.3045 O   0  0  0  0  0  0  0  0  0  0  0  0
   69.4083   73.6626   94.9353 C   0  0  0  0  0  0  0  0  0  0  0  0
   68.5430   74.8141   94.4940 C   0  0  0  0  0  0  0  0  0  0  0  0
   69.0646   76.1175   94.4416 C   0  0  0  0  0  0  0  0  0  0  0  0
   68.2714   77.1758   93.9894 C   0  0  0  0  0  0  0  0  0  0  0  0
   66.9515   76.9422   93.5802 C   0  0  0  0  0  0  0  0  0  0  0  0
   66.1556   77.9884   93.1207 O   0  0  0  0  0  0  0  0  0  0  0  0
   66.4288   75.6460   93.6299 C   0  0  0  0  0  0  0  0  0  0  0  0
   67.2182   74.5858   94.0859 C   0  0  0  0  0  0  0  0  0  0  0  0
   66.5005   78.8588   93.0852 H   0  0  0  0  0  0  0  0  0  0  0  0
   68.9223   77.7257   90.5725 O   0  0  0  0  0  0  0  0  0  0  0  0
   68.3310   78.9303   90.0806 C   0  0  0  0  0  0  0  0  0  0  0  0
   69.3651   80.0302   89.9165 C   0  0  0  0  0  0  0  0  0  0  0  0
   70.6535   79.8173   90.4377 C   0  0  0  0  0  0  0  0  0  0  0  0
   71.6464   80.7828   90.3034 C   0  0  0  0  0  0  0  0  0  0  0  0
   71.3671   81.9895   89.6714 C   0  0  0  0  0  0  0  0  0  0  0  0
   70.0807   82.2581   89.1834 C   0  0  0  0  0  0  0  0  0  0  0  0
   69.0553   81.2803   89.3097 C   0  0  0  0  0  0  0  0  0  0  0  0
   67.6669   81.5303   88.7579 C   0  0  0  0  0  0  0  0  0  0  0  0
   69.8479   83.5767   88.5601 C   0  0  0  0  0  0  0  0  0  0  0  0
   70.0859   83.7714   87.1925 C   0  0  0  0  0  0  0  0  0  0  0  0
   69.8410   85.0182   86.6144 C   0  0  0  0  0  0  0  0  0  0  0  0
   69.3491   86.0556   87.4095 C   0  0  0  0  0  0  0  0  0  0  0  0
   69.1117   85.8475   88.7320 N   0  0  0  0  0  0  0  0  0  0  0  0
   69.3436   84.6426   89.3189 C   0  0  0  0  0  0  0  0  0  0  0  0
  1  2  2  0  0  0  0
  2  3  1  0  0  0  0
  3  4  2  0  0  0  0
  4  5  1  0  0  0  0
  5 24  1  0  0  0  0
  5  6  2  0  0  0  0
  6  1  1  0  0  0  0
  7  1  1  0  0  0  0
  8  7  1  0  0  0  0
  8  9  1  0  0  0  0
 10 15  1  1  0  0  0
 10  8  1  0  0  0  0
 11 12  2  0  0  0  0
 11 10  1  0  0  0  0
 13 14  1  0  0  0  0
 14 11  1  0  0  0  0
 15 16  1  0  0  0  0
 16 17  2  0  0  0  0
 17 18  1  0  0  0  0
 18 19  2  0  0  0  0
 19 20  1  0  0  0  0
 19 21  1  0  0  0  0
 20 23  1  0  0  0  0
 21 22  2  0  0  0  0
 22 16  1  0  0  0  0
 24 25  1  0  0  0  0
 25 26  1  0  0  0  0
 26 27  2  0  0  0  0
 27 28  1  0  0  0  0
 28 29  2  0  0  0  0
 29 30  1  0  0  0  0
 30 33  1  0  0  0  0
 30 31  2  0  0  0  0
 31 32  1  0  0  0  0
 31 26  1  0  0  0  0
 33 34  2  0  0  0  0
 34 35  1  0  0  0  0
 35 36  2  0  0  0  0
 36 37  2  0  0  0  0
 37 38  2  0  0  0  0
 38 33  1  0  0  0  0
M  END
>  <Activity>
60.5

>  <minimizedAffinity>
-9.03635

>  <RFScoreVS_v2>
5.98299236459

$$$$
HIPS7757 (IAE-158)
 OpenBabel05252300073D

 38 41  0  0  0  0  0  0  0  0999 V2000
   68.2726   73.2866   90.3767 C   0  0  0  0  0  0  0  0  0  0  0  0
   67.3586   72.8163   89.4215 C   0  0  0  0  0  0  0  0  0  0  0  0
   66.7214   73.7112   88.5589 C   0  0  0  0  0  0  0  0  0  0  0  0
   67.0014   75.0780   88.6313 C   0  0  0  0  0  0  0  0  0  0  0  0
   67.9352   75.5615   89.5685 C   0  0  0  0  0  0  0  0  0  0  0  0
   68.5579   74.6595   90.4396 C   0  0  0  0  0  0  0  0  0  0  0  0
   68.9862   72.3262   91.2886 C   0  0  0  0  0  0  0  0  0  0  0  0
   69.7498   73.0710   92.3000 N   0  0  0  0  0  0  0  0  0  0  0  0
   70.7392   73.0429   92.0537 H   0  0  0  0  0  0  0  0  0  0  0  0
   69.5760   72.4951   93.6540 C   0  0  1  0  0  0  0  0  0  0  0  0
   70.7110   71.5594   93.9862 C   0  0  0  0  0  0  0  0  0  0  0  0
   70.5780   70.7171   94.9167 O   0  0  0  0  0  0  0  0  0  0  0  0
   72.8699   70.5928   93.2606 C   0  0  0  0  0  0  0  0  0  0  0  0
   71.9060   71.6386   93.2645 O   0  0  0  0  0  0  0  0  0  0  0  0
   69.5363   73.6197   94.7068 C   0  0  0  0  0  0  0  0  0  0  0  0
   68.4943   74.6596   94.3867 C   0  0  0  0  0  0  0  0  0  0  0  0
   67.1384   74.3041   94.2944 C   0  0  0  0  0  0  0  0  0  0  0  0
   66.1701   75.2798   94.0411 C   0  0  0  0  0  0  0  0  0  0  0  0
   66.5457   76.6206   93.8828 C   0  0  0  0  0  0  0  0  0  0  0  0
   65.5880   77.6015   93.6380 O   0  0  0  0  0  0  0  0  0  0  0  0
   67.8944   76.9789   93.9750 C   0  0  0  0  0  0  0  0  0  0  0  0
   68.8660   76.0047   94.2240 C   0  0  0  0  0  0  0  0  0  0  0  0
   64.6829   77.3673   93.5752 H   0  0  0  0  0  0  0  0  0  0  0  0
   68.2826   76.9195   89.6612 O   0  0  0  0  0  0  0  0  0  0  0  0
   68.7263   77.5750   90.8513 C   0  0  0  0  0  0  0  0  0  0  0  0
   68.6528   79.0855   90.7141 C   0  0  0  0  0  0  0  0  0  0  0  0
   67.4279   79.7209   90.9842 C   0  0  0  0  0  0  0  0  0  0  0  0
   67.3050   81.1036   90.8903 C   0  0  0  0  0  0  0  0  0  0  0  0
   68.3923   81.8772   90.4994 C   0  0  0  0  0  0  0  0  0  0  0  0
   69.6156   81.2751   90.1735 C   0  0  0  0  0  0  0  0  0  0  0  0
   69.7588   79.8630   90.2675 C   0  0  0  0  0  0  0  0  0  0  0  0
   71.0802   79.1906   89.9572 C   0  0  0  0  0  0  0  0  0  0  0  0
   70.7136   82.1565   89.7278 C   0  0  0  0  0  0  0  0  0  0  0  0
   71.9381   82.1716   90.4101 C   0  0  0  0  0  0  0  0  0  0  0  0
   72.9732   82.9950   89.9635 C   0  0  0  0  0  0  0  0  0  0  0  0
   72.7759   83.7875   88.8307 C   0  0  0  0  0  0  0  0  0  0  0  0
   71.5866   83.7525   88.1725 N   0  0  0  0  0  0  0  0  0  0  0  0
   70.5625   82.9600   88.5886 C   0  0  0  0  0  0  0  0  0  0  0  0
  1  2  2  0  0  0  0
  2  3  1  0  0  0  0
  3  4  2  0  0  0  0
  4  5  1  0  0  0  0
  5 24  1  0  0  0  0
  5  6  2  0  0  0  0
  6  1  1  0  0  0  0
  7  1  1  0  0  0  0
  8  7  1  0  0  0  0
  8  9  1  0  0  0  0
 10 15  1  1  0  0  0
 10  8  1  0  0  0  0
 11 12  2  0  0  0  0
 11 10  1  0  0  0  0
 13 14  1  0  0  0  0
 14 11  1  0  0  0  0
 15 16  1  0  0  0  0
 16 17  2  0  0  0  0
 17 18  1  0  0  0  0
 18 19  2  0  0  0  0
 19 20  1  0  0  0  0
 19 21  1  0  0  0  0
 20 23  1  0  0  0  0
 21 22  2  0  0  0  0
 22 16  1  0  0  0  0
 24 25  1  0  0  0  0
 25 26  1  0  0  0  0
 26 27  2  0  0  0  0
 27 28  1  0  0  0  0
 28 29  2  0  0  0  0
 29 30  1  0  0  0  0
 30 33  1  0  0  0  0
 30 31  2  0  0  0  0
 31 32  1  0  0  0  0
 31 26  1  0  0  0  0
 33 34  2  0  0  0  0
 34 35  1  0  0  0  0
 35 36  2  0  0  0  0
 36 37  2  0  0  0  0
 37 38  2  0  0  0  0
 38 33  1  0  0  0  0
M  END
>  <Activity>
60.5

>  <minimizedAffinity>
-8.96487

>  <RFScoreVS_v2>
5.95

$$$$
HIPS7757 (IAE-158)
 OpenBabel05252300073D

 38 41  0  0  0  0  0  0  0  0999 V2000
   66.8175   77.6667   93.2863 C   0  0  0  0  0  0  0  0  0  0  0  0
   65.8936   78.4587   93.9850 C   0  0  0  0  0  0  0  0  0  0  0  0
   65.2948   79.5553   93.3605 C   0  0  0  0  0  0  0  0  0  0  0  0
   65.6001   79.8613   92.0320 C   0  0  0  0  0  0  0  0  0  0  0  0
   66.5068   79.0604   91.3107 C   0  0  0  0  0  0  0  0  0  0  0  0
   67.1142   77.9723   91.9489 C   0  0  0  0  0  0  0  0  0  0  0  0
   67.4435   76.4659   93.9416 C   0  0  0  0  0  0  0  0  0  0  0  0
   67.7105   75.4293   92.9344 N   0  0  0  0  0  0  0  0  0  0  0  0
   67.1252   74.6177   93.1324 H   0  0  0  0  0  0  0  0  0  0  0  0
   69.1313   75.0092   92.9414 C   0  0  1  0  0  0  0  0  0  0  0  0
   69.2817   73.6444   93.5649 C   0  0  0  0  0  0  0  0  0  0  0  0
   68.2692   73.0530   94.0322 O   0  0  0  0  0  0  0  0  0  0  0  0
   70.7254   71.6574   93.8646 C   0  0  0  0  0  0  0  0  0  0  0  0
   70.5449   73.0481   93.6273 O   0  0  0  0  0  0  0  0  0  0  0  0
   69.6759   74.9588   91.5007 C   0  0  0  0  0  0  0  0  0  0  0  0
   68.6494   74.4467   90.5241 C   0  0  0  0  0  0  0  0  0  0  0  0
   67.9676   75.3355   89.6764 C   0  0  0  0  0  0  0  0  0  0  0  0
   67.0484   74.8515   88.7412 C   0  0  0  0  0  0  0  0  0  0  0  0
   66.8051   73.4751   88.6397 C   0  0  0  0  0  0  0  0  0  0  0  0
   65.8972   72.9821   87.7060 O   0  0  0  0  0  0  0  0  0  0  0  0
   67.4825   72.5869   89.4811 C   0  0  0  0  0  0  0  0  0  0  0  0
   68.3994   73.0681   90.4206 C   0  0  0  0  0  0  0  0  0  0  0  0
   65.4404   73.5725   87.1396 H   0  0  0  0  0  0  0  0  0  0  0  0
   66.8231   79.2989   89.9628 O   0  0  0  0  0  0  0  0  0  0  0  0
   68.0496   78.9301   89.3286 C   0  0  0  0  0  0  0  0  0  0  0  0
   69.0919   80.0273   89.4542 C   0  0  0  0  0  0  0  0  0  0  0  0
   70.2566   79.7591   90.1949 C   0  0  0  0  0  0  0  0  0  0  0  0
   71.2532   80.7204   90.3312 C   0  0  0  0  0  0  0  0  0  0  0  0
   71.0965   81.9762   89.7549 C   0  0  0  0  0  0  0  0  0  0  0  0
   69.9273   82.2973   89.0515 C   0  0  0  0  0  0  0  0  0  0  0  0
   68.9004   81.3247   88.9002 C   0  0  0  0  0  0  0  0  0  0  0  0
   67.6434   81.6334   88.1132 C   0  0  0  0  0  0  0  0  0  0  0  0
   69.8142   83.6634   88.5016 C   0  0  0  0  0  0  0  0  0  0  0  0
   70.2884   83.9563   87.2154 C   0  0  0  0  0  0  0  0  0  0  0  0
   70.1551   85.2477   86.7021 C   0  0  0  0  0  0  0  0  0  0  0  0
   69.5376   86.2311   87.4779 C   0  0  0  0  0  0  0  0  0  0  0  0
   69.0717   85.9283   88.7189 N   0  0  0  0  0  0  0  0  0  0  0  0
   69.1910   84.6783   89.2417 C   0  0  0  0  0  0  0  0  0  0  0  0
  1  2  2  0  0  0  0
  2  3  1  0  0  0  0
  3  4  2  0  0  0  0
  4  5  1  0  0  0  0
  5 24  1  0  0  0  0
  5  6  2  0  0  0  0
  6  1  1  0  0  0  0
  7  1  1  0  0  0  0
  8  7  1  0  0  0  0
  8  9  1  0  0  0  0
 10 15  1  6  0  0  0
 10  8  1  0  0  0  0
 11 12  2  0  0  0  0
 11 10  1  0  0  0  0
 13 14  1  0  0  0  0
 14 11  1  0  0  0  0
 15 16  1  0  0  0  0
 16 17  2  0  0  0  0
 17 18  1  0  0  0  0
 18 19  2  0  0  0  0
 19 20  1  0  0  0  0
 19 21  1  0  0  0  0
 20 23  1  0  0  0  0
 21 22  2  0  0  0  0
 22 16  1  0  0  0  0
 24 25  1  0  0  0  0
 25 26  1  0  0  0  0
 26 27  2  0  0  0  0
 27 28  1  0  0  0  0
 28 29  2  0  0  0  0
 29 30  1  0  0  0  0
 30 33  1  0  0  0  0
 30 31  2  0  0  0  0
 31 32  1  0  0  0  0
 31 26  1  0  0  0  0
 33 34  2  0  0  0  0
 34 35  1  0  0  0  0
 35 36  2  0  0  0  0
 36 37  2  0  0  0  0
 37 38  2  0  0  0  0
 38 33  1  0  0  0  0
M  END
>  <Activity>
60.5

>  <minimizedAffinity>
-8.77757

>  <RFScoreVS_v2>
5.95742439744

$$$$
HIPS7757 (IAE-158)
 OpenBabel05252300073D

 38 41  0  0  0  0  0  0  0  0999 V2000
   68.4634   73.0361   90.5203 C   0  0  0  0  0  0  0  0  0  0  0  0
   67.6860   72.5043   89.4802 C   0  0  0  0  0  0  0  0  0  0  0  0
   66.9277   73.3497   88.6671 C   0  0  0  0  0  0  0  0  0  0  0  0
   66.9504   74.7311   88.8743 C   0  0  0  0  0  0  0  0  0  0  0  0
   67.7455   75.2812   89.8987 C   0  0  0  0  0  0  0  0  0  0  0  0
   68.4905   74.4254   90.7189 C   0  0  0  0  0  0  0  0  0  0  0  0
   69.3069   72.1354   91.3808 C   0  0  0  0  0  0  0  0  0  0  0  0
   70.0138   72.9311   92.3945 N   0  0  0  0  0  0  0  0  0  0  0  0
   71.0160   72.8857   92.2102 H   0  0  0  0  0  0  0  0  0  0  0  0
   69.7550   72.4305   93.7648 C   0  0  1  0  0  0  0  0  0  0  0  0
   70.8356   71.4712   94.1960 C   0  0  0  0  0  0  0  0  0  0  0  0
   72.0491   71.7927   94.0647 O   0  0  0  0  0  0  0  0  0  0  0  0
   71.2532   69.5804   95.7363 C   0  0  0  0  0  0  0  0  0  0  0  0
   70.4834   70.2282   94.7309 O   0  0  0  0  0  0  0  0  0  0  0  0
   69.7109   73.6070   94.7590 C   0  0  0  0  0  0  0  0  0  0  0  0
   68.7662   74.6921   94.3121 C   0  0  0  0  0  0  0  0  0  0  0  0
   67.3856   74.4452   94.2308 C   0  0  0  0  0  0  0  0  0  0  0  0
   66.5081   75.4674   93.8583 C   0  0  0  0  0  0  0  0  0  0  0  0
   66.9999   76.7473   93.5686 C   0  0  0  0  0  0  0  0  0  0  0  0
   66.1332   77.7746   93.2043 O   0  0  0  0  0  0  0  0  0  0  0  0
   68.3735   76.9975   93.6493 C   0  0  0  0  0  0  0  0  0  0  0  0
   69.2545   75.9760   94.0173 C   0  0  0  0  0  0  0  0  0  0  0  0
   65.2120   77.6128   93.1486 H   0  0  0  0  0  0  0  0  0  0  0  0
   67.8353   76.6641   90.1290 O   0  0  0  0  0  0  0  0  0  0  0  0
   68.0280   77.6551   89.1172 C   0  0  0  0  0  0  0  0  0  0  0  0
   69.0808   78.6698   89.5267 C   0  0  0  0  0  0  0  0  0  0  0  0
   70.3404   78.1964   89.9347 C   0  0  0  0  0  0  0  0  0  0  0  0
   71.3491   79.0799   90.3061 C   0  0  0  0  0  0  0  0  0  0  0  0
   71.1138   80.4503   90.3040 C   0  0  0  0  0  0  0  0  0  0  0  0
   69.8554   80.9574   89.9515 C   0  0  0  0  0  0  0  0  0  0  0  0
   68.8144   80.0679   89.5661 C   0  0  0  0  0  0  0  0  0  0  0  0
   67.4569   80.5916   89.1449 C   0  0  0  0  0  0  0  0  0  0  0  0
   69.6673   82.4211   90.0113 C   0  0  0  0  0  0  0  0  0  0  0  0
   69.2790   83.0423   91.2064 C   0  0  0  0  0  0  0  0  0  0  0  0
   69.1258   84.4291   91.2517 C   0  0  0  0  0  0  0  0  0  0  0  0
   69.3739   85.1821   90.1021 C   0  0  0  0  0  0  0  0  0  0  0  0
   69.7619   84.5660   88.9537 N   0  0  0  0  0  0  0  0  0  0  0  0
   69.9167   83.2165   88.8838 C   0  0  0  0  0  0  0  0  0  0  0  0
  1  2  2  0  0  0  0
  2  3  1  0  0  0  0
  3  4  2  0  0  0  0
  4  5  1  0  0  0  0
  5 24  1  0  0  0  0
  5  6  2  0  0  0  0
  6  1  1  0  0  0  0
  7  1  1  0  0  0  0
  8  7  1  0  0  0  0
  8  9  1  0  0  0  0
 10 15  1  1  0  0  0
 10  8  1  0  0  0  0
 11 12  2  0  0  0  0
 11 10  1  0  0  0  0
 13 14  1  0  0  0  0
 14 11  1  0  0  0  0
 15 16  1  0  0  0  0
 16 17  2  0  0  0  0
 17 18  1  0  0  0  0
 18 19  2  0  0  0  0
 19 20  1  0  0  0  0
 19 21  1  0  0  0  0
 20 23  1  0  0  0  0
 21 22  2  0  0  0  0
 22 16  1  0  0  0  0
 24 25  1  0  0  0  0
 25 26  1  0  0  0  0
 26 27  2  0  0  0  0
 27 28  1  0  0  0  0
 28 29  2  0  0  0  0
 29 30  1  0  0  0  0
 30 33  1  0  0  0  0
 30 31  2  0  0  0  0
 31 32  1  0  0  0  0
 31 26  1  0  0  0  0
 33 34  2  0  0  0  0
 34 35  1  0  0  0  0
 35 36  2  0  0  0  0
 36 37  2  0  0  0  0
 37 38  2  0  0  0  0
 38 33  1  0  0  0  0
M  END
>  <Activity>
60.5

>  <minimizedAffinity>
-8.77039

>  <RFScoreVS_v2>
5.96417199009

$$$$
HIPS7757 (IAE-158)
 OpenBabel05252300073D

 38 41  0  0  0  0  0  0  0  0999 V2000
   70.2311   77.0446   91.8642 C   0  0  0  0  0  0  0  0  0  0  0  0
   71.6050   76.9435   91.5977 C   0  0  0  0  0  0  0  0  0  0  0  0
   72.1872   77.7317   90.6024 C   0  0  0  0  0  0  0  0  0  0  0  0
   71.4086   78.6365   89.8766 C   0  0  0  0  0  0  0  0  0  0  0  0
   70.0331   78.7666   90.1502 C   0  0  0  0  0  0  0  0  0  0  0  0
   69.4544   77.9617   91.1390 C   0  0  0  0  0  0  0  0  0  0  0  0
   69.6022   76.2218   92.9553 C   0  0  0  0  0  0  0  0  0  0  0  0
   70.2295   74.8933   93.0042 N   0  0  0  0  0  0  0  0  0  0  0  0
   70.9718   74.8527   92.3057 H   0  0  0  0  0  0  0  0  0  0  0  0
   69.2526   73.8138   92.7294 C   0  0  1  0  0  0  0  0  0  0  0  0
   69.0451   72.9572   93.9530 C   0  0  0  0  0  0  0  0  0  0  0  0
   68.0434   73.1553   94.6951 O   0  0  0  0  0  0  0  0  0  0  0  0
   70.8841   71.4354   93.3018 C   0  0  0  0  0  0  0  0  0  0  0  0
   69.9699   71.9544   94.2599 O   0  0  0  0  0  0  0  0  0  0  0  0
   67.8982   74.4187   92.3121 C   0  0  0  0  0  0  0  0  0  0  0  0
   67.6025   74.1940   90.8520 C   0  0  0  0  0  0  0  0  0  0  0  0
   67.4404   72.8917   90.3506 C   0  0  0  0  0  0  0  0  0  0  0  0
   67.1225   72.6899   89.0046 C   0  0  0  0  0  0  0  0  0  0  0  0
   66.9581   73.7863   88.1474 C   0  0  0  0  0  0  0  0  0  0  0  0
   66.6335   73.5963   86.8066 O   0  0  0  0  0  0  0  0  0  0  0  0
   67.1176   75.0844   88.6429 C   0  0  0  0  0  0  0  0  0  0  0  0
   67.4400   75.2897   89.9879 C   0  0  0  0  0  0  0  0  0  0  0  0
   66.5253   72.7289   86.4691 H   0  0  0  0  0  0  0  0  0  0  0  0
   69.2097   79.6852   89.4779 O   0  0  0  0  0  0  0  0  0  0  0  0
   68.6294   80.8519   90.0650 C   0  0  0  0  0  0  0  0  0  0  0  0
   68.5985   82.0107   89.0842 C   0  0  0  0  0  0  0  0  0  0  0  0
   67.7549   81.9136   87.9635 C   0  0  0  0  0  0  0  0  0  0  0  0
   67.6732   82.9506   87.0394 C   0  0  0  0  0  0  0  0  0  0  0  0
   68.4505   84.0924   87.1995 C   0  0  0  0  0  0  0  0  0  0  0  0
   69.3402   84.2043   88.2769 C   0  0  0  0  0  0  0  0  0  0  0  0
   69.4332   83.1545   89.2324 C   0  0  0  0  0  0  0  0  0  0  0  0
   70.3591   83.2660   90.4261 C   0  0  0  0  0  0  0  0  0  0  0  0
   70.1625   85.4283   88.3599 C   0  0  0  0  0  0  0  0  0  0  0  0
   69.6145   86.6245   88.8433 C   0  0  0  0  0  0  0  0  0  0  0  0
   70.4108   87.7675   88.9351 C   0  0  0  0  0  0  0  0  0  0  0  0
   71.7519   87.6987   88.5520 C   0  0  0  0  0  0  0  0  0  0  0  0
   72.2720   86.5278   88.0967 N   0  0  0  0  0  0  0  0  0  0  0  0
   71.5165   85.4011   87.9967 C   0  0  0  0  0  0  0  0  0  0  0  0
  1  2  2  0  0  0  0
  2  3  1  0  0  0  0
  3  4  2  0  0  0  0
  4  5  1  0  0  0  0
  5 24  1  0  0  0  0
  5  6  2  0  0  0  0
  6  1  1  0  0  0  0
  7  1  1  0  0  0  0
  8  7  1  0  0  0  0
  8  9  1  0  0  0  0
 10 15  1  1  0  0  0
 10  8  1  0  0  0  0
 11 12  2  0  0  0  0
 11 10  1  0  0  0  0
 13 14  1  0  0  0  0
 14 11  1  0  0  0  0
 15 16  1  0  0  0  0
 16 17  2  0  0  0  0
 17 18  1  0  0  0  0
 18 19  2  0  0  0  0
 19 20  1  0  0  0  0
 19 21  1  0  0  0  0
 20 23  1  0  0  0  0
 21 22  2  0  0  0  0
 22 16  1  0  0  0  0
 24 25  1  0  0  0  0
 25 26  1  0  0  0  0
 26 27  2  0  0  0  0
 27 28  1  0  0  0  0
 28 29  2  0  0  0  0
 29 30  1  0  0  0  0
 30 33  1  0  0  0  0
 30 31  2  0  0  0  0
 31 32  1  0  0  0  0
 31 26  1  0  0  0  0
 33 34  2  0  0  0  0
 34 35  1  0  0  0  0
 35 36  2  0  0  0  0
 36 37  2  0  0  0  0
 37 38  2  0  0  0  0
 38 33  1  0  0  0  0
M  END
>  <Activity>
60.5

>  <minimizedAffinity>
-8.67917

>  <RFScoreVS_v2>
5.98610934684

$$$$
HIPS7757 (IAE-158)
 OpenBabel05252300073D

 38 41  0  0  0  0  0  0  0  0999 V2000
   67.0007   78.7051   92.4242 C   0  0  0  0  0  0  0  0  0  0  0  0
   66.8518   79.4562   93.6000 C   0  0  0  0  0  0  0  0  0  0  0  0
   66.9180   80.8507   93.5557 C   0  0  0  0  0  0  0  0  0  0  0  0
   67.1175   81.5069   92.3386 C   0  0  0  0  0  0  0  0  0  0  0  0
   67.2438   80.7669   91.1468 C   0  0  0  0  0  0  0  0  0  0  0  0
   67.1916   79.3689   91.2023 C   0  0  0  0  0  0  0  0  0  0  0  0
   66.8999   77.2045   92.4587 C   0  0  0  0  0  0  0  0  0  0  0  0
   68.1994   76.6245   92.8272 N   0  0  0  0  0  0  0  0  0  0  0  0
   68.6942   77.2803   93.4318 H   0  0  0  0  0  0  0  0  0  0  0  0
   69.0348   76.3465   91.6356 C   0  0  1  0  0  0  0  0  0  0  0  0
   70.4039   76.9600   91.7883 C   0  0  0  0  0  0  0  0  0  0  0  0
   71.1954   76.5177   92.6665 O   0  0  0  0  0  0  0  0  0  0  0  0
   70.2438   78.2054   89.6563 C   0  0  0  0  0  0  0  0  0  0  0  0
   70.7825   78.0207   90.9596 O   0  0  0  0  0  0  0  0  0  0  0  0
   69.1918   74.8259   91.4419 C   0  0  0  0  0  0  0  0  0  0  0  0
   68.2894   74.2961   90.3580 C   0  0  0  0  0  0  0  0  0  0  0  0
   67.6630   75.1761   89.4598 C   0  0  0  0  0  0  0  0  0  0  0  0
   66.8620   74.6775   88.4285 C   0  0  0  0  0  0  0  0  0  0  0  0
   66.6830   73.2954   88.2808 C   0  0  0  0  0  0  0  0  0  0  0  0
   65.8935   72.7882   87.2520 O   0  0  0  0  0  0  0  0  0  0  0  0
   67.3057   72.4160   89.1723 C   0  0  0  0  0  0  0  0  0  0  0  0
   68.1041   72.9116   90.2077 C   0  0  0  0  0  0  0  0  0  0  0  0
   65.4739   73.3726   86.6518 H   0  0  0  0  0  0  0  0  0  0  0  0
   67.4089   81.3745   89.8909 O   0  0  0  0  0  0  0  0  0  0  0  0
   68.6453   81.4700   89.1803 C   0  0  0  0  0  0  0  0  0  0  0  0
   68.7426   82.7735   88.4073 C   0  0  0  0  0  0  0  0  0  0  0  0
   67.9040   82.9521   87.2929 C   0  0  0  0  0  0  0  0  0  0  0  0
   67.9378   84.1318   86.5558 C   0  0  0  0  0  0  0  0  0  0  0  0
   68.8266   85.1448   86.8984 C   0  0  0  0  0  0  0  0  0  0  0  0
   69.7130   84.9831   87.9722 C   0  0  0  0  0  0  0  0  0  0  0  0
   69.6888   83.7846   88.7380 C   0  0  0  0  0  0  0  0  0  0  0  0
   70.6100   83.5993   89.9261 C   0  0  0  0  0  0  0  0  0  0  0  0
   70.6556   86.0851   88.2521 C   0  0  0  0  0  0  0  0  0  0  0  0
   72.0104   85.9690   87.9115 C   0  0  0  0  0  0  0  0  0  0  0  0
   72.8843   87.0279   88.1637 C   0  0  0  0  0  0  0  0  0  0  0  0
   72.3908   88.1980   88.7447 C   0  0  0  0  0  0  0  0  0  0  0  0
   71.0716   88.3000   89.0580 N   0  0  0  0  0  0  0  0  0  0  0  0
   70.2005   87.2819   88.8236 C   0  0  0  0  0  0  0  0  0  0  0  0
  1  2  2  0  0  0  0
  2  3  1  0  0  0  0
  3  4  2  0  0  0  0
  4  5  1  0  0  0  0
  5 24  1  0  0  0  0
  5  6  2  0  0  0  0
  6  1  1  0  0  0  0
  7  1  1  0  0  0  0
  8  7  1  0  0  0  0
  8  9  1  0  0  0  0
 10 15  1  1  0  0  0
 10  8  1  0  0  0  0
 11 12  2  0  0  0  0
 11 10  1  0  0  0  0
 13 14  1  0  0  0  0
 14 11  1  0  0  0  0
 15 16  1  0  0  0  0
 16 17  2  0  0  0  0
 17 18  1  0  0  0  0
 18 19  2  0  0  0  0
 19 20  1  0  0  0  0
 19 21  1  0  0  0  0
 20 23  1  0  0  0  0
 21 22  2  0  0  0  0
 22 16  1  0  0  0  0
 24 25  1  0  0  0  0
 25 26  1  0  0  0  0
 26 27  2  0  0  0  0
 27 28  1  0  0  0  0
 28 29  2  0  0  0  0
 29 30  1  0  0  0  0
 30 33  1  0  0  0  0
 30 31  2  0  0  0  0
 31 32  1  0  0  0  0
 31 26  1  0  0  0  0
 33 34  2  0  0  0  0
 34 35  1  0  0  0  0
 35 36  2  0  0  0  0
 36 37  2  0  0  0  0
 37 38  2  0  0  0  0
 38 33  1  0  0  0  0
M  END
>  <Activity>
60.5

>  <minimizedAffinity>
-8.65486

>  <RFScoreVS_v2>
5.98939447418

$$$$
HIPS7757 (IAE-158)
 OpenBabel05252300073D

 38 41  0  0  0  0  0  0  0  0999 V2000
   68.2674   74.5148   94.7002 C   0  0  0  0  0  0  0  0  0  0  0  0
   67.0360   73.8465   94.6230 C   0  0  0  0  0  0  0  0  0  0  0  0
   65.9111   74.5031   94.1187 C   0  0  0  0  0  0  0  0  0  0  0  0
   66.0082   75.8239   93.6739 C   0  0  0  0  0  0  0  0  0  0  0  0
   67.2434   76.4990   93.7224 C   0  0  0  0  0  0  0  0  0  0  0  0
   68.3626   75.8386   94.2436 C   0  0  0  0  0  0  0  0  0  0  0  0
   69.4906   73.8050   95.2133 C   0  0  0  0  0  0  0  0  0  0  0  0
   69.5031   72.4172   94.7291 N   0  0  0  0  0  0  0  0  0  0  0  0
   69.7758   71.8023   95.4959 H   0  0  0  0  0  0  0  0  0  0  0  0
   70.4533   72.2351   93.6070 C   0  0  1  0  0  0  0  0  0  0  0  0
   71.5383   71.2563   93.9795 C   0  0  0  0  0  0  0  0  0  0  0  0
   72.6523   71.2990   93.3874 O   0  0  0  0  0  0  0  0  0  0  0  0
   71.0648   68.9309   94.6798 C   0  0  0  0  0  0  0  0  0  0  0  0
   71.2978   70.3029   94.9737 O   0  0  0  0  0  0  0  0  0  0  0  0
   69.7113   71.7038   92.3654 C   0  0  0  0  0  0  0  0  0  0  0  0
   69.1602   72.8180   91.5142 C   0  0  0  0  0  0  0  0  0  0  0  0
   68.0610   72.5916   90.6693 C   0  0  0  0  0  0  0  0  0  0  0  0
   67.5253   73.6390   89.9146 C   0  0  0  0  0  0  0  0  0  0  0  0
   68.0785   74.9238   90.0002 C   0  0  0  0  0  0  0  0  0  0  0  0
   67.5472   75.9759   89.2586 O   0  0  0  0  0  0  0  0  0  0  0  0
   69.1722   75.1536   90.8410 C   0  0  0  0  0  0  0  0  0  0  0  0
   69.7133   74.1071   91.5939 C   0  0  0  0  0  0  0  0  0  0  0  0
   66.8145   75.8278   88.6937 H   0  0  0  0  0  0  0  0  0  0  0  0
   67.4078   77.8138   93.2554 O   0  0  0  0  0  0  0  0  0  0  0  0
   67.0505   78.2731   91.9500 C   0  0  0  0  0  0  0  0  0  0  0  0
   67.3557   79.7507   91.7780 C   0  0  0  0  0  0  0  0  0  0  0  0
   66.8622   80.6500   92.7397 C   0  0  0  0  0  0  0  0  0  0  0  0
   67.1234   82.0132   92.6427 C   0  0  0  0  0  0  0  0  0  0  0  0
   67.8580   82.5097   91.5716 C   0  0  0  0  0  0  0  0  0  0  0  0
   68.3240   81.6504   90.5669 C   0  0  0  0  0  0  0  0  0  0  0  0
   68.0685   80.2537   90.6529 C   0  0  0  0  0  0  0  0  0  0  0  0
   68.5924   79.2986   89.6003 C   0  0  0  0  0  0  0  0  0  0  0  0
   69.0624   82.2544   89.4394 C   0  0  0  0  0  0  0  0  0  0  0  0
   68.4027   82.5762   88.2452 C   0  0  0  0  0  0  0  0  0  0  0  0
   69.1107   83.1659   87.1964 C   0  0  0  0  0  0  0  0  0  0  0  0
   70.4709   83.4380   87.3578 C   0  0  0  0  0  0  0  0  0  0  0  0
   71.0938   83.1312   88.5268 N   0  0  0  0  0  0  0  0  0  0  0  0
   70.4264   82.5551   89.5626 C   0  0  0  0  0  0  0  0  0  0  0  0
  1  2  2  0  0  0  0
  2  3  1  0  0  0  0
  3  4  2  0  0  0  0
  4  5  1  0  0  0  0
  5 24  1  0  0  0  0
  5  6  2  0  0  0  0
  6  1  1  0  0  0  0
  7  1  1  0  0  0  0
  8  7  1  0  0  0  0
  8  9  1  0  0  0  0
 10 15  1  6  0  0  0
 10  8  1  0  0  0  0
 11 12  2  0  0  0  0
 11 10  1  0  0  0  0
 13 14  1  0  0  0  0
 14 11  1  0  0  0  0
 15 16  1  0  0  0  0
 16 17  2  0  0  0  0
 17 18  1  0  0  0  0
 18 19  2  0  0  0  0
 19 20  1  0  0  0  0
 19 21  1  0  0  0  0
 20 23  1  0  0  0  0
 21 22  2  0  0  0  0
 22 16  1  0  0  0  0
 24 25  1  0  0  0  0
 25 26  1  0  0  0  0
 26 27  2  0  0  0  0
 27 28  1  0  0  0  0
 28 29  2  0  0  0  0
 29 30  1  0  0  0  0
 30 33  1  0  0  0  0
 30 31  2  0  0  0  0
 31 32  1  0  0  0  0
 31 26  1  0  0  0  0
 33 34  2  0  0  0  0
 34 35  1  0  0  0  0
 35 36  2  0  0  0  0
 36 37  2  0  0  0  0
 37 38  2  0  0  0  0
 38 33  1  0  0  0  0
M  END
>  <Activity>
60.5

>  <minimizedAffinity>
-8.51923

>  <RFScoreVS_v2>
5.97961259815

$$$$
HIPS7757 (IAE-158)
 OpenBabel05252300073D

 38 41  0  0  0  0  0  0  0  0999 V2000
   68.1299   74.2810   95.1559 C   0  0  0  0  0  0  0  0  0  0  0  0
   67.0552   73.9873   96.0090 C   0  0  0  0  0  0  0  0  0  0  0  0
   65.8434   74.6682   95.8719 C   0  0  0  0  0  0  0  0  0  0  0  0
   65.6887   75.6348   94.8752 C   0  0  0  0  0  0  0  0  0  0  0  0
   66.7507   75.9224   93.9959 C   0  0  0  0  0  0  0  0  0  0  0  0
   67.9670   75.2462   94.1499 C   0  0  0  0  0  0  0  0  0  0  0  0
   69.4281   73.5305   95.2769 C   0  0  0  0  0  0  0  0  0  0  0  0
   69.3825   72.3163   94.4496 N   0  0  0  0  0  0  0  0  0  0  0  0
   69.3691   71.5002   95.0613 H   0  0  0  0  0  0  0  0  0  0  0  0
   70.5545   72.2211   93.5483 C   0  0  1  0  0  0  0  0  0  0  0  0
   71.5179   71.1677   94.0345 C   0  0  0  0  0  0  0  0  0  0  0  0
   71.0838   70.1607   94.6594 O   0  0  0  0  0  0  0  0  0  0  0  0
   73.5812   70.5683   92.8074 C   0  0  0  0  0  0  0  0  0  0  0  0
   72.8872   71.3200   93.7955 O   0  0  0  0  0  0  0  0  0  0  0  0
   70.0981   71.8553   92.1227 C   0  0  0  0  0  0  0  0  0  0  0  0
   69.3883   72.9976   91.4439 C   0  0  0  0  0  0  0  0  0  0  0  0
   69.8609   74.3132   91.5834 C   0  0  0  0  0  0  0  0  0  0  0  0
   69.2255   75.3642   90.9161 C   0  0  0  0  0  0  0  0  0  0  0  0
   68.1154   75.1113   90.0990 C   0  0  0  0  0  0  0  0  0  0  0  0
   67.4801   76.1503   89.4236 O   0  0  0  0  0  0  0  0  0  0  0  0
   67.6424   73.8029   89.9567 C   0  0  0  0  0  0  0  0  0  0  0  0
   68.2730   72.7498   90.6262 C   0  0  0  0  0  0  0  0  0  0  0  0
   67.7927   77.0288   89.5152 H   0  0  0  0  0  0  0  0  0  0  0  0
   66.6398   76.8572   92.9531 O   0  0  0  0  0  0  0  0  0  0  0  0
   67.5696   77.9106   92.6912 C   0  0  0  0  0  0  0  0  0  0  0  0
   66.9107   79.0627   91.9533 C   0  0  0  0  0  0  0  0  0  0  0  0
   65.6176   79.4525   92.3443 C   0  0  0  0  0  0  0  0  0  0  0  0
   64.9703   80.5114   91.7151 C   0  0  0  0  0  0  0  0  0  0  0  0
   65.5878   81.1845   90.6667 C   0  0  0  0  0  0  0  0  0  0  0  0
   66.8559   80.7924   90.2159 C   0  0  0  0  0  0  0  0  0  0  0  0
   67.5325   79.7140   90.8506 C   0  0  0  0  0  0  0  0  0  0  0  0
   68.9190   79.2942   90.4076 C   0  0  0  0  0  0  0  0  0  0  0  0
   67.4319   81.5277   89.0719 C   0  0  0  0  0  0  0  0  0  0  0  0
   67.1919   81.1038   87.7575 C   0  0  0  0  0  0  0  0  0  0  0  0
   67.7264   81.8220   86.6864 C   0  0  0  0  0  0  0  0  0  0  0  0
   68.4872   82.9649   86.9415 C   0  0  0  0  0  0  0  0  0  0  0  0
   68.7009   83.3703   88.2217 N   0  0  0  0  0  0  0  0  0  0  0  0
   68.1922   82.6870   89.2821 C   0  0  0  0  0  0  0  0  0  0  0  0
  1  2  2  0  0  0  0
  2  3  1  0  0  0  0
  3  4  2  0  0  0  0
  4  5  1  0  0  0  0
  5 24  1  0  0  0  0
  5  6  2  0  0  0  0
  6  1  1  0  0  0  0
  7  1  1  0  0  0  0
  8  7  1  0  0  0  0
  8  9  1  0  0  0  0
 10 15  1  6  0  0  0
 10  8  1  0  0  0  0
 11 12  2  0  0  0  0
 11 10  1  0  0  0  0
 13 14  1  0  0  0  0
 14 11  1  0  0  0  0
 15 16  1  0  0  0  0
 16 17  2  0  0  0  0
 17 18  1  0  0  0  0
 18 19  2  0  0  0  0
 19 20  1  0  0  0  0
 19 21  1  0  0  0  0
 20 23  1  0  0  0  0
 21 22  2  0  0  0  0
 22 16  1  0  0  0  0
 24 25  1  0  0  0  0
 25 26  1  0  0  0  0
 26 27  2  0  0  0  0
 27 28  1  0  0  0  0
 28 29  2  0  0  0  0
 29 30  1  0  0  0  0
 30 33  1  0  0  0  0
 30 31  2  0  0  0  0
 31 32  1  0  0  0  0
 31 26  1  0  0  0  0
 33 34  2  0  0  0  0
 34 35  1  0  0  0  0
 35 36  2  0  0  0  0
 36 37  2  0  0  0  0
 37 38  2  0  0  0  0
 38 33  1  0  0  0  0
M  END
>  <Activity>
60.5

>  <minimizedAffinity>
-8.49551

>  <RFScoreVS_v2>
5.96808503791

$$$$
HIPS7757 (IAE-158)
 OpenBabel05252300073D

 38 41  0  0  0  0  0  0  0  0999 V2000
   66.4834   80.6289   89.6637 C   0  0  0  0  0  0  0  0  0  0  0  0
   66.9022   81.0851   88.4045 C   0  0  0  0  0  0  0  0  0  0  0  0
   67.1252   80.1769   87.3670 C   0  0  0  0  0  0  0  0  0  0  0  0
   66.9181   78.8106   87.5718 C   0  0  0  0  0  0  0  0  0  0  0  0
   66.4739   78.3408   88.8232 C   0  0  0  0  0  0  0  0  0  0  0  0
   66.2676   79.2562   89.8622 C   0  0  0  0  0  0  0  0  0  0  0  0
   66.2113   81.6032   90.7772 C   0  0  0  0  0  0  0  0  0  0  0  0
   67.3340   81.6042   91.7259 N   0  0  0  0  0  0  0  0  0  0  0  0
   66.9641   81.5584   92.6754 H   0  0  0  0  0  0  0  0  0  0  0  0
   68.1647   82.8239   91.5930 C   0  0  1  0  0  0  0  0  0  0  0  0
   68.4840   83.4029   92.9483 C   0  0  0  0  0  0  0  0  0  0  0  0
   68.0070   82.8681   93.9874 O   0  0  0  0  0  0  0  0  0  0  0  0
   68.7787   85.8416   93.2447 C   0  0  0  0  0  0  0  0  0  0  0  0
   69.3006   84.5341   93.0419 O   0  0  0  0  0  0  0  0  0  0  0  0
   69.4854   82.4894   90.8732 C   0  0  0  0  0  0  0  0  0  0  0  0
   69.6449   83.2649   89.5914 C   0  0  0  0  0  0  0  0  0  0  0  0
   70.6394   82.9114   88.6644 C   0  0  0  0  0  0  0  0  0  0  0  0
   70.7552   83.6056   87.4568 C   0  0  0  0  0  0  0  0  0  0  0  0
   69.8758   84.6558   87.1606 C   0  0  0  0  0  0  0  0  0  0  0  0
   69.9777   85.3484   85.9569 O   0  0  0  0  0  0  0  0  0  0  0  0
   68.8837   85.0101   88.0804 C   0  0  0  0  0  0  0  0  0  0  0  0
   68.7679   84.3207   89.2913 C   0  0  0  0  0  0  0  0  0  0  0  0
   70.6405   85.1154   85.3369 H   0  0  0  0  0  0  0  0  0  0  0  0
   66.2142   76.9833   89.0748 O   0  0  0  0  0  0  0  0  0  0  0  0
   67.0893   75.9035   88.7418 C   0  0  0  0  0  0  0  0  0  0  0  0
   68.0975   75.6441   89.8473 C   0  0  0  0  0  0  0  0  0  0  0  0
   68.8771   76.7211   90.3049 C   0  0  0  0  0  0  0  0  0  0  0  0
   69.8059   76.5468   91.3262 C   0  0  0  0  0  0  0  0  0  0  0  0
   69.9948   75.2909   91.8924 C   0  0  0  0  0  0  0  0  0  0  0  0
   69.2720   74.1832   91.4284 C   0  0  0  0  0  0  0  0  0  0  0  0
   68.3163   74.3450   90.3872 C   0  0  0  0  0  0  0  0  0  0  0  0
   67.4952   73.1720   89.8928 C   0  0  0  0  0  0  0  0  0  0  0  0
   69.5547   72.8736   92.0498 C   0  0  0  0  0  0  0  0  0  0  0  0
   69.5594   71.7036   91.2779 C   0  0  0  0  0  0  0  0  0  0  0  0
   69.8491   70.4762   91.8765 C   0  0  0  0  0  0  0  0  0  0  0  0
   70.1426   70.4337   93.2412 C   0  0  0  0  0  0  0  0  0  0  0  0
   70.1461   71.5790   93.9741 N   0  0  0  0  0  0  0  0  0  0  0  0
   69.8657   72.7866   93.4143 C   0  0  0  0  0  0  0  0  0  0  0  0
  1  2  2  0  0  0  0
  2  3  1  0  0  0  0
  3  4  2  0  0  0  0
  4  5  1  0  0  0  0
  5 24  1  0  0  0  0
  5  6  2  0  0  0  0
  6  1  1  0  0  0  0
  7  1  1  0  0  0  0
  8  7  1  0  0  0  0
  8  9  1  0  0  0  0
 10 15  1  1  0  0  0
 10  8  1  0  0  0  0
 11 12  2  0  0  0  0
 11 10  1  0  0  0  0
 13 14  1  0  0  0  0
 14 11  1  0  0  0  0
 15 16  1  0  0  0  0
 16 17  2  0  0  0  0
 17 18  1  0  0  0  0
 18 19  2  0  0  0  0
 19 20  1  0  0  0  0
 19 21  1  0  0  0  0
 20 23  1  0  0  0  0
 21 22  2  0  0  0  0
 22 16  1  0  0  0  0
 24 25  1  0  0  0  0
 25 26  1  0  0  0  0
 26 27  2  0  0  0  0
 27 28  1  0  0  0  0
 28 29  2  0  0  0  0
 29 30  1  0  0  0  0
 30 33  1  0  0  0  0
 30 31  2  0  0  0  0
 31 32  1  0  0  0  0
 31 26  1  0  0  0  0
 33 34  2  0  0  0  0
 34 35  1  0  0  0  0
 35 36  2  0  0  0  0
 36 37  2  0  0  0  0
 37 38  2  0  0  0  0
 38 33  1  0  0  0  0
M  END
>  <Activity>
60.5

>  <minimizedAffinity>
-8.40931

>  <RFScoreVS_v2>
5.97405070456

$$$$
HIPS7757 (IAE-158)
 OpenBabel05252300073D

 38 41  0  0  0  0  0  0  0  0999 V2000
   68.0165   75.6547   94.1145 C   0  0  0  0  0  0  0  0  0  0  0  0
   66.6560   75.4914   94.4170 C   0  0  0  0  0  0  0  0  0  0  0  0
   65.7199   76.4261   93.9688 C   0  0  0  0  0  0  0  0  0  0  0  0
   66.1299   77.5208   93.2038 C   0  0  0  0  0  0  0  0  0  0  0  0
   67.4889   77.6840   92.8715 C   0  0  0  0  0  0  0  0  0  0  0  0
   68.4227   76.7509   93.3378 C   0  0  0  0  0  0  0  0  0  0  0  0
   69.0270   74.6362   94.5672 C   0  0  0  0  0  0  0  0  0  0  0  0
   68.5829   73.2878   94.1861 N   0  0  0  0  0  0  0  0  0  0  0  0
   68.7866   72.6445   94.9510 H   0  0  0  0  0  0  0  0  0  0  0  0
   69.2669   72.8095   92.9620 C   0  0  1  0  0  0  0  0  0  0  0  0
   70.3249   71.7911   93.3047 C   0  0  0  0  0  0  0  0  0  0  0  0
   71.4093   72.1656   93.8311 O   0  0  0  0  0  0  0  0  0  0  0  0
   70.6287   69.3930   93.8332 C   0  0  0  0  0  0  0  0  0  0  0  0
   70.0985   70.4392   93.0285 O   0  0  0  0  0  0  0  0  0  0  0  0
   68.2477   72.1624   92.0043 C   0  0  0  0  0  0  0  0  0  0  0  0
   67.9185   73.0570   90.8377 C   0  0  0  0  0  0  0  0  0  0  0  0
   67.1595   72.5714   89.7600 C   0  0  0  0  0  0  0  0  0  0  0  0
   66.8189   73.4173   88.7007 C   0  0  0  0  0  0  0  0  0  0  0  0
   67.2283   74.7575   88.7097 C   0  0  0  0  0  0  0  0  0  0  0  0
   66.8875   75.6105   87.6631 O   0  0  0  0  0  0  0  0  0  0  0  0
   67.9832   75.2452   89.7812 C   0  0  0  0  0  0  0  0  0  0  0  0
   68.3294   74.4005   90.8404 C   0  0  0  0  0  0  0  0  0  0  0  0
   66.3818   75.2893   86.9426 H   0  0  0  0  0  0  0  0  0  0  0  0
   67.9527   78.7444   92.0752 O   0  0  0  0  0  0  0  0  0  0  0  0
   68.7011   78.5983   90.8663 C   0  0  0  0  0  0  0  0  0  0  0  0
   68.1116   79.4336   89.7435 C   0  0  0  0  0  0  0  0  0  0  0  0
   67.1355   78.8477   88.9182 C   0  0  0  0  0  0  0  0  0  0  0  0
   66.5487   79.5696   87.8835 C   0  0  0  0  0  0  0  0  0  0  0  0
   66.9425   80.8797   87.6342 C   0  0  0  0  0  0  0  0  0  0  0  0
   67.9481   81.4809   88.4037 C   0  0  0  0  0  0  0  0  0  0  0  0
   68.5557   80.7578   89.4673 C   0  0  0  0  0  0  0  0  0  0  0  0
   69.6182   81.3965   90.3378 C   0  0  0  0  0  0  0  0  0  0  0  0
   68.3423   82.8609   88.0551 C   0  0  0  0  0  0  0  0  0  0  0  0
   69.4061   83.0979   87.1736 C   0  0  0  0  0  0  0  0  0  0  0  0
   69.7527   84.4079   86.8379 C   0  0  0  0  0  0  0  0  0  0  0  0
   69.0232   85.4682   87.3798 C   0  0  0  0  0  0  0  0  0  0  0  0
   67.9860   85.2216   88.2238 N   0  0  0  0  0  0  0  0  0  0  0  0
   67.6298   83.9546   88.5672 C   0  0  0  0  0  0  0  0  0  0  0  0
  1  2  2  0  0  0  0
  2  3  1  0  0  0  0
  3  4  2  0  0  0  0
  4  5  1  0  0  0  0
  5 24  1  0  0  0  0
  5  6  2  0  0  0  0
  6  1  1  0  0  0  0
  7  1  1  0  0  0  0
  8  7  1  0  0  0  0
  8  9  1  0  0  0  0
 10 15  1  6  0  0  0
 10  8  1  0  0  0  0
 11 12  2  0  0  0  0
 11 10  1  0  0  0  0
 13 14  1  0  0  0  0
 14 11  1  0  0  0  0
 15 16  1  0  0  0  0
 16 17  2  0  0  0  0
 17 18  1  0  0  0  0
 18 19  2  0  0  0  0
 19 20  1  0  0  0  0
 19 21  1  0  0  0  0
 20 23  1  0  0  0  0
 21 22  2  0  0  0  0
 22 16  1  0  0  0  0
 24 25  1  0  0  0  0
 25 26  1  0  0  0  0
 26 27  2  0  0  0  0
 27 28  1  0  0  0  0
 28 29  2  0  0  0  0
 29 30  1  0  0  0  0
 30 33  1  0  0  0  0
 30 31  2  0  0  0  0
 31 32  1  0  0  0  0
 31 26  1  0  0  0  0
 33 34  2  0  0  0  0
 34 35  1  0  0  0  0
 35 36  2  0  0  0  0
 36 37  2  0  0  0  0
 37 38  2  0  0  0  0
 38 33  1  0  0  0  0
M  END
>  <Activity>
60.5

>  <minimizedAffinity>
-8.37110

>  <RFScoreVS_v2>
5.978270841

$$$$
HIPS6547
 OpenBabel05252300073D

 36 38  0  0  0  0  0  0  0  0999 V2000
   68.4055   77.3577   90.3000 C   0  0  0  0  0  0  0  0  0  0  0  0
   67.2479   78.1461   90.2629 C   0  0  0  0  0  0  0  0  0  0  0  0
   67.3536   79.5384   90.2108 C   0  0  0  0  0  0  0  0  0  0  0  0
   68.6123   80.1463   90.1659 C   0  0  0  0  0  0  0  0  0  0  0  0
   69.7770   79.3632   90.1741 C   0  0  0  0  0  0  0  0  0  0  0  0
   69.6656   77.9680   90.2740 C   0  0  0  0  0  0  0  0  0  0  0  0
   67.0456   75.9119   88.0960 C   0  0  0  0  0  0  0  0  0  0  0  0
   67.6295   75.1890   89.2810 C   0  0  0  0  0  0  0  0  0  0  0  0
   67.4465   73.8018   89.4075 C   0  0  0  0  0  0  0  0  0  0  0  0
   67.9282   73.1211   90.5293 C   0  0  0  0  0  0  0  0  0  0  0  0
   68.6106   73.8141   91.5347 C   0  0  0  0  0  0  0  0  0  0  0  0
   68.8244   75.1915   91.4054 C   0  0  0  0  0  0  0  0  0  0  0  0
   68.3124   75.8891   90.3018 C   0  0  0  0  0  0  0  0  0  0  0  0
   69.1387   72.9607   92.9803 S   0  0  0  0  0  0  0  0  0  0  0  0
   69.4045   71.5351   92.5871 O   0  0  0  0  0  0  0  0  0  0  0  0
   70.4295   73.5412   93.4889 O   0  0  0  0  0  0  0  0  0  0  0  0
   67.9292   72.9603   94.2431 N   0  0  0  0  0  0  0  0  0  0  0  0
   68.3145   72.4460   95.0352 H   0  0  0  0  0  0  0  0  0  0  0  0
   67.4677   74.2783   94.7499 C   0  0  0  0  0  0  0  0  0  0  0  0
   66.3631   74.8594   93.8410 C   0  0  0  0  0  0  0  0  0  0  0  0
   66.8430   74.0475   96.1438 C   0  0  0  0  0  0  0  0  0  0  0  0
   68.6215   75.2918   94.9055 C   0  0  0  0  0  0  0  0  0  0  0  0
   71.1358   80.0116   90.0870 C   0  0  0  0  0  0  0  0  0  0  0  0
   71.0837   81.3764   90.5112 O   0  0  0  0  0  0  0  0  0  0  0  0
   71.4645   82.4817   89.7320 C   0  0  0  0  0  0  0  0  0  0  0  0
   72.7687   83.0039   89.7515 C   0  0  0  0  0  0  0  0  0  0  0  0
   73.0836   84.1309   88.9924 C   0  0  0  0  0  0  0  0  0  0  0  0
   72.1127   84.7547   88.2012 C   0  0  0  0  0  0  0  0  0  0  0  0
   72.4684   85.9352   87.5404 O   0  0  0  0  0  0  0  0  0  0  0  0
   70.8101   84.2048   88.1270 C   0  0  0  0  0  0  0  0  0  0  0  0
   70.4997   83.0810   88.9144 C   0  0  0  0  0  0  0  0  0  0  0  0
   73.3411   86.2684   87.6135 H   0  0  0  0  0  0  0  0  0  0  0  0
   69.7730   84.7500   87.2272 C   0  0  0  0  0  0  0  0  0  0  0  0
   68.5574   84.6853   87.5536 O   0  0  0  0  0  0  0  0  0  0  0  0
   70.1211   85.2916   85.9929 O   0  0  0  0  0  0  0  0  0  0  0  0
   71.0222   85.3438   85.7415 H   0  0  0  0  0  0  0  0  0  0  0  0
  1  2  2  0  0  0  0
  2  3  1  0  0  0  0
  3  4  2  0  0  0  0
  4  5  1  0  0  0  0
  5 23  1  0  0  0  0
  5  6  2  0  0  0  0
  6  1  1  0  0  0  0
  7  8  1  0  0  0  0
  8  9  2  0  0  0  0
  9 10  1  0  0  0  0
 10 11  2  0  0  0  0
 11 14  1  0  0  0  0
 11 12  1  0  0  0  0
 12 13  2  0  0  0  0
 13  1  1  0  0  0  0
 13  8  1  0  0  0  0
 14 15  2  0  0  0  0
 14 16  2  0  0  0  0
 14 17  1  0  0  0  0
 17 19  1  0  0  0  0
 17 18  1  0  0  0  0
 19 20  1  0  0  0  0
 19 21  1  0  0  0  0
 19 22  1  0  0  0  0
 23 24  1  0  0  0  0
 24 25  1  0  0  0  0
 25 26  2  0  0  0  0
 26 27  1  0  0  0  0
 27 28  2  0  0  0  0
 28 29  1  0  0  0  0
 28 30  1  0  0  0  0
 29 32  1  0  0  0  0
 30 33  1  0  0  0  0
 30 31  2  0  0  0  0
 31 25  1  0  0  0  0
 33 34  2  0  0  0  0
 33 35  1  0  0  0  0
 35 36  1  0  0  0  0
M  END
>  <Activity>
66.6

>  <minimizedAffinity>
-9.83369

>  <RFScoreVS_v2>
5.97733662

$$$$
HIPS6547
 OpenBabel05252300073D

 36 38  0  0  0  0  0  0  0  0999 V2000
   67.6364   76.3436   89.0181 C   0  0  0  0  0  0  0  0  0  0  0  0
   67.0061   76.3509   87.7668 C   0  0  0  0  0  0  0  0  0  0  0  0
   66.7969   77.5598   87.0983 C   0  0  0  0  0  0  0  0  0  0  0  0
   67.2414   78.7602   87.6614 C   0  0  0  0  0  0  0  0  0  0  0  0
   67.8989   78.7594   88.9014 C   0  0  0  0  0  0  0  0  0  0  0  0
   68.0644   77.5480   89.5900 C   0  0  0  0  0  0  0  0  0  0  0  0
   66.6432   73.7665   87.9366 C   0  0  0  0  0  0  0  0  0  0  0  0
   67.4078   73.8444   89.2317 C   0  0  0  0  0  0  0  0  0  0  0  0
   67.5777   72.6862   90.0086 C   0  0  0  0  0  0  0  0  0  0  0  0
   68.2318   72.7481   91.2423 C   0  0  0  0  0  0  0  0  0  0  0  0
   68.7367   73.9652   91.7119 C   0  0  0  0  0  0  0  0  0  0  0  0
   68.5989   75.1201   90.9330 C   0  0  0  0  0  0  0  0  0  0  0  0
   67.9116   75.0751   89.7114 C   0  0  0  0  0  0  0  0  0  0  0  0
   69.4840   74.0456   93.3031 S   0  0  0  0  0  0  0  0  0  0  0  0
   70.6469   73.0943   93.3007 O   0  0  0  0  0  0  0  0  0  0  0  0
   70.0247   75.4255   93.5586 O   0  0  0  0  0  0  0  0  0  0  0  0
   68.3942   73.5692   94.5850 N   0  0  0  0  0  0  0  0  0  0  0  0
   68.9021   73.6544   95.4654 H   0  0  0  0  0  0  0  0  0  0  0  0
   67.1275   74.3325   94.7261 C   0  0  0  0  0  0  0  0  0  0  0  0
   65.9764   73.6290   93.9751 C   0  0  0  0  0  0  0  0  0  0  0  0
   66.7580   74.3467   96.2260 C   0  0  0  0  0  0  0  0  0  0  0  0
   67.2601   75.7959   94.2530 C   0  0  0  0  0  0  0  0  0  0  0  0
   68.4145   80.0462   89.4951 C   0  0  0  0  0  0  0  0  0  0  0  0
   67.6687   81.1693   89.0177 O   0  0  0  0  0  0  0  0  0  0  0  0
   68.2068   82.2567   88.3092 C   0  0  0  0  0  0  0  0  0  0  0  0
   67.4792   82.9511   87.3283 C   0  0  0  0  0  0  0  0  0  0  0  0
   68.0754   83.9958   86.6221 C   0  0  0  0  0  0  0  0  0  0  0  0
   69.3989   84.3695   86.8793 C   0  0  0  0  0  0  0  0  0  0  0  0
   69.9669   85.3599   86.0709 O   0  0  0  0  0  0  0  0  0  0  0  0
   70.1246   83.7169   87.9051 C   0  0  0  0  0  0  0  0  0  0  0  0
   69.5189   82.6506   88.5947 C   0  0  0  0  0  0  0  0  0  0  0  0
   69.4546   85.7693   85.4017 H   0  0  0  0  0  0  0  0  0  0  0  0
   71.4848   84.1368   88.2998 C   0  0  0  0  0  0  0  0  0  0  0  0
   72.1910   83.3861   89.0253 O   0  0  0  0  0  0  0  0  0  0  0  0
   71.9792   85.3814   87.9197 O   0  0  0  0  0  0  0  0  0  0  0  0
   71.4615   85.9464   87.3805 H   0  0  0  0  0  0  0  0  0  0  0  0
  1  2  2  0  0  0  0
  2  3  1  0  0  0  0
  3  4  2  0  0  0  0
  4  5  1  0  0  0  0
  5 23  1  0  0  0  0
  5  6  2  0  0  0  0
  6  1  1  0  0  0  0
  7  8  1  0  0  0  0
  8  9  2  0  0  0  0
  9 10  1  0  0  0  0
 10 11  2  0  0  0  0
 11 14  1  0  0  0  0
 11 12  1  0  0  0  0
 12 13  2  0  0  0  0
 13  1  1  0  0  0  0
 13  8  1  0  0  0  0
 14 15  2  0  0  0  0
 14 16  2  0  0  0  0
 14 17  1  0  0  0  0
 17 19  1  0  0  0  0
 17 18  1  0  0  0  0
 19 20  1  0  0  0  0
 19 21  1  0  0  0  0
 19 22  1  0  0  0  0
 23 24  1  0  0  0  0
 24 25  1  0  0  0  0
 25 26  2  0  0  0  0
 26 27  1  0  0  0  0
 27 28  2  0  0  0  0
 28 29  1  0  0  0  0
 28 30  1  0  0  0  0
 29 32  1  0  0  0  0
 30 33  1  0  0  0  0
 30 31  2  0  0  0  0
 31 25  1  0  0  0  0
 33 34  2  0  0  0  0
 33 35  1  0  0  0  0
 35 36  1  0  0  0  0
M  END
>  <Activity>
66.6

>  <minimizedAffinity>
-9.70033

>  <RFScoreVS_v2>
6.02289895161

$$$$
HIPS6547
 OpenBabel05252300073D

 36 38  0  0  0  0  0  0  0  0999 V2000
   69.4288   77.4749   90.2708 C   0  0  0  0  0  0  0  0  0  0  0  0
   70.8115   77.6985   90.3056 C   0  0  0  0  0  0  0  0  0  0  0  0
   71.3075   79.0046   90.2892 C   0  0  0  0  0  0  0  0  0  0  0  0
   70.4266   80.0905   90.2680 C   0  0  0  0  0  0  0  0  0  0  0  0
   69.0396   79.8764   90.2615 C   0  0  0  0  0  0  0  0  0  0  0  0
   68.5477   78.5626   90.2305 C   0  0  0  0  0  0  0  0  0  0  0  0
   67.4588   76.5086   88.2752 C   0  0  0  0  0  0  0  0  0  0  0  0
   67.9165   75.6479   89.4229 C   0  0  0  0  0  0  0  0  0  0  0  0
   67.3300   74.3870   89.6226 C   0  0  0  0  0  0  0  0  0  0  0  0
   67.6973   73.5977   90.7161 C   0  0  0  0  0  0  0  0  0  0  0  0
   68.6650   74.0510   91.6189 C   0  0  0  0  0  0  0  0  0  0  0  0
   69.2773   75.2930   91.4137 C   0  0  0  0  0  0  0  0  0  0  0  0
   68.8885   76.1079   90.3406 C   0  0  0  0  0  0  0  0  0  0  0  0
   69.0581   73.0852   93.0364 S   0  0  0  0  0  0  0  0  0  0  0  0
   69.1494   71.6530   92.5917 O   0  0  0  0  0  0  0  0  0  0  0  0
   70.4030   73.4795   93.5821 O   0  0  0  0  0  0  0  0  0  0  0  0
   67.8376   73.1907   94.2841 N   0  0  0  0  0  0  0  0  0  0  0  0
   68.1738   72.6581   95.0865 H   0  0  0  0  0  0  0  0  0  0  0  0
   67.4711   74.5456   94.7710 C   0  0  0  0  0  0  0  0  0  0  0  0
   66.4550   75.2141   93.8200 C   0  0  0  0  0  0  0  0  0  0  0  0
   66.7771   74.3753   96.1406 C   0  0  0  0  0  0  0  0  0  0  0  0
   68.7003   75.4582   94.9687 C   0  0  0  0  0  0  0  0  0  0  0  0
   68.0849   81.0437   90.2775 C   0  0  0  0  0  0  0  0  0  0  0  0
   67.7237   81.4324   88.9494 O   0  0  0  0  0  0  0  0  0  0  0  0
   68.2821   82.5093   88.2407 C   0  0  0  0  0  0  0  0  0  0  0  0
   67.5570   83.2377   87.2828 C   0  0  0  0  0  0  0  0  0  0  0  0
   68.1721   84.2701   86.5746 C   0  0  0  0  0  0  0  0  0  0  0  0
   69.5124   84.5976   86.8070 C   0  0  0  0  0  0  0  0  0  0  0  0
   70.0953   85.5777   85.9967 O   0  0  0  0  0  0  0  0  0  0  0  0
   70.2378   83.9105   87.8102 C   0  0  0  0  0  0  0  0  0  0  0  0
   69.6122   82.8571   88.5018 C   0  0  0  0  0  0  0  0  0  0  0  0
   69.5826   86.0109   85.3430 H   0  0  0  0  0  0  0  0  0  0  0  0
   71.6192   84.2815   88.1797 C   0  0  0  0  0  0  0  0  0  0  0  0
   72.2877   83.5387   88.9478 O   0  0  0  0  0  0  0  0  0  0  0  0
   72.1763   85.4745   87.7276 O   0  0  0  0  0  0  0  0  0  0  0  0
   71.6869   86.0332   87.1564 H   0  0  0  0  0  0  0  0  0  0  0  0
  1  2  2  0  0  0  0
  2  3  1  0  0  0  0
  3  4  2  0  0  0  0
  4  5  1  0  0  0  0
  5 23  1  0  0  0  0
  5  6  2  0  0  0  0
  6  1  1  0  0  0  0
  7  8  1  0  0  0  0
  8  9  2  0  0  0  0
  9 10  1  0  0  0  0
 10 11  2  0  0  0  0
 11 14  1  0  0  0  0
 11 12  1  0  0  0  0
 12 13  2  0  0  0  0
 13  1  1  0  0  0  0
 13  8  1  0  0  0  0
 14 15  2  0  0  0  0
 14 16  2  0  0  0  0
 14 17  1  0  0  0  0
 17 19  1  0  0  0  0
 17 18  1  0  0  0  0
 19 20  1  0  0  0  0
 19 21  1  0  0  0  0
 19 22  1  0  0  0  0
 23 24  1  0  0  0  0
 24 25  1  0  0  0  0
 25 26  2  0  0  0  0
 26 27  1  0  0  0  0
 27 28  2  0  0  0  0
 28 29  1  0  0  0  0
 28 30  1  0  0  0  0
 29 32  1  0  0  0  0
 30 33  1  0  0  0  0
 30 31  2  0  0  0  0
 31 25  1  0  0  0  0
 33 34  2  0  0  0  0
 33 35  1  0  0  0  0
 35 36  1  0  0  0  0
M  END
>  <Activity>
66.6

>  <minimizedAffinity>
-9.46943

>  <RFScoreVS_v2>
5.97140538673

$$$$
HIPS6547
 OpenBabel05252300073D

 36 38  0  0  0  0  0  0  0  0999 V2000
   69.4230   77.8255   90.1543 C   0  0  0  0  0  0  0  0  0  0  0  0
   70.8030   78.0675   90.1592 C   0  0  0  0  0  0  0  0  0  0  0  0
   71.2809   79.3802   90.1847 C   0  0  0  0  0  0  0  0  0  0  0  0
   70.3853   80.4531   90.2352 C   0  0  0  0  0  0  0  0  0  0  0  0
   69.0017   80.2193   90.2591 C   0  0  0  0  0  0  0  0  0  0  0  0
   68.5267   78.9009   90.1858 C   0  0  0  0  0  0  0  0  0  0  0  0
   67.4242   76.9102   88.1632 C   0  0  0  0  0  0  0  0  0  0  0  0
   67.9183   76.0115   89.2660 C   0  0  0  0  0  0  0  0  0  0  0  0
   67.3536   74.7352   89.4273 C   0  0  0  0  0  0  0  0  0  0  0  0
   67.7552   73.9088   90.4807 C   0  0  0  0  0  0  0  0  0  0  0  0
   68.7356   74.3401   91.3804 C   0  0  0  0  0  0  0  0  0  0  0  0
   69.3261   75.5981   91.2122 C   0  0  0  0  0  0  0  0  0  0  0  0
   68.9033   76.4490   90.1808 C   0  0  0  0  0  0  0  0  0  0  0  0
   69.1723   73.3248   92.7498 S   0  0  0  0  0  0  0  0  0  0  0  0
   69.4969   71.9605   92.2107 O   0  0  0  0  0  0  0  0  0  0  0  0
   70.4089   73.8553   93.4216 O   0  0  0  0  0  0  0  0  0  0  0  0
   67.8721   73.1573   93.9070 N   0  0  0  0  0  0  0  0  0  0  0  0
   68.1887   72.5126   94.6313 H   0  0  0  0  0  0  0  0  0  0  0  0
   67.3960   74.3903   94.5855 C   0  0  0  0  0  0  0  0  0  0  0  0
   66.6915   74.0472   95.9159 C   0  0  0  0  0  0  0  0  0  0  0  0
   68.6386   75.2414   94.9286 C   0  0  0  0  0  0  0  0  0  0  0  0
   66.4676   75.2394   93.6913 C   0  0  0  0  0  0  0  0  0  0  0  0
   68.0324   81.3708   90.3524 C   0  0  0  0  0  0  0  0  0  0  0  0
   68.6437   82.5109   90.9624 O   0  0  0  0  0  0  0  0  0  0  0  0
   68.9491   83.7145   90.3053 C   0  0  0  0  0  0  0  0  0  0  0  0
   68.6728   84.9716   90.8687 C   0  0  0  0  0  0  0  0  0  0  0  0
   68.9552   86.1365   90.1553 C   0  0  0  0  0  0  0  0  0  0  0  0
   69.5178   86.0732   88.8759 C   0  0  0  0  0  0  0  0  0  0  0  0
   69.6872   87.2730   88.1767 O   0  0  0  0  0  0  0  0  0  0  0  0
   69.8551   84.8154   88.3201 C   0  0  0  0  0  0  0  0  0  0  0  0
   69.5449   83.6476   89.0409 C   0  0  0  0  0  0  0  0  0  0  0  0
   69.4523   88.0864   88.5782 H   0  0  0  0  0  0  0  0  0  0  0  0
   70.5508   84.6861   87.0234 C   0  0  0  0  0  0  0  0  0  0  0  0
   71.5978   83.9898   86.9361 O   0  0  0  0  0  0  0  0  0  0  0  0
   70.0894   85.3695   85.9018 O   0  0  0  0  0  0  0  0  0  0  0  0
   69.3120   85.8897   85.9571 H   0  0  0  0  0  0  0  0  0  0  0  0
  1  2  2  0  0  0  0
  2  3  1  0  0  0  0
  3  4  2  0  0  0  0
  4  5  1  0  0  0  0
  5 23  1  0  0  0  0
  5  6  2  0  0  0  0
  6  1  1  0  0  0  0
  7  8  1  0  0  0  0
  8  9  2  0  0  0  0
  9 10  1  0  0  0  0
 10 11  2  0  0  0  0
 11 14  1  0  0  0  0
 11 12  1  0  0  0  0
 12 13  2  0  0  0  0
 13  1  1  0  0  0  0
 13  8  1  0  0  0  0
 14 15  2  0  0  0  0
 14 16  2  0  0  0  0
 14 17  1  0  0  0  0
 17 19  1  0  0  0  0
 17 18  1  0  0  0  0
 19 20  1  0  0  0  0
 19 21  1  0  0  0  0
 19 22  1  0  0  0  0
 23 24  1  0  0  0  0
 24 25  1  0  0  0  0
 25 26  2  0  0  0  0
 26 27  1  0  0  0  0
 27 28  2  0  0  0  0
 28 29  1  0  0  0  0
 28 30  1  0  0  0  0
 29 32  1  0  0  0  0
 30 33  1  0  0  0  0
 30 31  2  0  0  0  0
 31 25  1  0  0  0  0
 33 34  2  0  0  0  0
 33 35  1  0  0  0  0
 35 36  1  0  0  0  0
M  END
>  <Activity>
66.6

>  <minimizedAffinity>
-8.99543

>  <RFScoreVS_v2>
5.98940703154

$$$$
HIPS6547
 OpenBabel05252300073D

 36 38  0  0  0  0  0  0  0  0999 V2000
   69.4450   78.4687   90.2489 C   0  0  0  0  0  0  0  0  0  0  0  0
   70.8259   78.4719   90.0123 C   0  0  0  0  0  0  0  0  0  0  0  0
   71.6590   77.6113   90.7318 C   0  0  0  0  0  0  0  0  0  0  0  0
   71.1145   76.7254   91.6670 C   0  0  0  0  0  0  0  0  0  0  0  0
   69.7292   76.6955   91.8902 C   0  0  0  0  0  0  0  0  0  0  0  0
   68.9027   77.5945   91.1991 C   0  0  0  0  0  0  0  0  0  0  0  0
   67.7893   77.3519   88.0561 C   0  0  0  0  0  0  0  0  0  0  0  0
   67.7859   78.8210   88.3869 C   0  0  0  0  0  0  0  0  0  0  0  0
   67.0589   79.7128   87.5807 C   0  0  0  0  0  0  0  0  0  0  0  0
   67.0907   81.0870   87.8343 C   0  0  0  0  0  0  0  0  0  0  0  0
   67.8389   81.5890   88.9043 C   0  0  0  0  0  0  0  0  0  0  0  0
   68.5437   80.7070   89.7320 C   0  0  0  0  0  0  0  0  0  0  0  0
   68.5478   79.3307   89.4631 C   0  0  0  0  0  0  0  0  0  0  0  0
   67.9376   83.3269   89.1623 S   0  0  0  0  0  0  0  0  0  0  0  0
   67.3707   83.9942   87.9414 O   0  0  0  0  0  0  0  0  0  0  0  0
   67.0901   83.7308   90.3372 O   0  0  0  0  0  0  0  0  0  0  0  0
   69.5812   83.8852   89.3737 N   0  0  0  0  0  0  0  0  0  0  0  0
   70.1285   83.0988   89.7237 H   0  0  0  0  0  0  0  0  0  0  0  0
   70.2826   84.4185   88.1775 C   0  0  0  0  0  0  0  0  0  0  0  0
   69.7227   85.8028   87.7850 C   0  0  0  0  0  0  0  0  0  0  0  0
   71.7672   84.6130   88.5575 C   0  0  0  0  0  0  0  0  0  0  0  0
   70.2201   83.4545   86.9736 C   0  0  0  0  0  0  0  0  0  0  0  0
   69.1328   75.7157   92.8693 C   0  0  0  0  0  0  0  0  0  0  0  0
   70.0838   74.7138   93.2398 O   0  0  0  0  0  0  0  0  0  0  0  0
   70.0057   73.3550   92.8917 C   0  0  0  0  0  0  0  0  0  0  0  0
   69.4791   72.9208   91.6637 C   0  0  0  0  0  0  0  0  0  0  0  0
   69.3830   71.5574   91.3853 C   0  0  0  0  0  0  0  0  0  0  0  0
   69.8095   70.6051   92.3173 C   0  0  0  0  0  0  0  0  0  0  0  0
   69.5973   69.2556   92.0163 O   0  0  0  0  0  0  0  0  0  0  0  0
   70.3957   71.0294   93.5344 C   0  0  0  0  0  0  0  0  0  0  0  0
   70.4667   72.4068   93.8120 C   0  0  0  0  0  0  0  0  0  0  0  0
   69.2064   69.0136   91.1998 H   0  0  0  0  0  0  0  0  0  0  0  0
   70.9653   70.0778   94.5103 C   0  0  0  0  0  0  0  0  0  0  0  0
   71.7299   69.1553   94.1193 O   0  0  0  0  0  0  0  0  0  0  0  0
   70.6250   70.1578   95.8578 O   0  0  0  0  0  0  0  0  0  0  0  0
   70.0572   70.8402   96.1579 H   0  0  0  0  0  0  0  0  0  0  0  0
  1  2  2  0  0  0  0
  2  3  1  0  0  0  0
  3  4  2  0  0  0  0
  4  5  1  0  0  0  0
  5 23  1  0  0  0  0
  5  6  2  0  0  0  0
  6  1  1  0  0  0  0
  7  8  1  0  0  0  0
  8  9  2  0  0  0  0
  9 10  1  0  0  0  0
 10 11  2  0  0  0  0
 11 14  1  0  0  0  0
 11 12  1  0  0  0  0
 12 13  2  0  0  0  0
 13  1  1  0  0  0  0
 13  8  1  0  0  0  0
 14 15  2  0  0  0  0
 14 16  2  0  0  0  0
 14 17  1  0  0  0  0
 17 19  1  0  0  0  0
 17 18  1  0  0  0  0
 19 20  1  0  0  0  0
 19 21  1  0  0  0  0
 19 22  1  0  0  0  0
 23 24  1  0  0  0  0
 24 25  1  0  0  0  0
 25 26  2  0  0  0  0
 26 27  1  0  0  0  0
 27 28  2  0  0  0  0
 28 29  1  0  0  0  0
 28 30  1  0  0  0  0
 29 32  1  0  0  0  0
 30 33  1  0  0  0  0
 30 31  2  0  0  0  0
 31 25  1  0  0  0  0
 33 34  2  0  0  0  0
 33 35  1  0  0  0  0
 35 36  1  0  0  0  0
M  END
>  <Activity>
66.6

>  <minimizedAffinity>
-8.94503

>  <RFScoreVS_v2>
5.97355851202

$$$$
HIPS6547
 OpenBabel05252300073D

 36 38  0  0  0  0  0  0  0  0999 V2000
   69.1401   78.0102   90.2122 C   0  0  0  0  0  0  0  0  0  0  0  0
   70.4745   78.3853   90.0081 C   0  0  0  0  0  0  0  0  0  0  0  0
   70.8392   79.7322   90.0800 C   0  0  0  0  0  0  0  0  0  0  0  0
   69.8810   80.7043   90.3846 C   0  0  0  0  0  0  0  0  0  0  0  0
   68.5475   80.3345   90.6184 C   0  0  0  0  0  0  0  0  0  0  0  0
   68.1777   78.9862   90.4985 C   0  0  0  0  0  0  0  0  0  0  0  0
   67.3068   76.9620   88.1295 C   0  0  0  0  0  0  0  0  0  0  0  0
   67.8418   76.0871   89.2323 C   0  0  0  0  0  0  0  0  0  0  0  0
   67.3917   74.7612   89.3472 C   0  0  0  0  0  0  0  0  0  0  0  0
   67.8297   73.9510   90.3986 C   0  0  0  0  0  0  0  0  0  0  0  0
   68.7334   74.4493   91.3430 C   0  0  0  0  0  0  0  0  0  0  0  0
   69.2111   75.7595   91.2218 C   0  0  0  0  0  0  0  0  0  0  0  0
   68.7489   76.5917   90.1921 C   0  0  0  0  0  0  0  0  0  0  0  0
   69.2124   73.4470   92.7078 S   0  0  0  0  0  0  0  0  0  0  0  0
   69.6651   72.1249   92.1559 O   0  0  0  0  0  0  0  0  0  0  0  0
   70.3803   74.0646   93.4265 O   0  0  0  0  0  0  0  0  0  0  0  0
   67.8972   73.1501   93.8212 N   0  0  0  0  0  0  0  0  0  0  0  0
   68.2089   72.4355   94.4789 H   0  0  0  0  0  0  0  0  0  0  0  0
   67.4006   74.3019   94.6173 C   0  0  0  0  0  0  0  0  0  0  0  0
   68.5451   75.2922   94.9224 C   0  0  0  0  0  0  0  0  0  0  0  0
   66.3618   75.0508   93.7533 C   0  0  0  0  0  0  0  0  0  0  0  0
   66.7075   73.8648   95.9255 C   0  0  0  0  0  0  0  0  0  0  0  0
   67.5181   81.3738   90.9850 C   0  0  0  0  0  0  0  0  0  0  0  0
   66.8522   81.8724   89.8216 O   0  0  0  0  0  0  0  0  0  0  0  0
   67.4257   82.7245   88.8630 C   0  0  0  0  0  0  0  0  0  0  0  0
   67.4556   82.4072   87.4946 C   0  0  0  0  0  0  0  0  0  0  0  0
   68.0770   83.2675   86.5894 C   0  0  0  0  0  0  0  0  0  0  0  0
   68.6746   84.4549   87.0256 C   0  0  0  0  0  0  0  0  0  0  0  0
   69.3633   85.2246   86.0822 O   0  0  0  0  0  0  0  0  0  0  0  0
   68.6010   84.8152   88.3930 C   0  0  0  0  0  0  0  0  0  0  0  0
   67.9906   83.9284   89.2987 C   0  0  0  0  0  0  0  0  0  0  0  0
   69.3897   84.9535   85.1857 H   0  0  0  0  0  0  0  0  0  0  0  0
   69.1141   86.1050   88.8983 C   0  0  0  0  0  0  0  0  0  0  0  0
   69.8216   86.8371   88.1553 O   0  0  0  0  0  0  0  0  0  0  0  0
   68.8663   86.4999   90.2101 O   0  0  0  0  0  0  0  0  0  0  0  0
   68.3415   85.9623   90.7700 H   0  0  0  0  0  0  0  0  0  0  0  0
  1  2  2  0  0  0  0
  2  3  1  0  0  0  0
  3  4  2  0  0  0  0
  4  5  1  0  0  0  0
  5 23  1  0  0  0  0
  5  6  2  0  0  0  0
  6  1  1  0  0  0  0
  7  8  1  0  0  0  0
  8  9  2  0  0  0  0
  9 10  1  0  0  0  0
 10 11  2  0  0  0  0
 11 14  1  0  0  0  0
 11 12  1  0  0  0  0
 12 13  2  0  0  0  0
 13  1  1  0  0  0  0
 13  8  1  0  0  0  0
 14 15  2  0  0  0  0
 14 16  2  0  0  0  0
 14 17  1  0  0  0  0
 17 19  1  0  0  0  0
 17 18  1  0  0  0  0
 19 20  1  0  0  0  0
 19 21  1  0  0  0  0
 19 22  1  0  0  0  0
 23 24  1  0  0  0  0
 24 25  1  0  0  0  0
 25 26  2  0  0  0  0
 26 27  1  0  0  0  0
 27 28  2  0  0  0  0
 28 29  1  0  0  0  0
 28 30  1  0  0  0  0
 29 32  1  0  0  0  0
 30 33  1  0  0  0  0
 30 31  2  0  0  0  0
 31 25  1  0  0  0  0
 33 34  2  0  0  0  0
 33 35  1  0  0  0  0
 35 36  1  0  0  0  0
M  END
>  <Activity>
66.6

>  <minimizedAffinity>
-8.88632

>  <RFScoreVS_v2>
5.98722857518

$$$$
HIPS6547
 OpenBabel05252300073D

 36 38  0  0  0  0  0  0  0  0999 V2000
   69.6912   77.4814   90.4700 C   0  0  0  0  0  0  0  0  0  0  0  0
   71.0661   77.7464   90.4181 C   0  0  0  0  0  0  0  0  0  0  0  0
   71.5182   79.0606   90.2745 C   0  0  0  0  0  0  0  0  0  0  0  0
   70.6026   80.1158   90.2120 C   0  0  0  0  0  0  0  0  0  0  0  0
   69.2245   79.8624   90.2916 C   0  0  0  0  0  0  0  0  0  0  0  0
   68.7745   78.5368   90.3884 C   0  0  0  0  0  0  0  0  0  0  0  0
   67.5936   76.3354   88.7139 C   0  0  0  0  0  0  0  0  0  0  0  0
   68.1695   75.5653   89.8729 C   0  0  0  0  0  0  0  0  0  0  0  0
   67.6390   74.3069   90.2028 C   0  0  0  0  0  0  0  0  0  0  0  0
   68.1183   73.6023   91.3107 C   0  0  0  0  0  0  0  0  0  0  0  0
   69.1429   74.1387   92.0976 C   0  0  0  0  0  0  0  0  0  0  0  0
   69.6991   75.3785   91.7613 C   0  0  0  0  0  0  0  0  0  0  0  0
   69.1994   76.1096   90.6738 C   0  0  0  0  0  0  0  0  0  0  0  0
   69.6796   73.2805   93.5371 S   0  0  0  0  0  0  0  0  0  0  0  0
   69.9811   74.3117   94.5875 O   0  0  0  0  0  0  0  0  0  0  0  0
   68.5786   72.4019   94.0640 O   0  0  0  0  0  0  0  0  0  0  0  0
   71.1303   72.3437   93.2623 N   0  0  0  0  0  0  0  0  0  0  0  0
   71.7890   72.5748   94.0061 H   0  0  0  0  0  0  0  0  0  0  0  0
   70.9949   70.8646   93.2311 C   0  0  0  0  0  0  0  0  0  0  0  0
   69.8446   70.4386   92.2936 C   0  0  0  0  0  0  0  0  0  0  0  0
   72.3036   70.2903   92.6447 C   0  0  0  0  0  0  0  0  0  0  0  0
   70.7940   70.2570   94.6358 C   0  0  0  0  0  0  0  0  0  0  0  0
   68.2343   80.9996   90.2635 C   0  0  0  0  0  0  0  0  0  0  0  0
   67.8883   81.3485   88.9203 O   0  0  0  0  0  0  0  0  0  0  0  0
   68.2986   82.5162   88.2556 C   0  0  0  0  0  0  0  0  0  0  0  0
   67.4744   83.1907   87.3393 C   0  0  0  0  0  0  0  0  0  0  0  0
   67.9466   84.3212   86.6725 C   0  0  0  0  0  0  0  0  0  0  0  0
   69.2398   84.8015   86.9058 C   0  0  0  0  0  0  0  0  0  0  0  0
   69.6849   85.8807   86.1351 O   0  0  0  0  0  0  0  0  0  0  0  0
   70.0600   84.1661   87.8694 C   0  0  0  0  0  0  0  0  0  0  0  0
   69.5798   83.0140   88.5187 C   0  0  0  0  0  0  0  0  0  0  0  0
   69.1125   86.2754   85.5069 H   0  0  0  0  0  0  0  0  0  0  0  0
   71.3908   84.6884   88.2413 C   0  0  0  0  0  0  0  0  0  0  0  0
   71.5175   85.8870   88.6099 O   0  0  0  0  0  0  0  0  0  0  0  0
   72.5210   83.8819   88.1399 O   0  0  0  0  0  0  0  0  0  0  0  0
   72.4367   82.9896   87.8666 H   0  0  0  0  0  0  0  0  0  0  0  0
  1  2  2  0  0  0  0
  2  3  1  0  0  0  0
  3  4  2  0  0  0  0
  4  5  1  0  0  0  0
  5 23  1  0  0  0  0
  5  6  2  0  0  0  0
  6  1  1  0  0  0  0
  7  8  1  0  0  0  0
  8  9  2  0  0  0  0
  9 10  1  0  0  0  0
 10 11  2  0  0  0  0
 11 14  1  0  0  0  0
 11 12  1  0  0  0  0
 12 13  2  0  0  0  0
 13  1  1  0  0  0  0
 13  8  1  0  0  0  0
 14 15  2  0  0  0  0
 14 16  2  0  0  0  0
 14 17  1  0  0  0  0
 17 19  1  0  0  0  0
 17 18  1  0  0  0  0
 19 20  1  0  0  0  0
 19 21  1  0  0  0  0
 19 22  1  0  0  0  0
 23 24  1  0  0  0  0
 24 25  1  0  0  0  0
 25 26  2  0  0  0  0
 26 27  1  0  0  0  0
 27 28  2  0  0  0  0
 28 29  1  0  0  0  0
 28 30  1  0  0  0  0
 29 32  1  0  0  0  0
 30 33  1  0  0  0  0
 30 31  2  0  0  0  0
 31 25  1  0  0  0  0
 33 34  2  0  0  0  0
 33 35  1  0  0  0  0
 35 36  1  0  0  0  0
M  END
>  <Activity>
66.6

>  <minimizedAffinity>
-8.84572

>  <RFScoreVS_v2>
5.95833483649

$$$$
HIPS6547
 OpenBabel05252300073D

 36 38  0  0  0  0  0  0  0  0999 V2000
   68.0169   77.5036   89.3410 C   0  0  0  0  0  0  0  0  0  0  0  0
   67.6150   76.8386   88.1750 C   0  0  0  0  0  0  0  0  0  0  0  0
   67.0546   77.5606   87.1182 C   0  0  0  0  0  0  0  0  0  0  0  0
   66.9207   78.9497   87.2093 C   0  0  0  0  0  0  0  0  0  0  0  0
   67.3465   79.6275   88.3621 C   0  0  0  0  0  0  0  0  0  0  0  0
   67.8651   78.8922   89.4389 C   0  0  0  0  0  0  0  0  0  0  0  0
   70.8092   78.0903   90.1509 C   0  0  0  0  0  0  0  0  0  0  0  0
   70.0008   77.0041   90.8101 C   0  0  0  0  0  0  0  0  0  0  0  0
   70.6050   76.1733   91.7685 C   0  0  0  0  0  0  0  0  0  0  0  0
   69.8902   75.1213   92.3483 C   0  0  0  0  0  0  0  0  0  0  0  0
   68.5580   74.8919   91.9886 C   0  0  0  0  0  0  0  0  0  0  0  0
   67.9369   75.7313   91.0564 C   0  0  0  0  0  0  0  0  0  0  0  0
   68.6569   76.7660   90.4418 C   0  0  0  0  0  0  0  0  0  0  0  0
   67.6955   73.5144   92.6634 S   0  0  0  0  0  0  0  0  0  0  0  0
   67.1541   72.7164   91.5112 O   0  0  0  0  0  0  0  0  0  0  0  0
   68.6403   72.6281   93.4274 O   0  0  0  0  0  0  0  0  0  0  0  0
   66.3509   73.9901   93.6750 N   0  0  0  0  0  0  0  0  0  0  0  0
   66.0845   73.1778   94.2314 H   0  0  0  0  0  0  0  0  0  0  0  0
   66.5666   75.1213   94.6137 C   0  0  0  0  0  0  0  0  0  0  0  0
   66.1927   76.4641   93.9497 C   0  0  0  0  0  0  0  0  0  0  0  0
   65.6133   74.9190   95.8122 C   0  0  0  0  0  0  0  0  0  0  0  0
   68.0108   75.1758   95.1560 C   0  0  0  0  0  0  0  0  0  0  0  0
   67.2399   81.1292   88.4502 C   0  0  0  0  0  0  0  0  0  0  0  0
   68.0595   81.6431   89.5036 O   0  0  0  0  0  0  0  0  0  0  0  0
   69.3319   82.2144   89.3344 C   0  0  0  0  0  0  0  0  0  0  0  0
   70.4669   81.7405   90.0133 C   0  0  0  0  0  0  0  0  0  0  0  0
   71.6992   82.3717   89.8438 C   0  0  0  0  0  0  0  0  0  0  0  0
   71.8255   83.4788   88.9977 C   0  0  0  0  0  0  0  0  0  0  0  0
   73.0658   84.1236   88.9463 O   0  0  0  0  0  0  0  0  0  0  0  0
   70.7027   83.9308   88.2628 C   0  0  0  0  0  0  0  0  0  0  0  0
   69.4612   83.2989   88.4595 C   0  0  0  0  0  0  0  0  0  0  0  0
   73.7860   83.7945   89.4473 H   0  0  0  0  0  0  0  0  0  0  0  0
   70.7951   85.0224   87.2717 C   0  0  0  0  0  0  0  0  0  0  0  0
   71.6572   85.9310   87.4128 O   0  0  0  0  0  0  0  0  0  0  0  0
   69.9025   85.0872   86.2054 O   0  0  0  0  0  0  0  0  0  0  0  0
   69.2582   84.4164   86.0924 H   0  0  0  0  0  0  0  0  0  0  0  0
  1  2  2  0  0  0  0
  2  3  1  0  0  0  0
  3  4  2  0  0  0  0
  4  5  1  0  0  0  0
  5 23  1  0  0  0  0
  5  6  2  0  0  0  0
  6  1  1  0  0  0  0
  7  8  1  0  0  0  0
  8  9  2  0  0  0  0
  9 10  1  0  0  0  0
 10 11  2  0  0  0  0
 11 14  1  0  0  0  0
 11 12  1  0  0  0  0
 12 13  2  0  0  0  0
 13  1  1  0  0  0  0
 13  8  1  0  0  0  0
 14 15  2  0  0  0  0
 14 16  2  0  0  0  0
 14 17  1  0  0  0  0
 17 19  1  0  0  0  0
 17 18  1  0  0  0  0
 19 20  1  0  0  0  0
 19 21  1  0  0  0  0
 19 22  1  0  0  0  0
 23 24  1  0  0  0  0
 24 25  1  0  0  0  0
 25 26  2  0  0  0  0
 26 27  1  0  0  0  0
 27 28  2  0  0  0  0
 28 29  1  0  0  0  0
 28 30  1  0  0  0  0
 29 32  1  0  0  0  0
 30 33  1  0  0  0  0
 30 31  2  0  0  0  0
 31 25  1  0  0  0  0
 33 34  2  0  0  0  0
 33 35  1  0  0  0  0
 35 36  1  0  0  0  0
M  END
>  <Activity>
66.6

>  <minimizedAffinity>
-8.81087

>  <RFScoreVS_v2>
6.00299344429

$$$$
HIPS6547
 OpenBabel05252300073D

 36 38  0  0  0  0  0  0  0  0999 V2000
   69.9900   76.4167   91.7053 C   0  0  0  0  0  0  0  0  0  0  0  0
   71.3199   76.8167   91.5192 C   0  0  0  0  0  0  0  0  0  0  0  0
   71.6126   77.8985   90.6848 C   0  0  0  0  0  0  0  0  0  0  0  0
   70.5792   78.6020   90.0579 C   0  0  0  0  0  0  0  0  0  0  0  0
   69.2424   78.2260   90.2609 C   0  0  0  0  0  0  0  0  0  0  0  0
   68.9572   77.1099   91.0623 C   0  0  0  0  0  0  0  0  0  0  0  0
   68.6949   76.9405   94.3217 C   0  0  0  0  0  0  0  0  0  0  0  0
   69.0833   75.5511   93.8900 C   0  0  0  0  0  0  0  0  0  0  0  0
   68.9234   74.4768   94.7810 C   0  0  0  0  0  0  0  0  0  0  0  0
   69.3331   73.1894   94.4223 C   0  0  0  0  0  0  0  0  0  0  0  0
   69.8968   72.9544   93.1639 C   0  0  0  0  0  0  0  0  0  0  0  0
   70.0342   74.0117   92.2569 C   0  0  0  0  0  0  0  0  0  0  0  0
   69.6604   75.3133   92.6215 C   0  0  0  0  0  0  0  0  0  0  0  0
   70.4845   71.3465   92.7562 S   0  0  0  0  0  0  0  0  0  0  0  0
   69.9648   70.4008   93.8016 O   0  0  0  0  0  0  0  0  0  0  0  0
   69.9304   70.9074   91.4288 O   0  0  0  0  0  0  0  0  0  0  0  0
   72.2303   71.2473   92.7526 N   0  0  0  0  0  0  0  0  0  0  0  0
   72.5630   71.6832   93.6126 H   0  0  0  0  0  0  0  0  0  0  0  0
   72.8393   69.8945   92.6745 C   0  0  0  0  0  0  0  0  0  0  0  0
   74.3381   69.9874   92.3155 C   0  0  0  0  0  0  0  0  0  0  0  0
   72.7408   69.2586   94.0789 C   0  0  0  0  0  0  0  0  0  0  0  0
   72.1065   68.9699   91.6791 C   0  0  0  0  0  0  0  0  0  0  0  0
   68.1222   79.0047   89.6182 C   0  0  0  0  0  0  0  0  0  0  0  0
   67.0736   78.1350   89.1831 O   0  0  0  0  0  0  0  0  0  0  0  0
   67.1657   77.2266   88.1153 C   0  0  0  0  0  0  0  0  0  0  0  0
   67.5445   77.6209   86.8211 C   0  0  0  0  0  0  0  0  0  0  0  0
   67.5772   76.6871   85.7855 C   0  0  0  0  0  0  0  0  0  0  0  0
   67.2383   75.3495   86.0173 C   0  0  0  0  0  0  0  0  0  0  0  0
   67.1989   74.4856   84.9178 O   0  0  0  0  0  0  0  0  0  0  0  0
   66.9112   74.9267   87.3284 C   0  0  0  0  0  0  0  0  0  0  0  0
   66.8608   75.8828   88.3593 C   0  0  0  0  0  0  0  0  0  0  0  0
   67.4225   74.8024   84.0648 H   0  0  0  0  0  0  0  0  0  0  0  0
   66.6519   73.5105   87.6597 C   0  0  0  0  0  0  0  0  0  0  0  0
   66.8370   73.0935   88.8346 O   0  0  0  0  0  0  0  0  0  0  0  0
   66.2521   72.6148   86.6719 O   0  0  0  0  0  0  0  0  0  0  0  0
   66.1120   72.9155   85.7956 H   0  0  0  0  0  0  0  0  0  0  0  0
  1  2  2  0  0  0  0
  2  3  1  0  0  0  0
  3  4  2  0  0  0  0
  4  5  1  0  0  0  0
  5 23  1  0  0  0  0
  5  6  2  0  0  0  0
  6  1  1  0  0  0  0
  7  8  1  0  0  0  0
  8  9  2  0  0  0  0
  9 10  1  0  0  0  0
 10 11  2  0  0  0  0
 11 14  1  0  0  0  0
 11 12  1  0  0  0  0
 12 13  2  0  0  0  0
 13  1  1  0  0  0  0
 13  8  1  0  0  0  0
 14 15  2  0  0  0  0
 14 16  2  0  0  0  0
 14 17  1  0  0  0  0
 17 19  1  0  0  0  0
 17 18  1  0  0  0  0
 19 20  1  0  0  0  0
 19 21  1  0  0  0  0
 19 22  1  0  0  0  0
 23 24  1  0  0  0  0
 24 25  1  0  0  0  0
 25 26  2  0  0  0  0
 26 27  1  0  0  0  0
 27 28  2  0  0  0  0
 28 29  1  0  0  0  0
 28 30  1  0  0  0  0
 29 32  1  0  0  0  0
 30 33  1  0  0  0  0
 30 31  2  0  0  0  0
 31 25  1  0  0  0  0
 33 34  2  0  0  0  0
 33 35  1  0  0  0  0
 35 36  1  0  0  0  0
M  END
>  <Activity>
66.6

>  <minimizedAffinity>
-8.77889

>  <RFScoreVS_v2>
5.9561502146

$$$$
HIPS6547
 OpenBabel05252300073D

 36 38  0  0  0  0  0  0  0  0999 V2000
   68.2705   78.0769   89.3784 C   0  0  0  0  0  0  0  0  0  0  0  0
   67.9801   77.6522   88.0752 C   0  0  0  0  0  0  0  0  0  0  0  0
   67.3851   78.5350   87.1703 C   0  0  0  0  0  0  0  0  0  0  0  0
   67.1054   79.8508   87.5529 C   0  0  0  0  0  0  0  0  0  0  0  0
   67.4188   80.2930   88.8474 C   0  0  0  0  0  0  0  0  0  0  0  0
   67.9730   79.3890   89.7666 C   0  0  0  0  0  0  0  0  0  0  0  0
   71.0272   78.6375   90.3185 C   0  0  0  0  0  0  0  0  0  0  0  0
   70.2739   77.4071   90.7502 C   0  0  0  0  0  0  0  0  0  0  0  0
   70.9174   76.4406   91.5412 C   0  0  0  0  0  0  0  0  0  0  0  0
   70.2560   75.2635   91.9027 C   0  0  0  0  0  0  0  0  0  0  0  0
   68.9381   75.0405   91.4899 C   0  0  0  0  0  0  0  0  0  0  0  0
   68.2771   76.0096   90.7261 C   0  0  0  0  0  0  0  0  0  0  0  0
   68.9448   77.1766   90.3273 C   0  0  0  0  0  0  0  0  0  0  0  0
   68.1455   73.5188   91.8812 S   0  0  0  0  0  0  0  0  0  0  0  0
   67.4143   73.0647   90.6497 O   0  0  0  0  0  0  0  0  0  0  0  0
   69.1671   72.4678   92.2180 O   0  0  0  0  0  0  0  0  0  0  0  0
   66.9822   73.6779   93.1770 N   0  0  0  0  0  0  0  0  0  0  0  0
   66.6701   72.7389   93.4246 H   0  0  0  0  0  0  0  0  0  0  0  0
   67.4356   74.3406   94.4270 C   0  0  0  0  0  0  0  0  0  0  0  0
   67.3588   75.8767   94.2925 C   0  0  0  0  0  0  0  0  0  0  0  0
   66.4608   73.9275   95.5519 C   0  0  0  0  0  0  0  0  0  0  0  0
   68.8577   73.9099   94.8453 C   0  0  0  0  0  0  0  0  0  0  0  0
   67.1549   81.7214   89.2531 C   0  0  0  0  0  0  0  0  0  0  0  0
   67.6245   82.6349   88.2580 O   0  0  0  0  0  0  0  0  0  0  0  0
   68.9552   83.0620   88.1143 C   0  0  0  0  0  0  0  0  0  0  0  0
   69.3825   83.8435   87.0277 C   0  0  0  0  0  0  0  0  0  0  0  0
   70.7247   84.2039   86.9087 C   0  0  0  0  0  0  0  0  0  0  0  0
   71.6619   83.7983   87.8652 C   0  0  0  0  0  0  0  0  0  0  0  0
   73.0059   84.1117   87.6368 O   0  0  0  0  0  0  0  0  0  0  0  0
   71.2349   83.0600   88.9954 C   0  0  0  0  0  0  0  0  0  0  0  0
   69.8825   82.6845   89.0920 C   0  0  0  0  0  0  0  0  0  0  0  0
   73.2499   84.6025   86.8768 H   0  0  0  0  0  0  0  0  0  0  0  0
   72.1532   82.6967   90.0941 C   0  0  0  0  0  0  0  0  0  0  0  0
   71.7165   82.0817   91.1038 O   0  0  0  0  0  0  0  0  0  0  0  0
   73.4928   83.0729   90.0500 O   0  0  0  0  0  0  0  0  0  0  0  0
   73.8266   83.5304   89.3036 H   0  0  0  0  0  0  0  0  0  0  0  0
  1  2  2  0  0  0  0
  2  3  1  0  0  0  0
  3  4  2  0  0  0  0
  4  5  1  0  0  0  0
  5 23  1  0  0  0  0
  5  6  2  0  0  0  0
  6  1  1  0  0  0  0
  7  8  1  0  0  0  0
  8  9  2  0  0  0  0
  9 10  1  0  0  0  0
 10 11  2  0  0  0  0
 11 14  1  0  0  0  0
 11 12  1  0  0  0  0
 12 13  2  0  0  0  0
 13  1  1  0  0  0  0
 13  8  1  0  0  0  0
 14 15  2  0  0  0  0
 14 16  2  0  0  0  0
 14 17  1  0  0  0  0
 17 19  1  0  0  0  0
 17 18  1  0  0  0  0
 19 20  1  0  0  0  0
 19 21  1  0  0  0  0
 19 22  1  0  0  0  0
 23 24  1  0  0  0  0
 24 25  1  0  0  0  0
 25 26  2  0  0  0  0
 26 27  1  0  0  0  0
 27 28  2  0  0  0  0
 28 29  1  0  0  0  0
 28 30  1  0  0  0  0
 29 32  1  0  0  0  0
 30 33  1  0  0  0  0
 30 31  2  0  0  0  0
 31 25  1  0  0  0  0
 33 34  2  0  0  0  0
 33 35  1  0  0  0  0
 35 36  1  0  0  0  0
M  END
>  <Activity>
66.6

>  <minimizedAffinity>
-8.70135

>  <RFScoreVS_v2>
5.96500624708

$$$$
HIPS6245
 OpenBabel05252300073D

 35 37  0  0  0  0  0  0  0  0999 V2000
   67.6012   76.6682   89.0535 C   0  0  0  0  0  0  0  0  0  0  0  0
   66.8046   76.9006   87.9189 C   0  0  0  0  0  0  0  0  0  0  0  0
   66.6651   78.1926   87.4069 C   0  0  0  0  0  0  0  0  0  0  0  0
   67.3320   79.2621   88.0084 C   0  0  0  0  0  0  0  0  0  0  0  0
   68.1345   79.0489   89.1387 C   0  0  0  0  0  0  0  0  0  0  0  0
   68.2482   77.7539   89.6695 C   0  0  0  0  0  0  0  0  0  0  0  0
   68.7355   73.7799   91.2354 C   0  0  0  0  0  0  0  0  0  0  0  0
   68.0929   72.7016   90.6151 C   0  0  0  0  0  0  0  0  0  0  0  0
   67.3203   72.9098   89.4704 C   0  0  0  0  0  0  0  0  0  0  0  0
   67.1718   74.1972   88.9477 C   0  0  0  0  0  0  0  0  0  0  0  0
   67.8065   75.2909   89.5622 C   0  0  0  0  0  0  0  0  0  0  0  0
   68.5975   75.0693   90.7032 C   0  0  0  0  0  0  0  0  0  0  0  0
   69.6442   73.5268   92.7244 S   0  0  0  0  0  0  0  0  0  0  0  0
   70.3126   74.8054   93.1510 O   0  0  0  0  0  0  0  0  0  0  0  0
   70.7137   72.5012   92.4748 O   0  0  0  0  0  0  0  0  0  0  0  0
   68.6135   72.9565   93.9444 O   0  0  0  0  0  0  0  0  0  0  0  0
   68.4672   73.9600   94.9250 C   0  0  0  0  0  0  0  0  0  0  0  0
   67.1432   75.9742   94.1480 C   0  0  0  0  0  0  0  0  0  0  0  0
   67.0611   74.5983   94.8391 C   0  0  0  0  0  0  0  0  0  0  0  0
   66.4740   74.7671   96.2551 C   0  0  0  0  0  0  0  0  0  0  0  0
   66.1389   73.6754   94.0174 C   0  0  0  0  0  0  0  0  0  0  0  0
   68.9096   80.1946   89.7329 C   0  0  0  0  0  0  0  0  0  0  0  0
   68.2598   81.4351   89.4486 O   0  0  0  0  0  0  0  0  0  0  0  0
   68.7726   82.4539   88.6270 C   0  0  0  0  0  0  0  0  0  0  0  0
   67.9525   82.9611   87.6160 C   0  0  0  0  0  0  0  0  0  0  0  0
   68.4191   83.9562   86.7570 C   0  0  0  0  0  0  0  0  0  0  0  0
   69.7168   84.4672   86.8977 C   0  0  0  0  0  0  0  0  0  0  0  0
   70.1656   85.4473   86.0121 O   0  0  0  0  0  0  0  0  0  0  0  0
   70.5562   83.9828   87.9261 C   0  0  0  0  0  0  0  0  0  0  0  0
   70.0689   82.9790   88.7863 C   0  0  0  0  0  0  0  0  0  0  0  0
   69.5998   85.7607   85.3342 H   0  0  0  0  0  0  0  0  0  0  0  0
   71.9330   84.5075   88.1199 C   0  0  0  0  0  0  0  0  0  0  0  0
   72.2225   85.6790   87.7528 O   0  0  0  0  0  0  0  0  0  0  0  0
   72.9236   83.7182   88.6997 O   0  0  0  0  0  0  0  0  0  0  0  0
   72.7246   82.8458   88.9777 H   0  0  0  0  0  0  0  0  0  0  0  0
  1  2  2  0  0  0  0
  2  3  1  0  0  0  0
  3  4  2  0  0  0  0
  4  5  1  0  0  0  0
  5 22  1  0  0  0  0
  5  6  2  0  0  0  0
  6  1  1  0  0  0  0
  7  8  2  0  0  0  0
  8  9  1  0  0  0  0
  9 10  2  0  0  0  0
 10 11  1  0  0  0  0
 11  1  1  0  0  0  0
 11 12  2  0  0  0  0
 12  7  1  0  0  0  0
 13 14  2  0  0  0  0
 13 15  2  0  0  0  0
 13  7  1  0  0  0  0
 16 13  1  0  0  0  0
 17 16  1  0  0  0  0
 18 19  1  0  0  0  0
 19 20  1  0  0  0  0
 19 21  1  0  0  0  0
 19 17  1  0  0  0  0
 22 23  1  0  0  0  0
 23 24  1  0  0  0  0
 24 25  2  0  0  0  0
 25 26  1  0  0  0  0
 26 27  2  0  0  0  0
 27 28  1  0  0  0  0
 27 29  1  0  0  0  0
 28 31  1  0  0  0  0
 29 32  1  0  0  0  0
 29 30  2  0  0  0  0
 30 24  1  0  0  0  0
 32 33  2  0  0  0  0
 32 34  1  0  0  0  0
 34 35  1  0  0  0  0
M  END
>  <Activity>
91.6

>  <minimizedAffinity>
-9.47821

>  <RFScoreVS_v2>
5.99920503995

$$$$
HIPS6245
 OpenBabel05252300073D

 35 37  0  0  0  0  0  0  0  0999 V2000
   67.6190   76.8191   89.0982 C   0  0  0  0  0  0  0  0  0  0  0  0
   67.1601   77.0754   87.7945 C   0  0  0  0  0  0  0  0  0  0  0  0
   67.0414   78.3885   87.3334 C   0  0  0  0  0  0  0  0  0  0  0  0
   67.3960   79.4574   88.1590 C   0  0  0  0  0  0  0  0  0  0  0  0
   67.8598   79.2210   89.4613 C   0  0  0  0  0  0  0  0  0  0  0  0
   67.9489   77.9014   89.9328 C   0  0  0  0  0  0  0  0  0  0  0  0
   68.7174   73.8641   91.2080 C   0  0  0  0  0  0  0  0  0  0  0  0
   68.0692   72.8082   90.5557 C   0  0  0  0  0  0  0  0  0  0  0  0
   67.3045   73.0534   89.4130 C   0  0  0  0  0  0  0  0  0  0  0  0
   67.1696   74.3555   88.9242 C   0  0  0  0  0  0  0  0  0  0  0  0
   67.8101   75.4270   89.5710 C   0  0  0  0  0  0  0  0  0  0  0  0
   68.5931   75.1683   90.7097 C   0  0  0  0  0  0  0  0  0  0  0  0
   69.6160   73.5636   92.6943 S   0  0  0  0  0  0  0  0  0  0  0  0
   70.2875   74.8261   93.1618 O   0  0  0  0  0  0  0  0  0  0  0  0
   70.6825   72.5408   92.4213 O   0  0  0  0  0  0  0  0  0  0  0  0
   68.5754   72.9629   93.8911 O   0  0  0  0  0  0  0  0  0  0  0  0
   68.4470   73.9284   94.9115 C   0  0  0  0  0  0  0  0  0  0  0  0
   66.4976   74.7420   96.3084 C   0  0  0  0  0  0  0  0  0  0  0  0
   67.0397   74.5687   94.8754 C   0  0  0  0  0  0  0  0  0  0  0  0
   66.0777   73.6766   94.0648 C   0  0  0  0  0  0  0  0  0  0  0  0
   67.1336   75.9521   94.2009 C   0  0  0  0  0  0  0  0  0  0  0  0
   68.3118   80.3754   90.3156 C   0  0  0  0  0  0  0  0  0  0  0  0
   69.7068   80.6191   90.1246 O   0  0  0  0  0  0  0  0  0  0  0  0
   70.2617   81.7866   89.5726 C   0  0  0  0  0  0  0  0  0  0  0  0
   71.5644   82.1344   89.9387 C   0  0  0  0  0  0  0  0  0  0  0  0
   72.1554   83.2950   89.4390 C   0  0  0  0  0  0  0  0  0  0  0  0
   71.4535   84.1284   88.5570 C   0  0  0  0  0  0  0  0  0  0  0  0
   72.0604   85.2939   88.0885 O   0  0  0  0  0  0  0  0  0  0  0  0
   70.1422   83.7852   88.1578 C   0  0  0  0  0  0  0  0  0  0  0  0
   69.5606   82.6086   88.6702 C   0  0  0  0  0  0  0  0  0  0  0  0
   72.9304   85.5109   88.3603 H   0  0  0  0  0  0  0  0  0  0  0  0
   69.3686   84.6324   87.2133 C   0  0  0  0  0  0  0  0  0  0  0  0
   68.1394   84.8385   87.4074 O   0  0  0  0  0  0  0  0  0  0  0  0
   69.9808   85.2042   86.1003 O   0  0  0  0  0  0  0  0  0  0  0  0
   70.8931   85.0607   85.9420 H   0  0  0  0  0  0  0  0  0  0  0  0
  1  2  2  0  0  0  0
  2  3  1  0  0  0  0
  3  4  2  0  0  0  0
  4  5  1  0  0  0  0
  5 22  1  0  0  0  0
  5  6  2  0  0  0  0
  6  1  1  0  0  0  0
  7  8  2  0  0  0  0
  8  9  1  0  0  0  0
  9 10  2  0  0  0  0
 10 11  1  0  0  0  0
 11  1  1  0  0  0  0
 11 12  2  0  0  0  0
 12  7  1  0  0  0  0
 13 14  2  0  0  0  0
 13 15  2  0  0  0  0
 13  7  1  0  0  0  0
 16 13  1  0  0  0  0
 17 16  1  0  0  0  0
 18 19  1  0  0  0  0
 19 20  1  0  0  0  0
 19 21  1  0  0  0  0
 19 17  1  0  0  0  0
 22 23  1  0  0  0  0
 23 24  1  0  0  0  0
 24 25  2  0  0  0  0
 25 26  1  0  0  0  0
 26 27  2  0  0  0  0
 27 28  1  0  0  0  0
 27 29  1  0  0  0  0
 28 31  1  0  0  0  0
 29 32  1  0  0  0  0
 29 30  2  0  0  0  0
 30 24  1  0  0  0  0
 32 33  2  0  0  0  0
 32 34  1  0  0  0  0
 34 35  1  0  0  0  0
M  END
>  <Activity>
91.6

>  <minimizedAffinity>
-9.45625

>  <RFScoreVS_v2>
5.98050098356

$$$$
HIPS6245
 OpenBabel05252300073D

 35 37  0  0  0  0  0  0  0  0999 V2000
   67.6852   76.7653   89.2114 C   0  0  0  0  0  0  0  0  0  0  0  0
   67.2689   76.9398   87.8801 C   0  0  0  0  0  0  0  0  0  0  0  0
   67.1388   78.2228   87.3435 C   0  0  0  0  0  0  0  0  0  0  0  0
   67.4397   79.3430   88.1212 C   0  0  0  0  0  0  0  0  0  0  0  0
   67.8604   79.1885   89.4502 C   0  0  0  0  0  0  0  0  0  0  0  0
   67.9607   77.8988   89.9963 C   0  0  0  0  0  0  0  0  0  0  0  0
   68.6597   73.9622   91.5741 C   0  0  0  0  0  0  0  0  0  0  0  0
   68.1603   72.8459   90.8923 C   0  0  0  0  0  0  0  0  0  0  0  0
   67.5384   73.0020   89.6516 C   0  0  0  0  0  0  0  0  0  0  0  0
   67.3973   74.2746   89.0918 C   0  0  0  0  0  0  0  0  0  0  0  0
   67.8889   75.4059   89.7664 C   0  0  0  0  0  0  0  0  0  0  0  0
   68.5302   75.2372   91.0062 C   0  0  0  0  0  0  0  0  0  0  0  0
   69.3725   73.7718   93.1749 S   0  0  0  0  0  0  0  0  0  0  0  0
   68.3685   73.1785   94.1254 O   0  0  0  0  0  0  0  0  0  0  0  0
   69.7676   75.1243   93.6970 O   0  0  0  0  0  0  0  0  0  0  0  0
   70.7560   72.7954   93.0825 O   0  0  0  0  0  0  0  0  0  0  0  0
   70.7958   71.9513   94.2120 C   0  0  0  0  0  0  0  0  0  0  0  0
   72.5936   70.4746   93.2115 C   0  0  0  0  0  0  0  0  0  0  0  0
   71.1671   70.5089   93.7956 C   0  0  0  0  0  0  0  0  0  0  0  0
   70.1662   69.9926   92.7421 C   0  0  0  0  0  0  0  0  0  0  0  0
   71.1084   69.5961   95.0370 C   0  0  0  0  0  0  0  0  0  0  0  0
   68.2557   80.3978   90.2552 C   0  0  0  0  0  0  0  0  0  0  0  0
   69.6535   80.6564   90.1104 O   0  0  0  0  0  0  0  0  0  0  0  0
   70.2134   81.8147   89.5442 C   0  0  0  0  0  0  0  0  0  0  0  0
   71.5169   82.1625   89.9075 C   0  0  0  0  0  0  0  0  0  0  0  0
   72.1127   83.3144   89.3939 C   0  0  0  0  0  0  0  0  0  0  0  0
   71.4150   84.1390   88.5004 C   0  0  0  0  0  0  0  0  0  0  0  0
   72.0266   85.2963   88.0179 O   0  0  0  0  0  0  0  0  0  0  0  0
   70.1029   83.7955   88.1039 C   0  0  0  0  0  0  0  0  0  0  0  0
   69.5164   82.6277   88.6305 C   0  0  0  0  0  0  0  0  0  0  0  0
   72.8971   85.5136   88.2880 H   0  0  0  0  0  0  0  0  0  0  0  0
   69.3335   84.6333   87.1476 C   0  0  0  0  0  0  0  0  0  0  0  0
   68.1014   84.8334   87.3289 O   0  0  0  0  0  0  0  0  0  0  0  0
   69.9531   85.2028   86.0375 O   0  0  0  0  0  0  0  0  0  0  0  0
   70.8676   85.0637   85.8887 H   0  0  0  0  0  0  0  0  0  0  0  0
  1  2  2  0  0  0  0
  2  3  1  0  0  0  0
  3  4  2  0  0  0  0
  4  5  1  0  0  0  0
  5 22  1  0  0  0  0
  5  6  2  0  0  0  0
  6  1  1  0  0  0  0
  7  8  2  0  0  0  0
  8  9  1  0  0  0  0
  9 10  2  0  0  0  0
 10 11  1  0  0  0  0
 11  1  1  0  0  0  0
 11 12  2  0  0  0  0
 12  7  1  0  0  0  0
 13 14  2  0  0  0  0
 13 15  2  0  0  0  0
 13  7  1  0  0  0  0
 16 13  1  0  0  0  0
 17 16  1  0  0  0  0
 18 19  1  0  0  0  0
 19 20  1  0  0  0  0
 19 21  1  0  0  0  0
 19 17  1  0  0  0  0
 22 23  1  0  0  0  0
 23 24  1  0  0  0  0
 24 25  2  0  0  0  0
 25 26  1  0  0  0  0
 26 27  2  0  0  0  0
 27 28  1  0  0  0  0
 27 29  1  0  0  0  0
 28 31  1  0  0  0  0
 29 32  1  0  0  0  0
 29 30  2  0  0  0  0
 30 24  1  0  0  0  0
 32 33  2  0  0  0  0
 32 34  1  0  0  0  0
 34 35  1  0  0  0  0
M  END
>  <Activity>
91.6

>  <minimizedAffinity>
-9.06865

>  <RFScoreVS_v2>
5.97050459674

$$$$
HIPS6245
 OpenBabel05252300073D

 35 37  0  0  0  0  0  0  0  0999 V2000
   67.6242   76.5805   89.0723 C   0  0  0  0  0  0  0  0  0  0  0  0
   66.9363   76.6477   87.8483 C   0  0  0  0  0  0  0  0  0  0  0  0
   66.7575   77.8748   87.2055 C   0  0  0  0  0  0  0  0  0  0  0  0
   67.2777   79.0434   87.7658 C   0  0  0  0  0  0  0  0  0  0  0  0
   67.9705   78.9954   88.9844 C   0  0  0  0  0  0  0  0  0  0  0  0
   68.1220   77.7648   89.6435 C   0  0  0  0  0  0  0  0  0  0  0  0
   68.7087   73.9957   91.6282 C   0  0  0  0  0  0  0  0  0  0  0  0
   68.2357   72.8164   91.0400 C   0  0  0  0  0  0  0  0  0  0  0  0
   67.5957   72.8591   89.7993 C   0  0  0  0  0  0  0  0  0  0  0  0
   67.4102   74.0805   89.1463 C   0  0  0  0  0  0  0  0  0  0  0  0
   67.8748   75.2739   89.7264 C   0  0  0  0  0  0  0  0  0  0  0  0
   68.5346   75.2192   90.9667 C   0  0  0  0  0  0  0  0  0  0  0  0
   69.4445   73.9490   93.2292 S   0  0  0  0  0  0  0  0  0  0  0  0
   68.4313   73.5226   94.2564 O   0  0  0  0  0  0  0  0  0  0  0  0
   69.9209   75.3283   93.5875 O   0  0  0  0  0  0  0  0  0  0  0  0
   70.7727   72.8946   93.2278 O   0  0  0  0  0  0  0  0  0  0  0  0
   70.5990   71.9395   94.2513 C   0  0  0  0  0  0  0  0  0  0  0  0
   72.3882   70.6305   93.0270 C   0  0  0  0  0  0  0  0  0  0  0  0
   71.0364   70.5388   93.7630 C   0  0  0  0  0  0  0  0  0  0  0  0
   69.9703   69.9578   92.8122 C   0  0  0  0  0  0  0  0  0  0  0  0
   71.1878   69.6059   94.9813 C   0  0  0  0  0  0  0  0  0  0  0  0
   68.5932   80.2480   89.5408 C   0  0  0  0  0  0  0  0  0  0  0  0
   67.8949   81.4022   89.0697 O   0  0  0  0  0  0  0  0  0  0  0  0
   68.4719   82.4711   88.3623 C   0  0  0  0  0  0  0  0  0  0  0  0
   67.7304   83.0576   87.3336 C   0  0  0  0  0  0  0  0  0  0  0  0
   68.2639   84.1061   86.5840 C   0  0  0  0  0  0  0  0  0  0  0  0
   69.5508   84.5918   86.8543 C   0  0  0  0  0  0  0  0  0  0  0  0
   70.0684   85.6274   86.0759 O   0  0  0  0  0  0  0  0  0  0  0  0
   70.3103   84.0266   87.9032 C   0  0  0  0  0  0  0  0  0  0  0  0
   69.7561   82.9696   88.6520 C   0  0  0  0  0  0  0  0  0  0  0  0
   69.5552   85.9942   85.3830 H   0  0  0  0  0  0  0  0  0  0  0  0
   71.6723   84.5213   88.2331 C   0  0  0  0  0  0  0  0  0  0  0  0
   72.5753   83.7105   88.5769 O   0  0  0  0  0  0  0  0  0  0  0  0
   71.9722   85.8804   88.1761 O   0  0  0  0  0  0  0  0  0  0  0  0
   71.3125   86.4956   87.9225 H   0  0  0  0  0  0  0  0  0  0  0  0
  1  2  2  0  0  0  0
  2  3  1  0  0  0  0
  3  4  2  0  0  0  0
  4  5  1  0  0  0  0
  5 22  1  0  0  0  0
  5  6  2  0  0  0  0
  6  1  1  0  0  0  0
  7  8  2  0  0  0  0
  8  9  1  0  0  0  0
  9 10  2  0  0  0  0
 10 11  1  0  0  0  0
 11  1  1  0  0  0  0
 11 12  2  0  0  0  0
 12  7  1  0  0  0  0
 13 14  2  0  0  0  0
 13 15  2  0  0  0  0
 13  7  1  0  0  0  0
 16 13  1  0  0  0  0
 17 16  1  0  0  0  0
 18 19  1  0  0  0  0
 19 20  1  0  0  0  0
 19 21  1  0  0  0  0
 19 17  1  0  0  0  0
 22 23  1  0  0  0  0
 23 24  1  0  0  0  0
 24 25  2  0  0  0  0
 25 26  1  0  0  0  0
 26 27  2  0  0  0  0
 27 28  1  0  0  0  0
 27 29  1  0  0  0  0
 28 31  1  0  0  0  0
 29 32  1  0  0  0  0
 29 30  2  0  0  0  0
 30 24  1  0  0  0  0
 32 33  2  0  0  0  0
 32 34  1  0  0  0  0
 34 35  1  0  0  0  0
M  END
>  <Activity>
91.6

>  <minimizedAffinity>
-9.00212

>  <RFScoreVS_v2>
5.97699546138

$$$$
HIPS6245
 OpenBabel05252300073D

 35 37  0  0  0  0  0  0  0  0999 V2000
   69.6947   76.8282   90.7712 C   0  0  0  0  0  0  0  0  0  0  0  0
   71.0263   77.2204   90.9927 C   0  0  0  0  0  0  0  0  0  0  0  0
   71.4523   78.5032   90.6407 C   0  0  0  0  0  0  0  0  0  0  0  0
   70.5524   79.4133   90.0822 C   0  0  0  0  0  0  0  0  0  0  0  0
   69.2189   79.0414   89.8575 C   0  0  0  0  0  0  0  0  0  0  0  0
   68.8011   77.7412   90.1840 C   0  0  0  0  0  0  0  0  0  0  0  0
   68.9641   73.8101   92.9499 C   0  0  0  0  0  0  0  0  0  0  0  0
   68.2088   73.0197   92.0752 C   0  0  0  0  0  0  0  0  0  0  0  0
   67.9669   73.4529   90.7697 C   0  0  0  0  0  0  0  0  0  0  0  0
   68.4640   74.6844   90.3348 C   0  0  0  0  0  0  0  0  0  0  0  0
   69.2197   75.4919   91.2029 C   0  0  0  0  0  0  0  0  0  0  0  0
   69.4741   75.0392   92.5094 C   0  0  0  0  0  0  0  0  0  0  0  0
   69.2005   73.2982   94.6199 S   0  0  0  0  0  0  0  0  0  0  0  0
   67.8921   73.3210   95.3623 O   0  0  0  0  0  0  0  0  0  0  0  0
   70.1381   74.2581   95.2963 O   0  0  0  0  0  0  0  0  0  0  0  0
   69.8829   71.7463   94.6610 O   0  0  0  0  0  0  0  0  0  0  0  0
   71.1636   71.7945   94.0717 C   0  0  0  0  0  0  0  0  0  0  0  0
   71.2910   69.2845   94.3829 C   0  0  0  0  0  0  0  0  0  0  0  0
   71.4960   70.4465   93.3904 C   0  0  0  0  0  0  0  0  0  0  0  0
   72.9578   70.4530   92.8992 C   0  0  0  0  0  0  0  0  0  0  0  0
   70.5588   70.2489   92.1821 C   0  0  0  0  0  0  0  0  0  0  0  0
   68.2391   80.0538   89.3267 C   0  0  0  0  0  0  0  0  0  0  0  0
   68.6422   81.3751   89.6920 O   0  0  0  0  0  0  0  0  0  0  0  0
   69.0281   82.3863   88.7951 C   0  0  0  0  0  0  0  0  0  0  0  0
   68.1179   82.7760   87.8094 C   0  0  0  0  0  0  0  0  0  0  0  0
   68.4577   83.7582   86.8790 C   0  0  0  0  0  0  0  0  0  0  0  0
   69.7163   84.3740   86.9214 C   0  0  0  0  0  0  0  0  0  0  0  0
   70.0383   85.3385   85.9662 O   0  0  0  0  0  0  0  0  0  0  0  0
   70.6448   84.0094   87.9222 C   0  0  0  0  0  0  0  0  0  0  0  0
   70.2852   83.0170   88.8554 C   0  0  0  0  0  0  0  0  0  0  0  0
   69.4142   85.5720   85.3074 H   0  0  0  0  0  0  0  0  0  0  0  0
   71.9839   84.6476   88.0124 C   0  0  0  0  0  0  0  0  0  0  0  0
   73.0005   83.9524   88.2851 O   0  0  0  0  0  0  0  0  0  0  0  0
   72.1384   86.0165   87.8062 O   0  0  0  0  0  0  0  0  0  0  0  0
   71.3932   86.5468   87.6028 H   0  0  0  0  0  0  0  0  0  0  0  0
  1  2  2  0  0  0  0
  2  3  1  0  0  0  0
  3  4  2  0  0  0  0
  4  5  1  0  0  0  0
  5 22  1  0  0  0  0
  5  6  2  0  0  0  0
  6  1  1  0  0  0  0
  7  8  2  0  0  0  0
  8  9  1  0  0  0  0
  9 10  2  0  0  0  0
 10 11  1  0  0  0  0
 11  1  1  0  0  0  0
 11 12  2  0  0  0  0
 12  7  1  0  0  0  0
 13 14  2  0  0  0  0
 13 15  2  0  0  0  0
 13  7  1  0  0  0  0
 16 13  1  0  0  0  0
 17 16  1  0  0  0  0
 18 19  1  0  0  0  0
 19 20  1  0  0  0  0
 19 21  1  0  0  0  0
 19 17  1  0  0  0  0
 22 23  1  0  0  0  0
 23 24  1  0  0  0  0
 24 25  2  0  0  0  0
 25 26  1  0  0  0  0
 26 27  2  0  0  0  0
 27 28  1  0  0  0  0
 27 29  1  0  0  0  0
 28 31  1  0  0  0  0
 29 32  1  0  0  0  0
 29 30  2  0  0  0  0
 30 24  1  0  0  0  0
 32 33  2  0  0  0  0
 32 34  1  0  0  0  0
 34 35  1  0  0  0  0
M  END
>  <Activity>
91.6

>  <minimizedAffinity>
-9.00045

>  <RFScoreVS_v2>
5.98277406909

$$$$
HIPS6245
 OpenBabel05252300073D

 35 37  0  0  0  0  0  0  0  0999 V2000
   68.3388   78.0452   89.1808 C   0  0  0  0  0  0  0  0  0  0  0  0
   67.7171   77.0388   88.4215 C   0  0  0  0  0  0  0  0  0  0  0  0
   66.8733   77.3746   87.3603 C   0  0  0  0  0  0  0  0  0  0  0  0
   66.6554   78.7147   87.0335 C   0  0  0  0  0  0  0  0  0  0  0  0
   67.2703   79.7326   87.7770 C   0  0  0  0  0  0  0  0  0  0  0  0
   68.0936   79.3926   88.8625 C   0  0  0  0  0  0  0  0  0  0  0  0
   69.7339   76.6145   92.4051 C   0  0  0  0  0  0  0  0  0  0  0  0
   71.0960   76.9074   92.2658 C   0  0  0  0  0  0  0  0  0  0  0  0
   71.5534   77.5984   91.1415 C   0  0  0  0  0  0  0  0  0  0  0  0
   70.6567   77.9868   90.1427 C   0  0  0  0  0  0  0  0  0  0  0  0
   69.2868   77.6954   90.2656 C   0  0  0  0  0  0  0  0  0  0  0  0
   68.8325   77.0160   91.4096 C   0  0  0  0  0  0  0  0  0  0  0  0
   69.1710   75.6735   93.7852 S   0  0  0  0  0  0  0  0  0  0  0  0
   67.6989   75.8959   94.0021 O   0  0  0  0  0  0  0  0  0  0  0  0
   69.8991   76.1314   95.0173 O   0  0  0  0  0  0  0  0  0  0  0  0
   69.4957   74.0276   93.5377 O   0  0  0  0  0  0  0  0  0  0  0  0
   69.7786   73.8180   92.1718 C   0  0  0  0  0  0  0  0  0  0  0  0
   67.5573   72.6533   92.5223 C   0  0  0  0  0  0  0  0  0  0  0  0
   68.7222   72.8828   91.5385 C   0  0  0  0  0  0  0  0  0  0  0  0
   69.3676   71.5290   91.1792 C   0  0  0  0  0  0  0  0  0  0  0  0
   68.1759   73.5378   90.2540 C   0  0  0  0  0  0  0  0  0  0  0  0
   67.0901   81.1705   87.3689 C   0  0  0  0  0  0  0  0  0  0  0  0
   67.6500   82.0410   88.3540 O   0  0  0  0  0  0  0  0  0  0  0  0
   68.9173   82.6448   88.2819 C   0  0  0  0  0  0  0  0  0  0  0  0
   69.1691   83.5254   87.2269 C   0  0  0  0  0  0  0  0  0  0  0  0
   70.4171   84.1343   87.0940 C   0  0  0  0  0  0  0  0  0  0  0  0
   71.4373   83.8764   88.0202 C   0  0  0  0  0  0  0  0  0  0  0  0
   72.6826   84.4823   87.8521 O   0  0  0  0  0  0  0  0  0  0  0  0
   71.1980   83.0045   89.1061 C   0  0  0  0  0  0  0  0  0  0  0  0
   69.9314   82.3993   89.2269 C   0  0  0  0  0  0  0  0  0  0  0  0
   72.8293   85.0586   87.1281 H   0  0  0  0  0  0  0  0  0  0  0  0
   72.2465   82.7154   90.1188 C   0  0  0  0  0  0  0  0  0  0  0  0
   71.9283   82.2400   91.2430 O   0  0  0  0  0  0  0  0  0  0  0  0
   73.5895   82.9693   89.8495 O   0  0  0  0  0  0  0  0  0  0  0  0
   73.8422   83.3224   89.0192 H   0  0  0  0  0  0  0  0  0  0  0  0
  1  2  2  0  0  0  0
  2  3  1  0  0  0  0
  3  4  2  0  0  0  0
  4  5  1  0  0  0  0
  5 22  1  0  0  0  0
  5  6  2  0  0  0  0
  6  1  1  0  0  0  0
  7  8  2  0  0  0  0
  8  9  1  0  0  0  0
  9 10  2  0  0  0  0
 10 11  1  0  0  0  0
 11  1  1  0  0  0  0
 11 12  2  0  0  0  0
 12  7  1  0  0  0  0
 13 14  2  0  0  0  0
 13 15  2  0  0  0  0
 13  7  1  0  0  0  0
 16 13  1  0  0  0  0
 17 16  1  0  0  0  0
 18 19  1  0  0  0  0
 19 20  1  0  0  0  0
 19 21  1  0  0  0  0
 19 17  1  0  0  0  0
 22 23  1  0  0  0  0
 23 24  1  0  0  0  0
 24 25  2  0  0  0  0
 25 26  1  0  0  0  0
 26 27  2  0  0  0  0
 27 28  1  0  0  0  0
 27 29  1  0  0  0  0
 28 31  1  0  0  0  0
 29 32  1  0  0  0  0
 29 30  2  0  0  0  0
 30 24  1  0  0  0  0
 32 33  2  0  0  0  0
 32 34  1  0  0  0  0
 34 35  1  0  0  0  0
M  END
>  <Activity>
91.6

>  <minimizedAffinity>
-8.92612

>  <RFScoreVS_v2>
5.98296551532

$$$$
HIPS6245
 OpenBabel05252300073D

 35 37  0  0  0  0  0  0  0  0999 V2000
   69.4467   78.4653   90.3109 C   0  0  0  0  0  0  0  0  0  0  0  0
   70.8400   78.4707   90.1241 C   0  0  0  0  0  0  0  0  0  0  0  0
   71.6498   77.5749   90.8259 C   0  0  0  0  0  0  0  0  0  0  0  0
   71.0787   76.6532   91.7059 C   0  0  0  0  0  0  0  0  0  0  0  0
   69.6902   76.6301   91.9022 C   0  0  0  0  0  0  0  0  0  0  0  0
   68.8816   77.5523   91.2185 C   0  0  0  0  0  0  0  0  0  0  0  0
   67.8407   81.6229   88.9546 C   0  0  0  0  0  0  0  0  0  0  0  0
   67.0309   81.1013   87.9384 C   0  0  0  0  0  0  0  0  0  0  0  0
   66.9826   79.7230   87.7179 C   0  0  0  0  0  0  0  0  0  0  0  0
   67.7538   78.8591   88.4998 C   0  0  0  0  0  0  0  0  0  0  0  0
   68.5758   79.3679   89.5207 C   0  0  0  0  0  0  0  0  0  0  0  0
   68.6040   80.7551   89.7478 C   0  0  0  0  0  0  0  0  0  0  0  0
   67.9608   83.3671   89.1786 S   0  0  0  0  0  0  0  0  0  0  0  0
   66.9583   83.8319   90.1996 O   0  0  0  0  0  0  0  0  0  0  0  0
   67.6510   84.0487   87.8757 O   0  0  0  0  0  0  0  0  0  0  0  0
   69.5341   83.7849   89.6540 O   0  0  0  0  0  0  0  0  0  0  0  0
   69.9825   84.8586   88.8566 C   0  0  0  0  0  0  0  0  0  0  0  0
   71.0204   83.8127   86.7969 C   0  0  0  0  0  0  0  0  0  0  0  0
   71.3088   84.4908   88.1513 C   0  0  0  0  0  0  0  0  0  0  0  0
   72.1293   83.5356   89.0416 C   0  0  0  0  0  0  0  0  0  0  0  0
   72.1228   85.7775   87.9079 C   0  0  0  0  0  0  0  0  0  0  0  0
   69.0779   75.5828   92.7938 C   0  0  0  0  0  0  0  0  0  0  0  0
   70.0653   74.6301   93.1926 O   0  0  0  0  0  0  0  0  0  0  0  0
   70.0279   73.2528   92.9141 C   0  0  0  0  0  0  0  0  0  0  0  0
   69.5161   72.8432   91.6802 C   0  0  0  0  0  0  0  0  0  0  0  0
   69.4340   71.4877   91.3614 C   0  0  0  0  0  0  0  0  0  0  0  0
   69.8688   70.5146   92.2719 C   0  0  0  0  0  0  0  0  0  0  0  0
   69.7562   69.1651   91.9363 O   0  0  0  0  0  0  0  0  0  0  0  0
   70.4083   70.9073   93.5175 C   0  0  0  0  0  0  0  0  0  0  0  0
   70.4859   72.2805   93.8232 C   0  0  0  0  0  0  0  0  0  0  0  0
   69.3968   68.9169   91.1074 H   0  0  0  0  0  0  0  0  0  0  0  0
   70.8946   69.9093   94.5054 C   0  0  0  0  0  0  0  0  0  0  0  0
   70.6968   70.0891   95.7381 O   0  0  0  0  0  0  0  0  0  0  0  0
   71.5792   68.7689   94.0914 O   0  0  0  0  0  0  0  0  0  0  0  0
   71.7342   68.6208   93.1793 H   0  0  0  0  0  0  0  0  0  0  0  0
  1  2  2  0  0  0  0
  2  3  1  0  0  0  0
  3  4  2  0  0  0  0
  4  5  1  0  0  0  0
  5 22  1  0  0  0  0
  5  6  2  0  0  0  0
  6  1  1  0  0  0  0
  7  8  2  0  0  0  0
  8  9  1  0  0  0  0
  9 10  2  0  0  0  0
 10 11  1  0  0  0  0
 11  1  1  0  0  0  0
 11 12  2  0  0  0  0
 12  7  1  0  0  0  0
 13 14  2  0  0  0  0
 13 15  2  0  0  0  0
 13  7  1  0  0  0  0
 16 13  1  0  0  0  0
 17 16  1  0  0  0  0
 18 19  1  0  0  0  0
 19 20  1  0  0  0  0
 19 21  1  0  0  0  0
 19 17  1  0  0  0  0
 22 23  1  0  0  0  0
 23 24  1  0  0  0  0
 24 25  2  0  0  0  0
 25 26  1  0  0  0  0
 26 27  2  0  0  0  0
 27 28  1  0  0  0  0
 27 29  1  0  0  0  0
 28 31  1  0  0  0  0
 29 32  1  0  0  0  0
 29 30  2  0  0  0  0
 30 24  1  0  0  0  0
 32 33  2  0  0  0  0
 32 34  1  0  0  0  0
 34 35  1  0  0  0  0
M  END
>  <Activity>
91.6

>  <minimizedAffinity>
-8.85089

>  <RFScoreVS_v2>
5.96390823594

$$$$
HIPS6245
 OpenBabel05252300073D

 35 37  0  0  0  0  0  0  0  0999 V2000
   70.6314   80.3143   90.1267 C   0  0  0  0  0  0  0  0  0  0  0  0
   69.2259   80.3308   90.1136 C   0  0  0  0  0  0  0  0  0  0  0  0
   68.5031   79.1907   90.4722 C   0  0  0  0  0  0  0  0  0  0  0  0
   69.1724   78.0297   90.8649 C   0  0  0  0  0  0  0  0  0  0  0  0
   70.5743   77.9956   90.8881 C   0  0  0  0  0  0  0  0  0  0  0  0
   71.2985   79.1335   90.4976 C   0  0  0  0  0  0  0  0  0  0  0  0
   71.4942   83.7906   88.8776 C   0  0  0  0  0  0  0  0  0  0  0  0
   72.8142   83.9210   89.3260 C   0  0  0  0  0  0  0  0  0  0  0  0
   73.4322   82.8674   90.0033 C   0  0  0  0  0  0  0  0  0  0  0  0
   72.7313   81.6841   90.2506 C   0  0  0  0  0  0  0  0  0  0  0  0
   71.4036   81.5399   89.8112 C   0  0  0  0  0  0  0  0  0  0  0  0
   70.7957   82.5985   89.1138 C   0  0  0  0  0  0  0  0  0  0  0  0
   70.6908   85.1498   88.0939 S   0  0  0  0  0  0  0  0  0  0  0  0
   71.7050   86.0477   87.4391 O   0  0  0  0  0  0  0  0  0  0  0  0
   69.9606   85.9509   89.1346 O   0  0  0  0  0  0  0  0  0  0  0  0
   69.5706   84.5838   86.9536 O   0  0  0  0  0  0  0  0  0  0  0  0
   69.2338   83.2503   87.2668 C   0  0  0  0  0  0  0  0  0  0  0  0
   67.2175   81.7180   87.2591 C   0  0  0  0  0  0  0  0  0  0  0  0
   67.7258   83.1355   87.5902 C   0  0  0  0  0  0  0  0  0  0  0  0
   66.9326   84.1723   86.7693 C   0  0  0  0  0  0  0  0  0  0  0  0
   67.5111   83.4103   89.0922 C   0  0  0  0  0  0  0  0  0  0  0  0
   71.2847   76.7652   91.3861 C   0  0  0  0  0  0  0  0  0  0  0  0
   70.6126   76.2310   92.5284 O   0  0  0  0  0  0  0  0  0  0  0  0
   69.6476   75.2092   92.5019 C   0  0  0  0  0  0  0  0  0  0  0  0
   69.5715   74.4035   91.3630 C   0  0  0  0  0  0  0  0  0  0  0  0
   68.6171   73.3901   91.2740 C   0  0  0  0  0  0  0  0  0  0  0  0
   67.7223   73.1602   92.3283 C   0  0  0  0  0  0  0  0  0  0  0  0
   66.7640   72.1538   92.2049 O   0  0  0  0  0  0  0  0  0  0  0  0
   67.7947   73.9502   93.4977 C   0  0  0  0  0  0  0  0  0  0  0  0
   68.7657   74.9684   93.5723 C   0  0  0  0  0  0  0  0  0  0  0  0
   66.7258   71.6365   91.4246 H   0  0  0  0  0  0  0  0  0  0  0  0
   66.8755   73.7303   94.6445 C   0  0  0  0  0  0  0  0  0  0  0  0
   67.3396   73.4679   95.7877 O   0  0  0  0  0  0  0  0  0  0  0  0
   65.4944   73.8022   94.4776 O   0  0  0  0  0  0  0  0  0  0  0  0
   65.1339   73.9961   93.6347 H   0  0  0  0  0  0  0  0  0  0  0  0
  1  2  2  0  0  0  0
  2  3  1  0  0  0  0
  3  4  2  0  0  0  0
  4  5  1  0  0  0  0
  5 22  1  0  0  0  0
  5  6  2  0  0  0  0
  6  1  1  0  0  0  0
  7  8  2  0  0  0  0
  8  9  1  0  0  0  0
  9 10  2  0  0  0  0
 10 11  1  0  0  0  0
 11  1  1  0  0  0  0
 11 12  2  0  0  0  0
 12  7  1  0  0  0  0
 13 14  2  0  0  0  0
 13 15  2  0  0  0  0
 13  7  1  0  0  0  0
 16 13  1  0  0  0  0
 17 16  1  0  0  0  0
 18 19  1  0  0  0  0
 19 20  1  0  0  0  0
 19 21  1  0  0  0  0
 19 17  1  0  0  0  0
 22 23  1  0  0  0  0
 23 24  1  0  0  0  0
 24 25  2  0  0  0  0
 25 26  1  0  0  0  0
 26 27  2  0  0  0  0
 27 28  1  0  0  0  0
 27 29  1  0  0  0  0
 28 31  1  0  0  0  0
 29 32  1  0  0  0  0
 29 30  2  0  0  0  0
 30 24  1  0  0  0  0
 32 33  2  0  0  0  0
 32 34  1  0  0  0  0
 34 35  1  0  0  0  0
M  END
>  <Activity>
91.6

>  <minimizedAffinity>
-8.74873

>  <RFScoreVS_v2>
5.99058287159

$$$$
HIPS6245
 OpenBabel05252300073D

 35 37  0  0  0  0  0  0  0  0999 V2000
   67.5768   78.2495   91.8457 C   0  0  0  0  0  0  0  0  0  0  0  0
   66.9045   78.6116   93.0259 C   0  0  0  0  0  0  0  0  0  0  0  0
   66.4268   79.9132   93.1953 C   0  0  0  0  0  0  0  0  0  0  0  0
   66.5976   80.8610   92.1840 C   0  0  0  0  0  0  0  0  0  0  0  0
   67.2622   80.5171   90.9978 C   0  0  0  0  0  0  0  0  0  0  0  0
   67.7683   79.2164   90.8431 C   0  0  0  0  0  0  0  0  0  0  0  0
   68.8834   74.7551   92.5317 C   0  0  0  0  0  0  0  0  0  0  0  0
   68.7583   74.1649   91.2682 C   0  0  0  0  0  0  0  0  0  0  0  0
   68.2817   74.9124   90.1890 C   0  0  0  0  0  0  0  0  0  0  0  0
   67.9126   76.2482   90.3682 C   0  0  0  0  0  0  0  0  0  0  0  0
   68.0276   76.8535   91.6319 C   0  0  0  0  0  0  0  0  0  0  0  0
   68.5259   76.0989   92.7084 C   0  0  0  0  0  0  0  0  0  0  0  0
   69.4095   73.7881   93.9084 S   0  0  0  0  0  0  0  0  0  0  0  0
   68.2725   72.9447   94.4179 O   0  0  0  0  0  0  0  0  0  0  0  0
   69.8404   74.7089   95.0150 O   0  0  0  0  0  0  0  0  0  0  0  0
   70.7239   72.8127   93.4651 O   0  0  0  0  0  0  0  0  0  0  0  0
   70.7688   71.6907   94.3189 C   0  0  0  0  0  0  0  0  0  0  0  0
   69.9235   70.3266   92.3597 C   0  0  0  0  0  0  0  0  0  0  0  0
   70.9615   70.3943   93.4978 C   0  0  0  0  0  0  0  0  0  0  0  0
   70.8026   69.1642   94.4142 C   0  0  0  0  0  0  0  0  0  0  0  0
   72.3782   70.3903   92.8893 C   0  0  0  0  0  0  0  0  0  0  0  0
   67.3733   81.5234   89.8836 C   0  0  0  0  0  0  0  0  0  0  0  0
   68.5331   81.2619   89.0910 O   0  0  0  0  0  0  0  0  0  0  0  0
   69.6836   82.0678   89.0399 C   0  0  0  0  0  0  0  0  0  0  0  0
   70.7647   81.7262   89.8563 C   0  0  0  0  0  0  0  0  0  0  0  0
   71.9222   82.5048   89.8626 C   0  0  0  0  0  0  0  0  0  0  0  0
   72.0213   83.6396   89.0456 C   0  0  0  0  0  0  0  0  0  0  0  0
   73.1821   84.4125   89.0867 O   0  0  0  0  0  0  0  0  0  0  0  0
   70.9476   83.9920   88.1973 C   0  0  0  0  0  0  0  0  0  0  0  0
   69.7865   83.1940   88.2016 C   0  0  0  0  0  0  0  0  0  0  0  0
   73.8874   84.1687   89.6532 H   0  0  0  0  0  0  0  0  0  0  0  0
   71.0170   85.1780   87.3046 C   0  0  0  0  0  0  0  0  0  0  0  0
   71.7003   86.1842   87.6390 O   0  0  0  0  0  0  0  0  0  0  0  0
   70.3277   85.2028   86.0943 O   0  0  0  0  0  0  0  0  0  0  0  0
   69.8156   84.4634   85.8315 H   0  0  0  0  0  0  0  0  0  0  0  0
  1  2  2  0  0  0  0
  2  3  1  0  0  0  0
  3  4  2  0  0  0  0
  4  5  1  0  0  0  0
  5 22  1  0  0  0  0
  5  6  2  0  0  0  0
  6  1  1  0  0  0  0
  7  8  2  0  0  0  0
  8  9  1  0  0  0  0
  9 10  2  0  0  0  0
 10 11  1  0  0  0  0
 11  1  1  0  0  0  0
 11 12  2  0  0  0  0
 12  7  1  0  0  0  0
 13 14  2  0  0  0  0
 13 15  2  0  0  0  0
 13  7  1  0  0  0  0
 16 13  1  0  0  0  0
 17 16  1  0  0  0  0
 18 19  1  0  0  0  0
 19 20  1  0  0  0  0
 19 21  1  0  0  0  0
 19 17  1  0  0  0  0
 22 23  1  0  0  0  0
 23 24  1  0  0  0  0
 24 25  2  0  0  0  0
 25 26  1  0  0  0  0
 26 27  2  0  0  0  0
 27 28  1  0  0  0  0
 27 29  1  0  0  0  0
 28 31  1  0  0  0  0
 29 32  1  0  0  0  0
 29 30  2  0  0  0  0
 30 24  1  0  0  0  0
 32 33  2  0  0  0  0
 32 34  1  0  0  0  0
 34 35  1  0  0  0  0
M  END
>  <Activity>
91.6

>  <minimizedAffinity>
-8.64621

>  <RFScoreVS_v2>
5.9928570508

$$$$
HIPS6245
 OpenBabel05252300073D

 35 37  0  0  0  0  0  0  0  0999 V2000
   67.2126   78.3835   89.8301 C   0  0  0  0  0  0  0  0  0  0  0  0
   66.5347   79.0250   90.8813 C   0  0  0  0  0  0  0  0  0  0  0  0
   66.1325   80.3564   90.7534 C   0  0  0  0  0  0  0  0  0  0  0  0
   66.3848   81.0558   89.5713 C   0  0  0  0  0  0  0  0  0  0  0  0
   67.0563   80.4311   88.5101 C   0  0  0  0  0  0  0  0  0  0  0  0
   67.4867   79.1022   88.6532 C   0  0  0  0  0  0  0  0  0  0  0  0
   68.7060   75.1478   91.1299 C   0  0  0  0  0  0  0  0  0  0  0  0
   68.1833   74.2218   90.2190 C   0  0  0  0  0  0  0  0  0  0  0  0
   67.3747   74.6540   89.1655 C   0  0  0  0  0  0  0  0  0  0  0  0
   67.0705   76.0105   89.0242 C   0  0  0  0  0  0  0  0  0  0  0  0
   67.5835   76.9519   89.9337 C   0  0  0  0  0  0  0  0  0  0  0  0
   68.4119   76.5102   90.9802 C   0  0  0  0  0  0  0  0  0  0  0  0
   69.6602   74.5914   92.5035 S   0  0  0  0  0  0  0  0  0  0  0  0
   70.4976   75.7171   93.0468 O   0  0  0  0  0  0  0  0  0  0  0  0
   70.5857   73.5002   92.0446 O   0  0  0  0  0  0  0  0  0  0  0  0
   68.6391   73.9724   93.7077 O   0  0  0  0  0  0  0  0  0  0  0  0
   68.1559   75.0414   94.4910 C   0  0  0  0  0  0  0  0  0  0  0  0
   66.0124   76.2131   93.8233 C   0  0  0  0  0  0  0  0  0  0  0  0
   66.6117   75.0018   94.5655 C   0  0  0  0  0  0  0  0  0  0  0  0
   66.1566   75.0233   96.0388 C   0  0  0  0  0  0  0  0  0  0  0  0
   66.1092   73.7042   93.9013 C   0  0  0  0  0  0  0  0  0  0  0  0
   67.2552   81.1688   87.2129 C   0  0  0  0  0  0  0  0  0  0  0  0
   67.3126   82.5775   87.4455 O   0  0  0  0  0  0  0  0  0  0  0  0
   68.4878   83.3466   87.5024 C   0  0  0  0  0  0  0  0  0  0  0  0
   68.5387   84.5289   86.7597 C   0  0  0  0  0  0  0  0  0  0  0  0
   69.6888   85.3182   86.7614 C   0  0  0  0  0  0  0  0  0  0  0  0
   70.8104   84.9406   87.5127 C   0  0  0  0  0  0  0  0  0  0  0  0
   71.9551   85.7374   87.4802 O   0  0  0  0  0  0  0  0  0  0  0  0
   70.7735   83.7591   88.2869 C   0  0  0  0  0  0  0  0  0  0  0  0
   69.6035   82.9742   88.2757 C   0  0  0  0  0  0  0  0  0  0  0  0
   71.9676   86.5186   86.9630 H   0  0  0  0  0  0  0  0  0  0  0  0
   71.9345   83.3301   89.1094 C   0  0  0  0  0  0  0  0  0  0  0  0
   71.8951   82.2393   89.7415 O   0  0  0  0  0  0  0  0  0  0  0  0
   73.0762   84.1228   89.2026 O   0  0  0  0  0  0  0  0  0  0  0  0
   73.1211   84.9359   88.7391 H   0  0  0  0  0  0  0  0  0  0  0  0
  1  2  2  0  0  0  0
  2  3  1  0  0  0  0
  3  4  2  0  0  0  0
  4  5  1  0  0  0  0
  5 22  1  0  0  0  0
  5  6  2  0  0  0  0
  6  1  1  0  0  0  0
  7  8  2  0  0  0  0
  8  9  1  0  0  0  0
  9 10  2  0  0  0  0
 10 11  1  0  0  0  0
 11  1  1  0  0  0  0
 11 12  2  0  0  0  0
 12  7  1  0  0  0  0
 13 14  2  0  0  0  0
 13 15  2  0  0  0  0
 13  7  1  0  0  0  0
 16 13  1  0  0  0  0
 17 16  1  0  0  0  0
 18 19  1  0  0  0  0
 19 20  1  0  0  0  0
 19 21  1  0  0  0  0
 19 17  1  0  0  0  0
 22 23  1  0  0  0  0
 23 24  1  0  0  0  0
 24 25  2  0  0  0  0
 25 26  1  0  0  0  0
 26 27  2  0  0  0  0
 27 28  1  0  0  0  0
 27 29  1  0  0  0  0
 28 31  1  0  0  0  0
 29 32  1  0  0  0  0
 29 30  2  0  0  0  0
 30 24  1  0  0  0  0
 32 33  2  0  0  0  0
 32 34  1  0  0  0  0
 34 35  1  0  0  0  0
M  END
>  <Activity>
91.6

>  <minimizedAffinity>
-8.64222

>  <RFScoreVS_v2>
6.05835319974

$$$$
HIPS6247
 OpenBabel05252300073D

 35 37  0  0  0  0  0  0  0  0999 V2000
   67.5989   76.6744   89.0278 C   0  0  0  0  0  0  0  0  0  0  0  0
   67.1014   76.8280   87.7210 C   0  0  0  0  0  0  0  0  0  0  0  0
   66.9361   78.1016   87.1720 C   0  0  0  0  0  0  0  0  0  0  0  0
   67.2681   79.2356   87.9153 C   0  0  0  0  0  0  0  0  0  0  0  0
   67.7808   79.1034   89.2138 C   0  0  0  0  0  0  0  0  0  0  0  0
   67.9302   77.8230   89.7707 C   0  0  0  0  0  0  0  0  0  0  0  0
   68.6525   73.8704   91.3652 C   0  0  0  0  0  0  0  0  0  0  0  0
   68.0941   72.7572   90.7231 C   0  0  0  0  0  0  0  0  0  0  0  0
   67.3792   72.9204   89.5352 C   0  0  0  0  0  0  0  0  0  0  0  0
   67.2162   74.1929   88.9819 C   0  0  0  0  0  0  0  0  0  0  0  0
   67.7658   75.3216   89.6166 C   0  0  0  0  0  0  0  0  0  0  0  0
   68.4812   75.1478   90.8154 C   0  0  0  0  0  0  0  0  0  0  0  0
   69.5795   73.6813   92.8499 S   0  0  0  0  0  0  0  0  0  0  0  0
   70.6119   72.6178   92.6026 O   0  0  0  0  0  0  0  0  0  0  0  0
   70.3069   74.9548   93.1823 O   0  0  0  0  0  0  0  0  0  0  0  0
   68.5917   73.1781   94.2038 N   0  0  0  0  0  0  0  0  0  0  0  0
   68.1919   72.2691   93.9703 H   0  0  0  0  0  0  0  0  0  0  0  0
   67.8364   75.5675   94.4912 C   0  0  0  0  0  0  0  0  0  0  0  0
   67.4707   74.0708   94.5984 C   0  0  0  0  0  0  0  0  0  0  0  0
   67.1286   73.7650   96.0737 C   0  0  0  0  0  0  0  0  0  0  0  0
   66.2103   73.7722   93.7598 C   0  0  0  0  0  0  0  0  0  0  0  0
   68.0951   80.3242   90.0278 C   0  0  0  0  0  0  0  0  0  0  0  0
   68.3186   81.4253   89.1518 O   0  0  0  0  0  0  0  0  0  0  0  0
   69.5114   82.1608   89.0865 C   0  0  0  0  0  0  0  0  0  0  0  0
   70.5501   81.8136   89.9527 C   0  0  0  0  0  0  0  0  0  0  0  0
   71.7604   82.5060   89.9204 C   0  0  0  0  0  0  0  0  0  0  0  0
   71.9572   83.5575   89.0192 C   0  0  0  0  0  0  0  0  0  0  0  0
   73.2184   84.1557   88.9829 O   0  0  0  0  0  0  0  0  0  0  0  0
   70.9012   83.9516   88.1615 C   0  0  0  0  0  0  0  0  0  0  0  0
   69.6922   83.2312   88.1908 C   0  0  0  0  0  0  0  0  0  0  0  0
   73.8912   83.8663   89.5674 H   0  0  0  0  0  0  0  0  0  0  0  0
   71.0087   85.1207   87.2612 C   0  0  0  0  0  0  0  0  0  0  0  0
   71.8247   86.0455   87.5232 O   0  0  0  0  0  0  0  0  0  0  0  0
   70.2595   85.1841   86.0899 O   0  0  0  0  0  0  0  0  0  0  0  0
   69.6503   84.5020   85.8859 H   0  0  0  0  0  0  0  0  0  0  0  0
  1  2  2  0  0  0  0
  2  3  1  0  0  0  0
  3  4  2  0  0  0  0
  4  5  1  0  0  0  0
  5 22  1  0  0  0  0
  5  6  2  0  0  0  0
  6  1  1  0  0  0  0
  7  8  2  0  0  0  0
  8  9  1  0  0  0  0
  9 10  2  0  0  0  0
 10 11  1  0  0  0  0
 11  1  1  0  0  0  0
 11 12  2  0  0  0  0
 12  7  1  0  0  0  0
 13 14  2  0  0  0  0
 13 15  2  0  0  0  0
 13  7  1  0  0  0  0
 16 13  1  0  0  0  0
 16 17  1  0  0  0  0
 18 19  1  0  0  0  0
 19 20  1  0  0  0  0
 19 21  1  0  0  0  0
 19 16  1  0  0  0  0
 22 23  1  0  0  0  0
 23 24  1  0  0  0  0
 24 25  2  0  0  0  0
 25 26  1  0  0  0  0
 26 27  2  0  0  0  0
 27 28  1  0  0  0  0
 27 29  1  0  0  0  0
 28 31  1  0  0  0  0
 29 32  1  0  0  0  0
 29 30  2  0  0  0  0
 30 24  1  0  0  0  0
 32 33  2  0  0  0  0
 32 34  1  0  0  0  0
 34 35  1  0  0  0  0
M  END
>  <Activity>
95.2

>  <minimizedAffinity>
-9.64628

>  <RFScoreVS_v2>
5.95508660709

$$$$
HIPS6247
 OpenBabel05252300073D

 35 37  0  0  0  0  0  0  0  0999 V2000
   67.6106   76.5586   88.9426 C   0  0  0  0  0  0  0  0  0  0  0  0
   66.9143   76.6877   87.7272 C   0  0  0  0  0  0  0  0  0  0  0  0
   66.7535   77.9418   87.1336 C   0  0  0  0  0  0  0  0  0  0  0  0
   67.2874   79.0800   87.7405 C   0  0  0  0  0  0  0  0  0  0  0  0
   67.9989   78.9704   88.9439 C   0  0  0  0  0  0  0  0  0  0  0  0
   68.1448   77.7113   89.5482 C   0  0  0  0  0  0  0  0  0  0  0  0
   68.6595   73.8376   91.3781 C   0  0  0  0  0  0  0  0  0  0  0  0
   68.0951   72.7040   90.7786 C   0  0  0  0  0  0  0  0  0  0  0  0
   67.3776   72.8265   89.5873 C   0  0  0  0  0  0  0  0  0  0  0  0
   67.2181   74.0786   88.9883 C   0  0  0  0  0  0  0  0  0  0  0  0
   67.7738   75.2276   89.5799 C   0  0  0  0  0  0  0  0  0  0  0  0
   68.4918   75.0948   90.7825 C   0  0  0  0  0  0  0  0  0  0  0  0
   69.5898   73.6992   92.8664 S   0  0  0  0  0  0  0  0  0  0  0  0
   70.6453   72.6536   92.6408 O   0  0  0  0  0  0  0  0  0  0  0  0
   70.2890   74.9948   93.1727 O   0  0  0  0  0  0  0  0  0  0  0  0
   68.6126   73.2022   94.2303 N   0  0  0  0  0  0  0  0  0  0  0  0
   68.2257   72.2841   94.0116 H   0  0  0  0  0  0  0  0  0  0  0  0
   67.8205   75.5843   94.4755 C   0  0  0  0  0  0  0  0  0  0  0  0
   67.4797   74.0844   94.6142 C   0  0  0  0  0  0  0  0  0  0  0  0
   67.1512   73.8021   96.0973 C   0  0  0  0  0  0  0  0  0  0  0  0
   66.2195   73.7491   93.7893 C   0  0  0  0  0  0  0  0  0  0  0  0
   68.5335   80.2000   89.6178 C   0  0  0  0  0  0  0  0  0  0  0  0
   67.8329   81.3414   89.1320 O   0  0  0  0  0  0  0  0  0  0  0  0
   68.4238   82.3917   88.4139 C   0  0  0  0  0  0  0  0  0  0  0  0
   67.6905   82.9818   87.3826 C   0  0  0  0  0  0  0  0  0  0  0  0
   68.2279   84.0369   86.6455 C   0  0  0  0  0  0  0  0  0  0  0  0
   69.5082   84.5249   86.9272 C   0  0  0  0  0  0  0  0  0  0  0  0
   69.9545   85.6344   86.2062 O   0  0  0  0  0  0  0  0  0  0  0  0
   70.2836   83.9124   87.9418 C   0  0  0  0  0  0  0  0  0  0  0  0
   69.7212   82.8616   88.6909 C   0  0  0  0  0  0  0  0  0  0  0  0
   69.4113   86.0111   85.5422 H   0  0  0  0  0  0  0  0  0  0  0  0
   71.6814   84.3112   88.2176 C   0  0  0  0  0  0  0  0  0  0  0  0
   72.4382   83.5448   88.8730 O   0  0  0  0  0  0  0  0  0  0  0  0
   72.1922   85.5014   87.7079 O   0  0  0  0  0  0  0  0  0  0  0  0
   71.6381   86.0779   87.2195 H   0  0  0  0  0  0  0  0  0  0  0  0
  1  2  2  0  0  0  0
  2  3  1  0  0  0  0
  3  4  2  0  0  0  0
  4  5  1  0  0  0  0
  5 22  1  0  0  0  0
  5  6  2  0  0  0  0
  6  1  1  0  0  0  0
  7  8  2  0  0  0  0
  8  9  1  0  0  0  0
  9 10  2  0  0  0  0
 10 11  1  0  0  0  0
 11  1  1  0  0  0  0
 11 12  2  0  0  0  0
 12  7  1  0  0  0  0
 13 14  2  0  0  0  0
 13 15  2  0  0  0  0
 13  7  1  0  0  0  0
 16 13  1  0  0  0  0
 16 17  1  0  0  0  0
 18 19  1  0  0  0  0
 19 20  1  0  0  0  0
 19 21  1  0  0  0  0
 19 16  1  0  0  0  0
 22 23  1  0  0  0  0
 23 24  1  0  0  0  0
 24 25  2  0  0  0  0
 25 26  1  0  0  0  0
 26 27  2  0  0  0  0
 27 28  1  0  0  0  0
 27 29  1  0  0  0  0
 28 31  1  0  0  0  0
 29 32  1  0  0  0  0
 29 30  2  0  0  0  0
 30 24  1  0  0  0  0
 32 33  2  0  0  0  0
 32 34  1  0  0  0  0
 34 35  1  0  0  0  0
M  END
>  <Activity>
95.2

>  <minimizedAffinity>
-9.55398

>  <RFScoreVS_v2>
5.99254663451

$$$$
HIPS6247
 OpenBabel05252300073D

 35 37  0  0  0  0  0  0  0  0999 V2000
   69.4107   77.4793   90.3513 C   0  0  0  0  0  0  0  0  0  0  0  0
   70.7971   77.7084   90.4138 C   0  0  0  0  0  0  0  0  0  0  0  0
   71.3056   79.0048   90.3061 C   0  0  0  0  0  0  0  0  0  0  0  0
   70.4401   80.0873   90.1395 C   0  0  0  0  0  0  0  0  0  0  0  0
   69.0538   79.8818   90.0911 C   0  0  0  0  0  0  0  0  0  0  0  0
   68.5452   78.5762   90.1822 C   0  0  0  0  0  0  0  0  0  0  0  0
   68.7114   73.9738   91.6395 C   0  0  0  0  0  0  0  0  0  0  0  0
   67.8548   73.4846   90.6446 C   0  0  0  0  0  0  0  0  0  0  0  0
   67.5081   74.2928   89.5604 C   0  0  0  0  0  0  0  0  0  0  0  0
   68.0122   75.5922   89.4626 C   0  0  0  0  0  0  0  0  0  0  0  0
   68.8691   76.1007   90.4556 C   0  0  0  0  0  0  0  0  0  0  0  0
   69.2097   75.2802   91.5465 C   0  0  0  0  0  0  0  0  0  0  0  0
   69.1807   72.9606   93.0006 S   0  0  0  0  0  0  0  0  0  0  0  0
   69.4235   71.5767   92.4677 O   0  0  0  0  0  0  0  0  0  0  0  0
   70.4690   73.4504   93.6022 O   0  0  0  0  0  0  0  0  0  0  0  0
   67.9386   72.8617   94.2292 N   0  0  0  0  0  0  0  0  0  0  0  0
   67.1208   72.4251   93.8037 H   0  0  0  0  0  0  0  0  0  0  0  0
   66.8119   73.9230   96.2207 C   0  0  0  0  0  0  0  0  0  0  0  0
   67.4920   74.1359   94.8506 C   0  0  0  0  0  0  0  0  0  0  0  0
   66.4612   74.7825   93.8985 C   0  0  0  0  0  0  0  0  0  0  0  0
   68.6720   75.1202   94.9922 C   0  0  0  0  0  0  0  0  0  0  0  0
   68.1276   81.0411   89.8673 C   0  0  0  0  0  0  0  0  0  0  0  0
   68.2116   81.4503   88.5052 O   0  0  0  0  0  0  0  0  0  0  0  0
   68.6285   82.7206   88.0802 C   0  0  0  0  0  0  0  0  0  0  0  0
   67.6941   83.5470   87.4528 C   0  0  0  0  0  0  0  0  0  0  0  0
   68.0546   84.8235   87.0215 C   0  0  0  0  0  0  0  0  0  0  0  0
   69.3559   85.3000   87.2117 C   0  0  0  0  0  0  0  0  0  0  0  0
   69.6294   86.6150   86.8297 O   0  0  0  0  0  0  0  0  0  0  0  0
   70.3286   84.4612   87.8086 C   0  0  0  0  0  0  0  0  0  0  0  0
   69.9459   83.1829   88.2570 C   0  0  0  0  0  0  0  0  0  0  0  0
   68.9582   87.1382   86.4376 H   0  0  0  0  0  0  0  0  0  0  0  0
   71.7456   84.8652   87.9426 C   0  0  0  0  0  0  0  0  0  0  0  0
   72.6124   84.0186   88.2913 O   0  0  0  0  0  0  0  0  0  0  0  0
   72.1456   86.1607   87.6279 O   0  0  0  0  0  0  0  0  0  0  0  0
   71.5093   86.7973   87.3676 H   0  0  0  0  0  0  0  0  0  0  0  0
  1  2  2  0  0  0  0
  2  3  1  0  0  0  0
  3  4  2  0  0  0  0
  4  5  1  0  0  0  0
  5 22  1  0  0  0  0
  5  6  2  0  0  0  0
  6  1  1  0  0  0  0
  7  8  2  0  0  0  0
  8  9  1  0  0  0  0
  9 10  2  0  0  0  0
 10 11  1  0  0  0  0
 11  1  1  0  0  0  0
 11 12  2  0  0  0  0
 12  7  1  0  0  0  0
 13 14  2  0  0  0  0
 13 15  2  0  0  0  0
 13  7  1  0  0  0  0
 16 13  1  0  0  0  0
 16 17  1  0  0  0  0
 18 19  1  0  0  0  0
 19 20  1  0  0  0  0
 19 21  1  0  0  0  0
 19 16  1  0  0  0  0
 22 23  1  0  0  0  0
 23 24  1  0  0  0  0
 24 25  2  0  0  0  0
 25 26  1  0  0  0  0
 26 27  2  0  0  0  0
 27 28  1  0  0  0  0
 27 29  1  0  0  0  0
 28 31  1  0  0  0  0
 29 32  1  0  0  0  0
 29 30  2  0  0  0  0
 30 24  1  0  0  0  0
 32 33  2  0  0  0  0
 32 34  1  0  0  0  0
 34 35  1  0  0  0  0
M  END
>  <Activity>
95.2

>  <minimizedAffinity>
-9.24688

>  <RFScoreVS_v2>
5.95305698274

$$$$
HIPS6247
 OpenBabel05252300073D

 35 37  0  0  0  0  0  0  0  0999 V2000
   67.6719   76.9000   89.0450 C   0  0  0  0  0  0  0  0  0  0  0  0
   67.1544   77.1523   87.7616 C   0  0  0  0  0  0  0  0  0  0  0  0
   67.0396   78.4619   87.2898 C   0  0  0  0  0  0  0  0  0  0  0  0
   67.4425   79.5340   88.0879 C   0  0  0  0  0  0  0  0  0  0  0  0
   67.9762   79.3027   89.3640 C   0  0  0  0  0  0  0  0  0  0  0  0
   68.0749   77.9867   89.8435 C   0  0  0  0  0  0  0  0  0  0  0  0
   68.6387   73.9185   91.1926 C   0  0  0  0  0  0  0  0  0  0  0  0
   68.0119   72.8723   90.5029 C   0  0  0  0  0  0  0  0  0  0  0  0
   67.2792   73.1377   89.3447 C   0  0  0  0  0  0  0  0  0  0  0  0
   67.1666   74.4464   88.8685 C   0  0  0  0  0  0  0  0  0  0  0  0
   67.7853   75.5090   89.5519 C   0  0  0  0  0  0  0  0  0  0  0  0
   68.5182   75.2322   90.7204 C   0  0  0  0  0  0  0  0  0  0  0  0
   69.5887   73.5999   92.6402 S   0  0  0  0  0  0  0  0  0  0  0  0
   70.1706   74.9094   93.0928 O   0  0  0  0  0  0  0  0  0  0  0  0
   68.7079   73.0857   93.7453 O   0  0  0  0  0  0  0  0  0  0  0  0
   70.9082   72.4875   92.3513 N   0  0  0  0  0  0  0  0  0  0  0  0
   70.9650   72.3343   91.3445 H   0  0  0  0  0  0  0  0  0  0  0  0
   70.8284   71.2435   94.5441 C   0  0  0  0  0  0  0  0  0  0  0  0
   70.8298   71.1537   93.0023 C   0  0  0  0  0  0  0  0  0  0  0  0
   72.0765   70.3500   92.5697 C   0  0  0  0  0  0  0  0  0  0  0  0
   69.5877   70.3780   92.5158 C   0  0  0  0  0  0  0  0  0  0  0  0
   68.3672   80.4582   90.2379 C   0  0  0  0  0  0  0  0  0  0  0  0
   69.7641   80.6998   90.0962 O   0  0  0  0  0  0  0  0  0  0  0  0
   70.3182   81.8621   89.5395 C   0  0  0  0  0  0  0  0  0  0  0  0
   71.6132   82.2229   89.9167 C   0  0  0  0  0  0  0  0  0  0  0  0
   72.2142   83.3632   89.3838 C   0  0  0  0  0  0  0  0  0  0  0  0
   71.5331   84.1637   88.4608 C   0  0  0  0  0  0  0  0  0  0  0  0
   72.2206   85.2448   87.9054 O   0  0  0  0  0  0  0  0  0  0  0  0
   70.2037   83.8373   88.0974 C   0  0  0  0  0  0  0  0  0  0  0  0
   69.6168   82.6728   88.6276 C   0  0  0  0  0  0  0  0  0  0  0  0
   73.0998   85.4280   88.1724 H   0  0  0  0  0  0  0  0  0  0  0  0
   69.3928   84.6991   87.2092 C   0  0  0  0  0  0  0  0  0  0  0  0
   68.1959   84.9616   87.5061 O   0  0  0  0  0  0  0  0  0  0  0  0
   69.9563   85.2764   86.0750 O   0  0  0  0  0  0  0  0  0  0  0  0
   70.8450   85.0879   85.8456 H   0  0  0  0  0  0  0  0  0  0  0  0
  1  2  2  0  0  0  0
  2  3  1  0  0  0  0
  3  4  2  0  0  0  0
  4  5  1  0  0  0  0
  5 22  1  0  0  0  0
  5  6  2  0  0  0  0
  6  1  1  0  0  0  0
  7  8  2  0  0  0  0
  8  9  1  0  0  0  0
  9 10  2  0  0  0  0
 10 11  1  0  0  0  0
 11  1  1  0  0  0  0
 11 12  2  0  0  0  0
 12  7  1  0  0  0  0
 13 14  2  0  0  0  0
 13 15  2  0  0  0  0
 13  7  1  0  0  0  0
 16 13  1  0  0  0  0
 16 17  1  0  0  0  0
 18 19  1  0  0  0  0
 19 20  1  0  0  0  0
 19 21  1  0  0  0  0
 19 16  1  0  0  0  0
 22 23  1  0  0  0  0
 23 24  1  0  0  0  0
 24 25  2  0  0  0  0
 25 26  1  0  0  0  0
 26 27  2  0  0  0  0
 27 28  1  0  0  0  0
 27 29  1  0  0  0  0
 28 31  1  0  0  0  0
 29 32  1  0  0  0  0
 29 30  2  0  0  0  0
 30 24  1  0  0  0  0
 32 33  2  0  0  0  0
 32 34  1  0  0  0  0
 34 35  1  0  0  0  0
M  END
>  <Activity>
95.2

>  <minimizedAffinity>
-8.97593

>  <RFScoreVS_v2>
5.96529714002

$$$$
HIPS6247
 OpenBabel05252300073D

 35 37  0  0  0  0  0  0  0  0999 V2000
   69.4764   77.1494   90.5397 C   0  0  0  0  0  0  0  0  0  0  0  0
   70.8565   77.4052   90.6321 C   0  0  0  0  0  0  0  0  0  0  0  0
   71.3446   78.7079   90.5070 C   0  0  0  0  0  0  0  0  0  0  0  0
   70.4646   79.7703   90.2933 C   0  0  0  0  0  0  0  0  0  0  0  0
   69.0839   79.5384   90.2145 C   0  0  0  0  0  0  0  0  0  0  0  0
   68.5963   78.2261   90.3231 C   0  0  0  0  0  0  0  0  0  0  0  0
   68.8798   73.6303   91.8423 C   0  0  0  0  0  0  0  0  0  0  0  0
   67.9839   73.1348   90.8857 C   0  0  0  0  0  0  0  0  0  0  0  0
   67.5778   73.9432   89.8225 C   0  0  0  0  0  0  0  0  0  0  0  0
   68.0611   75.2491   89.7077 C   0  0  0  0  0  0  0  0  0  0  0  0
   68.9569   75.7639   90.6624 C   0  0  0  0  0  0  0  0  0  0  0  0
   69.3574   74.9430   91.7325 C   0  0  0  0  0  0  0  0  0  0  0  0
   69.4237   72.6172   93.1755 S   0  0  0  0  0  0  0  0  0  0  0  0
   70.9019   72.8372   93.3327 O   0  0  0  0  0  0  0  0  0  0  0  0
   68.7610   73.0354   94.4589 O   0  0  0  0  0  0  0  0  0  0  0  0
   69.1541   70.9132   92.8828 N   0  0  0  0  0  0  0  0  0  0  0  0
   68.4073   70.6093   93.5076 H   0  0  0  0  0  0  0  0  0  0  0  0
   71.4181   70.1970   92.0322 C   0  0  0  0  0  0  0  0  0  0  0  0
   70.3064   69.9964   93.0853 C   0  0  0  0  0  0  0  0  0  0  0  0
   69.7791   68.5498   92.9568 C   0  0  0  0  0  0  0  0  0  0  0  0
   70.8882   70.1523   94.5059 C   0  0  0  0  0  0  0  0  0  0  0  0
   68.1434   80.6751   89.9402 C   0  0  0  0  0  0  0  0  0  0  0  0
   68.2438   81.0441   88.5678 O   0  0  0  0  0  0  0  0  0  0  0  0
   68.5873   82.3254   88.1115 C   0  0  0  0  0  0  0  0  0  0  0  0
   67.6406   83.0404   87.3750 C   0  0  0  0  0  0  0  0  0  0  0  0
   67.9281   84.3228   86.9079 C   0  0  0  0  0  0  0  0  0  0  0  0
   69.1669   84.9169   87.1705 C   0  0  0  0  0  0  0  0  0  0  0  0
   69.3609   86.2323   86.7440 O   0  0  0  0  0  0  0  0  0  0  0  0
   70.1551   84.1916   87.8800 C   0  0  0  0  0  0  0  0  0  0  0  0
   69.8444   82.9062   88.3626 C   0  0  0  0  0  0  0  0  0  0  0  0
   68.6821   86.6783   86.2768 H   0  0  0  0  0  0  0  0  0  0  0  0
   71.5192   84.7209   88.0989 C   0  0  0  0  0  0  0  0  0  0  0  0
   71.7376   85.9592   88.0063 O   0  0  0  0  0  0  0  0  0  0  0  0
   72.5581   83.8711   88.4676 O   0  0  0  0  0  0  0  0  0  0  0  0
   72.4063   82.9493   88.5392 H   0  0  0  0  0  0  0  0  0  0  0  0
  1  2  2  0  0  0  0
  2  3  1  0  0  0  0
  3  4  2  0  0  0  0
  4  5  1  0  0  0  0
  5 22  1  0  0  0  0
  5  6  2  0  0  0  0
  6  1  1  0  0  0  0
  7  8  2  0  0  0  0
  8  9  1  0  0  0  0
  9 10  2  0  0  0  0
 10 11  1  0  0  0  0
 11  1  1  0  0  0  0
 11 12  2  0  0  0  0
 12  7  1  0  0  0  0
 13 14  2  0  0  0  0
 13 15  2  0  0  0  0
 13  7  1  0  0  0  0
 16 13  1  0  0  0  0
 16 17  1  0  0  0  0
 18 19  1  0  0  0  0
 19 20  1  0  0  0  0
 19 21  1  0  0  0  0
 19 16  1  0  0  0  0
 22 23  1  0  0  0  0
 23 24  1  0  0  0  0
 24 25  2  0  0  0  0
 25 26  1  0  0  0  0
 26 27  2  0  0  0  0
 27 28  1  0  0  0  0
 27 29  1  0  0  0  0
 28 31  1  0  0  0  0
 29 32  1  0  0  0  0
 29 30  2  0  0  0  0
 30 24  1  0  0  0  0
 32 33  2  0  0  0  0
 32 34  1  0  0  0  0
 34 35  1  0  0  0  0
M  END
>  <Activity>
95.2

>  <minimizedAffinity>
-8.74225

>  <RFScoreVS_v2>
5.95883683997

$$$$
HIPS6247
 OpenBabel05252300073D

 35 37  0  0  0  0  0  0  0  0999 V2000
   68.1265   77.7315   88.9072 C   0  0  0  0  0  0  0  0  0  0  0  0
   67.4518   76.8492   88.0440 C   0  0  0  0  0  0  0  0  0  0  0  0
   66.5789   77.3409   87.0708 C   0  0  0  0  0  0  0  0  0  0  0  0
   66.3714   78.7154   86.9430 C   0  0  0  0  0  0  0  0  0  0  0  0
   67.0468   79.6124   87.7830 C   0  0  0  0  0  0  0  0  0  0  0  0
   67.9108   79.1157   88.7722 C   0  0  0  0  0  0  0  0  0  0  0  0
   69.6848   75.4603   91.5244 C   0  0  0  0  0  0  0  0  0  0  0  0
   70.7826   76.2294   91.9326 C   0  0  0  0  0  0  0  0  0  0  0  0
   71.0124   77.4808   91.3582 C   0  0  0  0  0  0  0  0  0  0  0  0
   70.1507   77.9716   90.3740 C   0  0  0  0  0  0  0  0  0  0  0  0
   69.0470   77.2099   89.9489 C   0  0  0  0  0  0  0  0  0  0  0  0
   68.8258   75.9482   90.5308 C   0  0  0  0  0  0  0  0  0  0  0  0
   69.3638   73.8914   92.2558 S   0  0  0  0  0  0  0  0  0  0  0  0
   68.9247   72.9650   91.1570 O   0  0  0  0  0  0  0  0  0  0  0  0
   70.6200   73.3236   92.8566 O   0  0  0  0  0  0  0  0  0  0  0  0
   68.0931   73.9532   93.4573 N   0  0  0  0  0  0  0  0  0  0  0  0
   67.4196   74.6570   93.1550 H   0  0  0  0  0  0  0  0  0  0  0  0
   69.5115   73.2826   95.4323 C   0  0  0  0  0  0  0  0  0  0  0  0
   68.4891   74.2837   94.8513 C   0  0  0  0  0  0  0  0  0  0  0  0
   67.2147   74.2284   95.7231 C   0  0  0  0  0  0  0  0  0  0  0  0
   69.0465   75.7200   94.9373 C   0  0  0  0  0  0  0  0  0  0  0  0
   66.7888   81.0866   87.6741 C   0  0  0  0  0  0  0  0  0  0  0  0
   67.5362   81.7674   88.6779 O   0  0  0  0  0  0  0  0  0  0  0  0
   68.7769   82.3862   88.4637 C   0  0  0  0  0  0  0  0  0  0  0  0
   68.9439   83.1487   87.3060 C   0  0  0  0  0  0  0  0  0  0  0  0
   70.1541   83.7937   87.0514 C   0  0  0  0  0  0  0  0  0  0  0  0
   71.2204   83.6913   87.9510 C   0  0  0  0  0  0  0  0  0  0  0  0
   72.3757   84.4262   87.6767 O   0  0  0  0  0  0  0  0  0  0  0  0
   71.0843   82.8887   89.1100 C   0  0  0  0  0  0  0  0  0  0  0  0
   69.8509   82.2597   89.3644 C   0  0  0  0  0  0  0  0  0  0  0  0
   72.4268   84.9456   86.8985 H   0  0  0  0  0  0  0  0  0  0  0  0
   72.2063   82.6544   90.0454 C   0  0  0  0  0  0  0  0  0  0  0  0
   73.3798   82.9773   89.7161 O   0  0  0  0  0  0  0  0  0  0  0  0
   71.9731   82.1350   91.3155 O   0  0  0  0  0  0  0  0  0  0  0  0
   71.1047   81.8919   91.5700 H   0  0  0  0  0  0  0  0  0  0  0  0
  1  2  2  0  0  0  0
  2  3  1  0  0  0  0
  3  4  2  0  0  0  0
  4  5  1  0  0  0  0
  5 22  1  0  0  0  0
  5  6  2  0  0  0  0
  6  1  1  0  0  0  0
  7  8  2  0  0  0  0
  8  9  1  0  0  0  0
  9 10  2  0  0  0  0
 10 11  1  0  0  0  0
 11  1  1  0  0  0  0
 11 12  2  0  0  0  0
 12  7  1  0  0  0  0
 13 14  2  0  0  0  0
 13 15  2  0  0  0  0
 13  7  1  0  0  0  0
 16 13  1  0  0  0  0
 16 17  1  0  0  0  0
 18 19  1  0  0  0  0
 19 20  1  0  0  0  0
 19 21  1  0  0  0  0
 19 16  1  0  0  0  0
 22 23  1  0  0  0  0
 23 24  1  0  0  0  0
 24 25  2  0  0  0  0
 25 26  1  0  0  0  0
 26 27  2  0  0  0  0
 27 28  1  0  0  0  0
 27 29  1  0  0  0  0
 28 31  1  0  0  0  0
 29 32  1  0  0  0  0
 29 30  2  0  0  0  0
 30 24  1  0  0  0  0
 32 33  2  0  0  0  0
 32 34  1  0  0  0  0
 34 35  1  0  0  0  0
M  END
>  <Activity>
95.2

>  <minimizedAffinity>
-8.67326

>  <RFScoreVS_v2>
5.97260949113

$$$$
HIPS6247
 OpenBabel05252300073D

 35 37  0  0  0  0  0  0  0  0999 V2000
   69.5726   78.5660   90.2610 C   0  0  0  0  0  0  0  0  0  0  0  0
   70.9741   78.5628   90.1408 C   0  0  0  0  0  0  0  0  0  0  0  0
   71.7419   77.6273   90.8380 C   0  0  0  0  0  0  0  0  0  0  0  0
   71.1235   76.6822   91.6584 C   0  0  0  0  0  0  0  0  0  0  0  0
   69.7265   76.6583   91.7790 C   0  0  0  0  0  0  0  0  0  0  0  0
   68.9572   77.6104   91.0910 C   0  0  0  0  0  0  0  0  0  0  0  0
   68.2268   81.8885   89.0014 C   0  0  0  0  0  0  0  0  0  0  0  0
   67.1980   81.4604   88.1521 C   0  0  0  0  0  0  0  0  0  0  0  0
   66.9446   80.0970   87.9920 C   0  0  0  0  0  0  0  0  0  0  0  0
   67.7154   79.1536   88.6761 C   0  0  0  0  0  0  0  0  0  0  0  0
   68.7556   79.5662   89.5284 C   0  0  0  0  0  0  0  0  0  0  0  0
   69.0060   80.9423   89.6804 C   0  0  0  0  0  0  0  0  0  0  0  0
   68.5443   83.6042   89.2363 S   0  0  0  0  0  0  0  0  0  0  0  0
   68.0477   84.3243   88.0144 O   0  0  0  0  0  0  0  0  0  0  0  0
   67.7737   84.1253   90.4178 O   0  0  0  0  0  0  0  0  0  0  0  0
   70.2481   83.9567   89.4223 N   0  0  0  0  0  0  0  0  0  0  0  0
   70.3318   84.7179   90.0962 H   0  0  0  0  0  0  0  0  0  0  0  0
   70.6298   83.4996   86.9713 C   0  0  0  0  0  0  0  0  0  0  0  0
   70.9984   84.3555   88.2028 C   0  0  0  0  0  0  0  0  0  0  0  0
   72.5023   84.1541   88.4942 C   0  0  0  0  0  0  0  0  0  0  0  0
   70.7839   85.8515   87.8914 C   0  0  0  0  0  0  0  0  0  0  0  0
   69.0662   75.6708   92.6958 C   0  0  0  0  0  0  0  0  0  0  0  0
   70.0309   74.7146   93.1258 O   0  0  0  0  0  0  0  0  0  0  0  0
   69.9909   73.3478   92.8126 C   0  0  0  0  0  0  0  0  0  0  0  0
   69.3993   72.9629   91.6078 C   0  0  0  0  0  0  0  0  0  0  0  0
   69.3438   71.6175   91.2441 C   0  0  0  0  0  0  0  0  0  0  0  0
   69.8816   70.6305   92.0767 C   0  0  0  0  0  0  0  0  0  0  0  0
   69.8653   69.3120   91.6169 O   0  0  0  0  0  0  0  0  0  0  0  0
   70.4485   70.9971   93.3217 C   0  0  0  0  0  0  0  0  0  0  0  0
   70.5157   72.3601   93.6670 C   0  0  0  0  0  0  0  0  0  0  0  0
   69.4804   69.1100   90.7868 H   0  0  0  0  0  0  0  0  0  0  0  0
   70.9382   69.9943   94.2931 C   0  0  0  0  0  0  0  0  0  0  0  0
   70.1902   69.0441   94.6499 O   0  0  0  0  0  0  0  0  0  0  0  0
   72.2429   70.0527   94.7745 O   0  0  0  0  0  0  0  0  0  0  0  0
   72.8069   70.7546   94.5155 H   0  0  0  0  0  0  0  0  0  0  0  0
  1  2  2  0  0  0  0
  2  3  1  0  0  0  0
  3  4  2  0  0  0  0
  4  5  1  0  0  0  0
  5 22  1  0  0  0  0
  5  6  2  0  0  0  0
  6  1  1  0  0  0  0
  7  8  2  0  0  0  0
  8  9  1  0  0  0  0
  9 10  2  0  0  0  0
 10 11  1  0  0  0  0
 11  1  1  0  0  0  0
 11 12  2  0  0  0  0
 12  7  1  0  0  0  0
 13 14  2  0  0  0  0
 13 15  2  0  0  0  0
 13  7  1  0  0  0  0
 16 13  1  0  0  0  0
 16 17  1  0  0  0  0
 18 19  1  0  0  0  0
 19 20  1  0  0  0  0
 19 21  1  0  0  0  0
 19 16  1  0  0  0  0
 22 23  1  0  0  0  0
 23 24  1  0  0  0  0
 24 25  2  0  0  0  0
 25 26  1  0  0  0  0
 26 27  2  0  0  0  0
 27 28  1  0  0  0  0
 27 29  1  0  0  0  0
 28 31  1  0  0  0  0
 29 32  1  0  0  0  0
 29 30  2  0  0  0  0
 30 24  1  0  0  0  0
 32 33  2  0  0  0  0
 32 34  1  0  0  0  0
 34 35  1  0  0  0  0
M  END
>  <Activity>
95.2

>  <minimizedAffinity>
-8.65605

>  <RFScoreVS_v2>
5.9758814171

$$$$
HIPS6247
 OpenBabel05252300073D

 35 37  0  0  0  0  0  0  0  0999 V2000
   68.3695   78.0977   89.1426 C   0  0  0  0  0  0  0  0  0  0  0  0
   67.4510   78.1996   88.0822 C   0  0  0  0  0  0  0  0  0  0  0  0
   66.6757   77.0992   87.7094 C   0  0  0  0  0  0  0  0  0  0  0  0
   66.8025   75.8873   88.3906 C   0  0  0  0  0  0  0  0  0  0  0  0
   67.7007   75.7699   89.4612 C   0  0  0  0  0  0  0  0  0  0  0  0
   68.4918   76.8720   89.8234 C   0  0  0  0  0  0  0  0  0  0  0  0
   69.4947   81.6753   89.7516 C   0  0  0  0  0  0  0  0  0  0  0  0
   70.7842   81.4717   90.2602 C   0  0  0  0  0  0  0  0  0  0  0  0
   71.2835   80.1759   90.4030 C   0  0  0  0  0  0  0  0  0  0  0  0
   70.5004   79.0769   90.0408 C   0  0  0  0  0  0  0  0  0  0  0  0
   69.2017   79.2636   89.5336 C   0  0  0  0  0  0  0  0  0  0  0  0
   68.7057   80.5730   89.3970 C   0  0  0  0  0  0  0  0  0  0  0  0
   68.8577   83.3029   89.5398 S   0  0  0  0  0  0  0  0  0  0  0  0
   67.9836   83.2877   88.3176 O   0  0  0  0  0  0  0  0  0  0  0  0
   67.9973   83.6882   90.7114 O   0  0  0  0  0  0  0  0  0  0  0  0
   70.1158   84.4944   89.2957 N   0  0  0  0  0  0  0  0  0  0  0  0
   69.8253   85.3487   89.7713 H   0  0  0  0  0  0  0  0  0  0  0  0
   70.6207   83.6182   86.9849 C   0  0  0  0  0  0  0  0  0  0  0  0
   70.4491   84.8556   87.8929 C   0  0  0  0  0  0  0  0  0  0  0  0
   71.7895   85.6237   87.9155 C   0  0  0  0  0  0  0  0  0  0  0  0
   69.3833   85.8023   87.3023 C   0  0  0  0  0  0  0  0  0  0  0  0
   67.8682   74.4543   90.1633 C   0  0  0  0  0  0  0  0  0  0  0  0
   69.1004   74.4597   90.8783 O   0  0  0  0  0  0  0  0  0  0  0  0
   69.2590   73.9990   92.1938 C   0  0  0  0  0  0  0  0  0  0  0  0
   68.6078   74.6887   93.2185 C   0  0  0  0  0  0  0  0  0  0  0  0
   68.7238   74.2650   94.5423 C   0  0  0  0  0  0  0  0  0  0  0  0
   69.4909   73.1414   94.8674 C   0  0  0  0  0  0  0  0  0  0  0  0
   69.5002   72.7235   96.1997 O   0  0  0  0  0  0  0  0  0  0  0  0
   70.1925   72.4534   93.8473 C   0  0  0  0  0  0  0  0  0  0  0  0
   70.0505   72.8800   92.5134 C   0  0  0  0  0  0  0  0  0  0  0  0
   69.0229   73.2062   96.8455 H   0  0  0  0  0  0  0  0  0  0  0  0
   71.1031   71.3242   94.1378 C   0  0  0  0  0  0  0  0  0  0  0  0
   70.6988   70.3494   94.8279 O   0  0  0  0  0  0  0  0  0  0  0  0
   72.3886   71.2956   93.6050 O   0  0  0  0  0  0  0  0  0  0  0  0
   72.6987   72.0149   93.0908 H   0  0  0  0  0  0  0  0  0  0  0  0
  1  2  2  0  0  0  0
  2  3  1  0  0  0  0
  3  4  2  0  0  0  0
  4  5  1  0  0  0  0
  5 22  1  0  0  0  0
  5  6  2  0  0  0  0
  6  1  1  0  0  0  0
  7  8  2  0  0  0  0
  8  9  1  0  0  0  0
  9 10  2  0  0  0  0
 10 11  1  0  0  0  0
 11  1  1  0  0  0  0
 11 12  2  0  0  0  0
 12  7  1  0  0  0  0
 13 14  2  0  0  0  0
 13 15  2  0  0  0  0
 13  7  1  0  0  0  0
 16 13  1  0  0  0  0
 16 17  1  0  0  0  0
 18 19  1  0  0  0  0
 19 20  1  0  0  0  0
 19 21  1  0  0  0  0
 19 16  1  0  0  0  0
 22 23  1  0  0  0  0
 23 24  1  0  0  0  0
 24 25  2  0  0  0  0
 25 26  1  0  0  0  0
 26 27  2  0  0  0  0
 27 28  1  0  0  0  0
 27 29  1  0  0  0  0
 28 31  1  0  0  0  0
 29 32  1  0  0  0  0
 29 30  2  0  0  0  0
 30 24  1  0  0  0  0
 32 33  2  0  0  0  0
 32 34  1  0  0  0  0
 34 35  1  0  0  0  0
M  END
>  <Activity>
95.2

>  <minimizedAffinity>
-8.63851

>  <RFScoreVS_v2>
5.96568674076

$$$$
HIPS6247
 OpenBabel05252300073D

 35 37  0  0  0  0  0  0  0  0999 V2000
   68.3438   77.9788   89.0140 C   0  0  0  0  0  0  0  0  0  0  0  0
   67.7113   76.9526   88.2891 C   0  0  0  0  0  0  0  0  0  0  0  0
   66.7673   77.2588   87.3063 C   0  0  0  0  0  0  0  0  0  0  0  0
   66.4458   78.5891   87.0311 C   0  0  0  0  0  0  0  0  0  0  0  0
   67.0771   79.6273   87.7312 C   0  0  0  0  0  0  0  0  0  0  0  0
   68.0132   79.3173   88.7309 C   0  0  0  0  0  0  0  0  0  0  0  0
   69.9185   76.5542   92.1647 C   0  0  0  0  0  0  0  0  0  0  0  0
   71.2238   77.0536   92.0657 C   0  0  0  0  0  0  0  0  0  0  0  0
   71.5876   77.8503   90.9786 C   0  0  0  0  0  0  0  0  0  0  0  0
   70.6534   78.1524   89.9846 C   0  0  0  0  0  0  0  0  0  0  0  0
   69.3402   77.6547   90.0660 C   0  0  0  0  0  0  0  0  0  0  0  0
   68.9840   76.8493   91.1632 C   0  0  0  0  0  0  0  0  0  0  0  0
   69.4339   75.5695   93.5414 S   0  0  0  0  0  0  0  0  0  0  0  0
   69.9897   76.2201   94.7767 O   0  0  0  0  0  0  0  0  0  0  0  0
   67.9360   75.5476   93.6717 O   0  0  0  0  0  0  0  0  0  0  0  0
   70.0577   73.9368   93.4572 N   0  0  0  0  0  0  0  0  0  0  0  0
   71.0055   73.9897   93.0839 H   0  0  0  0  0  0  0  0  0  0  0  0
   69.1708   73.4119   91.1550 C   0  0  0  0  0  0  0  0  0  0  0  0
   69.3042   72.9616   92.6263 C   0  0  0  0  0  0  0  0  0  0  0  0
   67.8838   72.8413   93.2220 C   0  0  0  0  0  0  0  0  0  0  0  0
   69.9548   71.5640   92.6955 C   0  0  0  0  0  0  0  0  0  0  0  0
   66.6980   81.0547   87.4656 C   0  0  0  0  0  0  0  0  0  0  0  0
   67.2127   81.8770   88.5090 O   0  0  0  0  0  0  0  0  0  0  0  0
   68.1182   82.9312   88.3180 C   0  0  0  0  0  0  0  0  0  0  0  0
   67.6453   84.1126   87.7434 C   0  0  0  0  0  0  0  0  0  0  0  0
   68.5021   85.1946   87.5421 C   0  0  0  0  0  0  0  0  0  0  0  0
   69.8483   85.1177   87.9143 C   0  0  0  0  0  0  0  0  0  0  0  0
   70.6323   86.2629   87.7599 O   0  0  0  0  0  0  0  0  0  0  0  0
   70.3563   83.9137   88.4603 C   0  0  0  0  0  0  0  0  0  0  0  0
   69.4760   82.8366   88.6762 C   0  0  0  0  0  0  0  0  0  0  0  0
   70.2588   87.0406   87.3942 H   0  0  0  0  0  0  0  0  0  0  0  0
   71.7902   83.7321   88.7763 C   0  0  0  0  0  0  0  0  0  0  0  0
   72.1326   83.1095   89.8178 O   0  0  0  0  0  0  0  0  0  0  0  0
   72.7717   84.1898   87.9019 O   0  0  0  0  0  0  0  0  0  0  0  0
   72.5278   84.6536   87.1251 H   0  0  0  0  0  0  0  0  0  0  0  0
  1  2  2  0  0  0  0
  2  3  1  0  0  0  0
  3  4  2  0  0  0  0
  4  5  1  0  0  0  0
  5 22  1  0  0  0  0
  5  6  2  0  0  0  0
  6  1  1  0  0  0  0
  7  8  2  0  0  0  0
  8  9  1  0  0  0  0
  9 10  2  0  0  0  0
 10 11  1  0  0  0  0
 11  1  1  0  0  0  0
 11 12  2  0  0  0  0
 12  7  1  0  0  0  0
 13 14  2  0  0  0  0
 13 15  2  0  0  0  0
 13  7  1  0  0  0  0
 16 13  1  0  0  0  0
 16 17  1  0  0  0  0
 18 19  1  0  0  0  0
 19 20  1  0  0  0  0
 19 21  1  0  0  0  0
 19 16  1  0  0  0  0
 22 23  1  0  0  0  0
 23 24  1  0  0  0  0
 24 25  2  0  0  0  0
 25 26  1  0  0  0  0
 26 27  2  0  0  0  0
 27 28  1  0  0  0  0
 27 29  1  0  0  0  0
 28 31  1  0  0  0  0
 29 32  1  0  0  0  0
 29 30  2  0  0  0  0
 30 24  1  0  0  0  0
 32 33  2  0  0  0  0
 32 34  1  0  0  0  0
 34 35  1  0  0  0  0
M  END
>  <Activity>
95.2

>  <minimizedAffinity>
-8.62037

>  <RFScoreVS_v2>
5.96199818415

$$$$
HIPS6247
 OpenBabel05252300073D

 35 37  0  0  0  0  0  0  0  0999 V2000
   70.3846   79.5908   90.2944 C   0  0  0  0  0  0  0  0  0  0  0  0
   71.4962   78.7502   90.4849 C   0  0  0  0  0  0  0  0  0  0  0  0
   71.3176   77.4052   90.8167 C   0  0  0  0  0  0  0  0  0  0  0  0
   70.0315   76.8813   90.9581 C   0  0  0  0  0  0  0  0  0  0  0  0
   68.9101   77.6988   90.7564 C   0  0  0  0  0  0  0  0  0  0  0  0
   69.0914   79.0547   90.4398 C   0  0  0  0  0  0  0  0  0  0  0  0
   69.6729   83.1394   89.1379 C   0  0  0  0  0  0  0  0  0  0  0  0
   70.9336   83.7320   89.2881 C   0  0  0  0  0  0  0  0  0  0  0  0
   72.0087   82.9787   89.7629 C   0  0  0  0  0  0  0  0  0  0  0  0
   71.8331   81.6321   90.0912 C   0  0  0  0  0  0  0  0  0  0  0  0
   70.5727   81.0231   89.9515 C   0  0  0  0  0  0  0  0  0  0  0  0
   69.4943   81.7913   89.4760 C   0  0  0  0  0  0  0  0  0  0  0  0
   68.3114   84.0662   88.5159 S   0  0  0  0  0  0  0  0  0  0  0  0
   68.8110   84.8699   87.3486 O   0  0  0  0  0  0  0  0  0  0  0  0
   67.2355   83.1459   88.0093 O   0  0  0  0  0  0  0  0  0  0  0  0
   67.6518   85.1744   89.6986 N   0  0  0  0  0  0  0  0  0  0  0  0
   68.3385   85.9152   89.8408 H   0  0  0  0  0  0  0  0  0  0  0  0
   66.5990   83.2520   90.9469 C   0  0  0  0  0  0  0  0  0  0  0  0
   67.3094   84.6205   91.0347 C   0  0  0  0  0  0  0  0  0  0  0  0
   66.3479   85.6171   91.7198 C   0  0  0  0  0  0  0  0  0  0  0  0
   68.5677   84.5082   91.9208 C   0  0  0  0  0  0  0  0  0  0  0  0
   67.5291   77.1453   90.9525 C   0  0  0  0  0  0  0  0  0  0  0  0
   67.1435   77.3220   92.3126 O   0  0  0  0  0  0  0  0  0  0  0  0
   67.0823   76.2917   93.2626 C   0  0  0  0  0  0  0  0  0  0  0  0
   65.9457   76.2030   94.0689 C   0  0  0  0  0  0  0  0  0  0  0  0
   65.8304   75.1905   95.0212 C   0  0  0  0  0  0  0  0  0  0  0  0
   66.8480   74.2447   95.1840 C   0  0  0  0  0  0  0  0  0  0  0  0
   66.6348   73.2107   96.0980 O   0  0  0  0  0  0  0  0  0  0  0  0
   68.0264   74.3426   94.4045 C   0  0  0  0  0  0  0  0  0  0  0  0
   68.1209   75.3575   93.4335 C   0  0  0  0  0  0  0  0  0  0  0  0
   65.8412   73.1812   96.5953 H   0  0  0  0  0  0  0  0  0  0  0  0
   69.1814   73.4391   94.6009 C   0  0  0  0  0  0  0  0  0  0  0  0
   70.0885   73.7445   95.4217 O   0  0  0  0  0  0  0  0  0  0  0  0
   69.2492   72.2204   93.9321 O   0  0  0  0  0  0  0  0  0  0  0  0
   68.5802   71.9839   93.3202 H   0  0  0  0  0  0  0  0  0  0  0  0
  1  2  2  0  0  0  0
  2  3  1  0  0  0  0
  3  4  2  0  0  0  0
  4  5  1  0  0  0  0
  5 22  1  0  0  0  0
  5  6  2  0  0  0  0
  6  1  1  0  0  0  0
  7  8  2  0  0  0  0
  8  9  1  0  0  0  0
  9 10  2  0  0  0  0
 10 11  1  0  0  0  0
 11  1  1  0  0  0  0
 11 12  2  0  0  0  0
 12  7  1  0  0  0  0
 13 14  2  0  0  0  0
 13 15  2  0  0  0  0
 13  7  1  0  0  0  0
 16 13  1  0  0  0  0
 16 17  1  0  0  0  0
 18 19  1  0  0  0  0
 19 20  1  0  0  0  0
 19 21  1  0  0  0  0
 19 16  1  0  0  0  0
 22 23  1  0  0  0  0
 23 24  1  0  0  0  0
 24 25  2  0  0  0  0
 25 26  1  0  0  0  0
 26 27  2  0  0  0  0
 27 28  1  0  0  0  0
 27 29  1  0  0  0  0
 28 31  1  0  0  0  0
 29 32  1  0  0  0  0
 29 30  2  0  0  0  0
 30 24  1  0  0  0  0
 32 33  2  0  0  0  0
 32 34  1  0  0  0  0
 34 35  1  0  0  0  0
M  END
>  <Activity>
95.2

>  <minimizedAffinity>
-8.50197

>  <RFScoreVS_v2>
5.96943731733

$$$$
HIPS6897
 OpenBabel05252300073D

 30 33  0  0  0  0  0  0  0  0999 V2000
   70.5317   77.8415   90.9529 C   0  0  0  0  0  0  0  0  0  0  0  0
   70.2559   78.8077   90.1818 N   0  0  0  0  0  0  0  0  0  0  0  0
   69.2511   74.4098   91.7139 C   0  0  0  0  0  0  0  0  0  0  0  0
   70.0062   75.5817   91.7357 C   0  0  0  0  0  0  0  0  0  0  0  0
   69.7323   76.6390   90.9086 C   0  0  0  0  0  0  0  0  0  0  0  0
   68.6791   76.5365   90.0311 C   0  0  0  0  0  0  0  0  0  0  0  0
   67.8984   75.3732   89.9819 C   0  0  0  0  0  0  0  0  0  0  0  0
   68.2037   74.3342   90.8269 C   0  0  0  0  0  0  0  0  0  0  0  0
   67.4646   73.1429   90.8300 O   0  0  0  0  0  0  0  0  0  0  0  0
   66.7402   73.0394   90.2448 H   0  0  0  0  0  0  0  0  0  0  0  0
   68.6342   72.9003   93.5614 N   0  0  0  0  0  0  0  0  0  0  0  0
   69.5894   73.3281   92.6119 C   0  0  0  0  0  0  0  0  0  0  0  0
   70.7097   72.7855   92.5432 O   0  0  0  0  0  0  0  0  0  0  0  0
   68.8498   72.1651   94.1796 H   0  0  0  0  0  0  0  0  0  0  0  0
   67.7532   73.3375   93.6046 H   0  0  0  0  0  0  0  0  0  0  0  0
   70.9078   80.0166   90.0930 N   0  0  0  0  0  0  0  0  0  0  0  0
   70.2824   81.2830   90.3016 C   0  0  0  0  0  0  0  0  0  0  0  0
   69.0590   81.2217   90.5804 O   0  0  0  0  0  0  0  0  0  0  0  0
   71.8670   80.0075   89.8715 H   0  0  0  0  0  0  0  0  0  0  0  0
   70.9830   82.5571   90.2048 C   0  0  0  0  0  0  0  0  0  0  0  0
   70.5318   83.5061   89.1561 C   0  0  1  0  0  0  0  0  0  0  0  0
   69.6649   84.6080   89.8048 C   0  0  0  0  0  0  0  0  0  0  0  0
   69.3140   85.6629   88.8137 C   0  0  2  0  0  0  0  0  0  0  0  0
   68.5319   85.0590   87.6920 C   0  0  0  0  0  0  0  0  0  0  0  0
   69.3766   83.9846   87.0559 C   0  0  1  0  0  0  0  0  0  0  0  0
   70.5940   84.6492   86.4734 C   0  0  0  0  0  0  0  0  0  0  0  0
   71.3866   85.2938   87.5930 C   0  0  1  0  0  0  0  0  0  0  0  0
   70.6089   86.3087   88.3618 C   0  0  0  0  0  0  0  0  0  0  0  0
   71.7673   84.1587   88.5399 C   0  0  0  0  0  0  0  0  0  0  0  0
   69.7248   82.9053   88.0661 C   0  0  0  0  0  0  0  0  0  0  0  0
  1  2  2  0  0  0  0
  2 16  1  0  0  0  0
  3  4  2  0  0  0  0
  4  5  1  0  0  0  0
  5  1  1  0  0  0  0
  5  6  2  0  0  0  0
  6  7  1  0  0  0  0
  7  8  2  0  0  0  0
  8  9  1  0  0  0  0
  8  3  1  0  0  0  0
  9 10  1  0  0  0  0
 11 12  1  0  0  0  0
 11 14  1  0  0  0  0
 11 15  1  0  0  0  0
 12 13  2  0  0  0  0
 12  3  1  0  0  0  0
 16 17  1  0  0  0  0
 16 19  1  0  0  0  0
 17 18  2  0  0  0  0
 17 20  1  0  0  0  0
 21 20  1  1  0  0  0
 21 22  1  0  0  0  0
 23 22  1  1  0  0  0
 23 24  1  0  0  0  0
 25 24  1  1  0  0  0
 25 26  1  0  0  0  0
 25 30  1  0  0  0  0
 27 26  1  6  0  0  0
 27 28  1  0  0  0  0
 27 29  1  0  0  0  0
 28 23  1  0  0  0  0
 29 21  1  0  0  0  0
 30 21  1  0  0  0  0
M  END
>  <Activity>
116.0

>  <minimizedAffinity>
-8.18139

>  <RFScoreVS_v2>
5.97069109508

$$$$
HIPS6897
 OpenBabel05252300073D

 30 33  0  0  0  0  0  0  0  0999 V2000
   67.4641   78.1878   88.7359 C   0  0  0  0  0  0  0  0  0  0  0  0
   67.9904   79.2679   89.1366 N   0  0  0  0  0  0  0  0  0  0  0  0
   69.2100   75.6959   90.9127 C   0  0  0  0  0  0  0  0  0  0  0  0
   68.8196   76.8909   90.3096 C   0  0  0  0  0  0  0  0  0  0  0  0
   67.8488   76.9350   89.3438 C   0  0  0  0  0  0  0  0  0  0  0  0
   67.2436   75.7618   88.9605 C   0  0  0  0  0  0  0  0  0  0  0  0
   67.6110   74.5419   89.5455 C   0  0  0  0  0  0  0  0  0  0  0  0
   68.5884   74.5378   90.5106 C   0  0  0  0  0  0  0  0  0  0  0  0
   69.0038   73.3538   91.1362 O   0  0  0  0  0  0  0  0  0  0  0  0
   68.6123   72.5363   90.8990 H   0  0  0  0  0  0  0  0  0  0  0  0
   71.3749   76.5354   91.7377 N   0  0  0  0  0  0  0  0  0  0  0  0
   70.2409   75.7138   91.9266 C   0  0  0  0  0  0  0  0  0  0  0  0
   70.1235   75.0116   92.9501 O   0  0  0  0  0  0  0  0  0  0  0  0
   72.0851   76.5583   92.4191 H   0  0  0  0  0  0  0  0  0  0  0  0
   71.4547   77.0849   90.9248 H   0  0  0  0  0  0  0  0  0  0  0  0
   67.7418   80.5396   88.6724 N   0  0  0  0  0  0  0  0  0  0  0  0
   68.0706   81.7326   89.3845 C   0  0  0  0  0  0  0  0  0  0  0  0
   68.6193   81.5415   90.4983 O   0  0  0  0  0  0  0  0  0  0  0  0
   67.3095   80.6325   87.7928 H   0  0  0  0  0  0  0  0  0  0  0  0
   67.8024   83.0742   88.8828 C   0  0  0  0  0  0  0  0  0  0  0  0
   68.9664   83.8831   88.4414 C   0  0  1  0  0  0  0  0  0  0  0  0
   69.7070   83.1356   87.3105 C   0  0  0  0  0  0  0  0  0  0  0  0
   70.7934   83.9777   86.7370 C   0  0  2  0  0  0  0  0  0  0  0  0
   71.7885   84.3089   87.8022 C   0  0  0  0  0  0  0  0  0  0  0  0
   71.0685   85.0403   88.9062 C   0  0  1  0  0  0  0  0  0  0  0  0
   70.5492   86.3305   88.3331 C   0  0  0  0  0  0  0  0  0  0  0  0
   69.5588   86.0162   87.2296 C   0  0  1  0  0  0  0  0  0  0  0  0
   70.1420   85.2016   86.1240 C   0  0  0  0  0  0  0  0  0  0  0  0
   68.4446   85.2077   87.8889 C   0  0  0  0  0  0  0  0  0  0  0  0
   69.9678   84.1758   89.4958 C   0  0  0  0  0  0  0  0  0  0  0  0
  1  2  2  0  0  0  0
  2 16  1  0  0  0  0
  3  4  2  0  0  0  0
  4  5  1  0  0  0  0
  5  1  1  0  0  0  0
  5  6  2  0  0  0  0
  6  7  1  0  0  0  0
  7  8  2  0  0  0  0
  8  9  1  0  0  0  0
  8  3  1  0  0  0  0
  9 10  1  0  0  0  0
 11 12  1  0  0  0  0
 11 14  1  0  0  0  0
 11 15  1  0  0  0  0
 12 13  2  0  0  0  0
 12  3  1  0  0  0  0
 16 17  1  0  0  0  0
 16 19  1  0  0  0  0
 17 18  2  0  0  0  0
 17 20  1  0  0  0  0
 21 20  1  1  0  0  0
 21 22  1  0  0  0  0
 23 22  1  1  0  0  0
 23 24  1  0  0  0  0
 25 24  1  6  0  0  0
 25 26  1  0  0  0  0
 25 30  1  0  0  0  0
 27 26  1  1  0  0  0
 27 28  1  0  0  0  0
 27 29  1  0  0  0  0
 28 23  1  0  0  0  0
 29 21  1  0  0  0  0
 30 21  1  0  0  0  0
M  END
>  <Activity>
116.0

>  <minimizedAffinity>
-8.14817

>  <RFScoreVS_v2>
5.96952713508

$$$$
HIPS6897
 OpenBabel05252300073D

 30 33  0  0  0  0  0  0  0  0999 V2000
   70.8027   78.3488   90.7197 C   0  0  0  0  0  0  0  0  0  0  0  0
   70.3539   79.3916   90.1583 N   0  0  0  0  0  0  0  0  0  0  0  0
   68.1524   75.8430   89.8870 C   0  0  0  0  0  0  0  0  0  0  0  0
   68.9404   76.9933   89.8888 C   0  0  0  0  0  0  0  0  0  0  0  0
   70.0032   77.1457   90.7399 C   0  0  0  0  0  0  0  0  0  0  0  0
   70.2979   76.1300   91.6180 C   0  0  0  0  0  0  0  0  0  0  0  0
   69.5272   74.9592   91.6439 C   0  0  0  0  0  0  0  0  0  0  0  0
   68.4695   74.8430   90.7752 C   0  0  0  0  0  0  0  0  0  0  0  0
   67.6580   73.7001   90.7481 O   0  0  0  0  0  0  0  0  0  0  0  0
   67.8308   72.9888   91.3331 H   0  0  0  0  0  0  0  0  0  0  0  0
   66.2161   76.8677   88.7588 N   0  0  0  0  0  0  0  0  0  0  0  0
   67.0437   75.7410   88.9643 C   0  0  0  0  0  0  0  0  0  0  0  0
   66.8277   74.6708   88.3623 O   0  0  0  0  0  0  0  0  0  0  0  0
   65.4574   76.8138   88.1338 H   0  0  0  0  0  0  0  0  0  0  0  0
   66.3982   77.7067   89.2407 H   0  0  0  0  0  0  0  0  0  0  0  0
   70.9772   80.6137   90.0479 N   0  0  0  0  0  0  0  0  0  0  0  0
   70.3484   81.8639   90.3307 C   0  0  0  0  0  0  0  0  0  0  0  0
   69.1506   81.7746   90.6988 O   0  0  0  0  0  0  0  0  0  0  0  0
   71.9171   80.6266   89.7551 H   0  0  0  0  0  0  0  0  0  0  0  0
   71.0187   83.1522   90.2102 C   0  0  0  0  0  0  0  0  0  0  0  0
   70.5668   84.0577   89.1239 C   0  0  1  0  0  0  0  0  0  0  0  0
   69.9027   83.2220   88.0073 C   0  0  0  0  0  0  0  0  0  0  0  0
   69.3029   84.1032   86.9670 C   0  0  2  0  0  0  0  0  0  0  0  0
   70.3703   84.9438   86.3436 C   0  0  0  0  0  0  0  0  0  0  0  0
   71.0187   85.7618   87.4310 C   0  0  1  0  0  0  0  0  0  0  0  0
   69.9695   86.6801   87.9957 C   0  0  0  0  0  0  0  0  0  0  0  0
   68.8621   85.8456   88.6077 C   0  0  1  0  0  0  0  0  0  0  0  0
   68.2133   84.9174   87.6364 C   0  0  0  0  0  0  0  0  0  0  0  0
   69.5251   85.0131   89.7018 C   0  0  0  0  0  0  0  0  0  0  0  0
   71.6379   84.8609   88.4854 C   0  0  0  0  0  0  0  0  0  0  0  0
  1  2  2  0  0  0  0
  2 16  1  0  0  0  0
  3  4  2  0  0  0  0
  4  5  1  0  0  0  0
  5  1  1  0  0  0  0
  5  6  2  0  0  0  0
  6  7  1  0  0  0  0
  7  8  2  0  0  0  0
  8  9  1  0  0  0  0
  8  3  1  0  0  0  0
  9 10  1  0  0  0  0
 11 12  1  0  0  0  0
 11 14  1  0  0  0  0
 11 15  1  0  0  0  0
 12 13  2  0  0  0  0
 12  3  1  0  0  0  0
 16 17  1  0  0  0  0
 16 19  1  0  0  0  0
 17 18  2  0  0  0  0
 17 20  1  0  0  0  0
 21 20  1  1  0  0  0
 21 22  1  0  0  0  0
 23 22  1  1  0  0  0
 23 24  1  0  0  0  0
 25 24  1  6  0  0  0
 25 26  1  0  0  0  0
 25 30  1  0  0  0  0
 27 26  1  6  0  0  0
 27 28  1  0  0  0  0
 27 29  1  0  0  0  0
 28 23  1  0  0  0  0
 29 21  1  0  0  0  0
 30 21  1  0  0  0  0
M  END
>  <Activity>
116.0

>  <minimizedAffinity>
-7.92509

>  <RFScoreVS_v2>
5.96571507835

$$$$
HIPS6897
 OpenBabel05252300073D

 30 33  0  0  0  0  0  0  0  0999 V2000
   68.0768   78.5270   91.0337 C   0  0  0  0  0  0  0  0  0  0  0  0
   68.6845   79.3540   90.2916 N   0  0  0  0  0  0  0  0  0  0  0  0
   68.6315   74.8287   91.1368 C   0  0  0  0  0  0  0  0  0  0  0  0
   68.6467   76.1845   91.4619 C   0  0  0  0  0  0  0  0  0  0  0  0
   68.0454   77.1287   90.6721 C   0  0  0  0  0  0  0  0  0  0  0  0
   67.4085   76.7219   89.5238 C   0  0  0  0  0  0  0  0  0  0  0  0
   67.3734   75.3670   89.1657 C   0  0  0  0  0  0  0  0  0  0  0  0
   67.9875   74.4497   89.9831 C   0  0  0  0  0  0  0  0  0  0  0  0
   67.9905   73.0797   89.6848 O   0  0  0  0  0  0  0  0  0  0  0  0
   67.5656   72.7680   88.9100 H   0  0  0  0  0  0  0  0  0  0  0  0
   68.5600   72.7539   92.4644 N   0  0  0  0  0  0  0  0  0  0  0  0
   69.2841   73.8796   92.0110 C   0  0  0  0  0  0  0  0  0  0  0  0
   70.4688   74.0586   92.3553 O   0  0  0  0  0  0  0  0  0  0  0  0
   68.9906   72.0989   93.0600 H   0  0  0  0  0  0  0  0  0  0  0  0
   67.6250   72.6247   92.1845 H   0  0  0  0  0  0  0  0  0  0  0  0
   68.8124   80.7108   90.4844 N   0  0  0  0  0  0  0  0  0  0  0  0
   70.0471   81.4218   90.3924 C   0  0  0  0  0  0  0  0  0  0  0  0
   71.0421   80.7068   90.1152 O   0  0  0  0  0  0  0  0  0  0  0  0
   68.0002   81.2240   90.6996 H   0  0  0  0  0  0  0  0  0  0  0  0
   70.1703   82.8591   90.5988 C   0  0  0  0  0  0  0  0  0  0  0  0
   70.2458   83.7181   89.3903 C   0  0  1  0  0  0  0  0  0  0  0  0
   71.7207   83.8501   88.9503 C   0  0  0  0  0  0  0  0  0  0  0  0
   71.8279   84.5811   87.6571 C   0  0  2  0  0  0  0  0  0  0  0  0
   71.2652   85.9576   87.8092 C   0  0  0  0  0  0  0  0  0  0  0  0
   69.8252   85.8314   88.2366 C   0  0  1  0  0  0  0  0  0  0  0  0
   69.0806   85.1412   87.1267 C   0  0  0  0  0  0  0  0  0  0  0  0
   69.6564   83.7520   86.9366 C   0  0  1  0  0  0  0  0  0  0  0  0
   71.1118   83.7534   86.6082 C   0  0  0  0  0  0  0  0  0  0  0  0
   69.4632   83.0358   88.2705 C   0  0  0  0  0  0  0  0  0  0  0  0
   69.7194   85.0943   89.5603 C   0  0  0  0  0  0  0  0  0  0  0  0
  1  2  2  0  0  0  0
  2 16  1  0  0  0  0
  3  4  2  0  0  0  0
  4  5  1  0  0  0  0
  5  1  1  0  0  0  0
  5  6  2  0  0  0  0
  6  7  1  0  0  0  0
  7  8  2  0  0  0  0
  8  9  1  0  0  0  0
  8  3  1  0  0  0  0
  9 10  1  0  0  0  0
 11 12  1  0  0  0  0
 11 14  1  0  0  0  0
 11 15  1  0  0  0  0
 12 13  2  0  0  0  0
 12  3  1  0  0  0  0
 16 17  1  0  0  0  0
 16 19  1  0  0  0  0
 17 18  2  0  0  0  0
 17 20  1  0  0  0  0
 21 20  1  1  0  0  0
 21 22  1  0  0  0  0
 23 22  1  1  0  0  0
 23 24  1  0  0  0  0
 25 24  1  6  0  0  0
 25 26  1  0  0  0  0
 25 30  1  0  0  0  0
 27 26  1  1  0  0  0
 27 28  1  0  0  0  0
 27 29  1  0  0  0  0
 28 23  1  0  0  0  0
 29 21  1  0  0  0  0
 30 21  1  0  0  0  0
M  END
>  <Activity>
116.0

>  <minimizedAffinity>
-7.91558

>  <RFScoreVS_v2>
5.9645791287

$$$$
HIPS6897
 OpenBabel05252300073D

 30 33  0  0  0  0  0  0  0  0999 V2000
   70.7503   78.2431   90.8223 C   0  0  0  0  0  0  0  0  0  0  0  0
   70.3654   79.2432   90.1473 N   0  0  0  0  0  0  0  0  0  0  0  0
   68.1512   75.7121   89.9085 C   0  0  0  0  0  0  0  0  0  0  0  0
   68.9199   76.8750   89.9429 C   0  0  0  0  0  0  0  0  0  0  0  0
   69.9709   77.0268   90.8086 C   0  0  0  0  0  0  0  0  0  0  0  0
   70.2732   75.9978   91.6685 C   0  0  0  0  0  0  0  0  0  0  0  0
   69.5218   74.8142   91.6615 C   0  0  0  0  0  0  0  0  0  0  0  0
   68.4755   74.6990   90.7790 C   0  0  0  0  0  0  0  0  0  0  0  0
   67.6835   73.5437   90.7192 O   0  0  0  0  0  0  0  0  0  0  0  0
   67.8619   72.8232   91.2910 H   0  0  0  0  0  0  0  0  0  0  0  0
   66.2146   76.7309   88.7754 N   0  0  0  0  0  0  0  0  0  0  0  0
   67.0542   75.6114   88.9718 C   0  0  0  0  0  0  0  0  0  0  0  0
   66.8585   74.5486   88.3500 O   0  0  0  0  0  0  0  0  0  0  0  0
   65.4636   76.6777   88.1411 H   0  0  0  0  0  0  0  0  0  0  0  0
   66.3806   77.5640   89.2730 H   0  0  0  0  0  0  0  0  0  0  0  0
   70.9819   80.4698   90.0478 N   0  0  0  0  0  0  0  0  0  0  0  0
   70.3273   81.7180   90.2758 C   0  0  0  0  0  0  0  0  0  0  0  0
   69.1130   81.6224   90.5831 O   0  0  0  0  0  0  0  0  0  0  0  0
   71.9354   80.4875   89.8036 H   0  0  0  0  0  0  0  0  0  0  0  0
   70.9905   83.0110   90.1673 C   0  0  0  0  0  0  0  0  0  0  0  0
   70.5258   83.9287   89.0968 C   0  0  1  0  0  0  0  0  0  0  0  0
   69.5207   84.9391   89.6927 C   0  0  0  0  0  0  0  0  0  0  0  0
   69.1421   85.9706   88.6872 C   0  0  2  0  0  0  0  0  0  0  0  0
   68.4951   85.3128   87.5111 C   0  0  0  0  0  0  0  0  0  0  0  0
   69.4748   84.3276   86.9265 C   0  0  1  0  0  0  0  0  0  0  0  0
   70.6627   85.1070   86.4323 C   0  0  0  0  0  0  0  0  0  0  0  0
   71.3167   85.8062   87.6073 C   0  0  1  0  0  0  0  0  0  0  0  0
   70.4001   86.7367   88.3284 C   0  0  0  0  0  0  0  0  0  0  0  0
   71.7351   84.6982   88.5701 C   0  0  0  0  0  0  0  0  0  0  0  0
   69.8516   83.2713   87.9507 C   0  0  0  0  0  0  0  0  0  0  0  0
  1  2  2  0  0  0  0
  2 16  1  0  0  0  0
  3  4  2  0  0  0  0
  4  5  1  0  0  0  0
  5  1  1  0  0  0  0
  5  6  2  0  0  0  0
  6  7  1  0  0  0  0
  7  8  2  0  0  0  0
  8  9  1  0  0  0  0
  8  3  1  0  0  0  0
  9 10  1  0  0  0  0
 11 12  1  0  0  0  0
 11 14  1  0  0  0  0
 11 15  1  0  0  0  0
 12 13  2  0  0  0  0
 12  3  1  0  0  0  0
 16 17  1  0  0  0  0
 16 19  1  0  0  0  0
 17 18  2  0  0  0  0
 17 20  1  0  0  0  0
 21 20  1  1  0  0  0
 21 22  1  0  0  0  0
 23 22  1  1  0  0  0
 23 24  1  0  0  0  0
 25 24  1  1  0  0  0
 25 26  1  0  0  0  0
 25 30  1  0  0  0  0
 27 26  1  6  0  0  0
 27 28  1  0  0  0  0
 27 29  1  0  0  0  0
 28 23  1  0  0  0  0
 29 21  1  0  0  0  0
 30 21  1  0  0  0  0
M  END
>  <Activity>
116.0

>  <minimizedAffinity>
-7.89299

>  <RFScoreVS_v2>
5.97530300903

$$$$
HIPS6897
 OpenBabel05252300073D

 30 33  0  0  0  0  0  0  0  0999 V2000
   67.5317   77.7453   88.9158 C   0  0  0  0  0  0  0  0  0  0  0  0
   67.9620   78.9225   89.0975 N   0  0  0  0  0  0  0  0  0  0  0  0
   69.2252   75.9155   91.7051 C   0  0  0  0  0  0  0  0  0  0  0  0
   68.7555   76.9324   90.8746 C   0  0  0  0  0  0  0  0  0  0  0  0
   68.0052   76.6715   89.7583 C   0  0  0  0  0  0  0  0  0  0  0  0
   67.7088   75.3648   89.4513 C   0  0  0  0  0  0  0  0  0  0  0  0
   68.1644   74.3170   90.2638 C   0  0  0  0  0  0  0  0  0  0  0  0
   68.9140   74.6181   91.3747 C   0  0  0  0  0  0  0  0  0  0  0  0
   69.4012   73.6196   92.2299 O   0  0  0  0  0  0  0  0  0  0  0  0
   69.2178   72.7184   92.0503 H   0  0  0  0  0  0  0  0  0  0  0  0
   69.4138   76.1816   94.1476 N   0  0  0  0  0  0  0  0  0  0  0  0
   70.0126   76.2542   92.8697 C   0  0  0  0  0  0  0  0  0  0  0  0
   71.2021   76.6040   92.7401 O   0  0  0  0  0  0  0  0  0  0  0  0
   69.9370   76.4090   94.9500 H   0  0  0  0  0  0  0  0  0  0  0  0
   68.4735   75.9036   94.2355 H   0  0  0  0  0  0  0  0  0  0  0  0
   67.6200   80.0539   88.3924 N   0  0  0  0  0  0  0  0  0  0  0  0
   67.6356   81.3740   88.9362 C   0  0  0  0  0  0  0  0  0  0  0  0
   67.9931   81.4392   90.1387 O   0  0  0  0  0  0  0  0  0  0  0  0
   67.3471   79.9461   87.4526 H   0  0  0  0  0  0  0  0  0  0  0  0
   67.2712   82.5650   88.1797 C   0  0  0  0  0  0  0  0  0  0  0  0
   68.3399   83.5624   87.9207 C   0  0  1  0  0  0  0  0  0  0  0  0
   68.3559   84.6008   89.0643 C   0  0  0  0  0  0  0  0  0  0  0  0
   69.5080   85.5337   88.9213 C   0  0  2  0  0  0  0  0  0  0  0  0
   69.3989   86.2728   87.6265 C   0  0  0  0  0  0  0  0  0  0  0  0
   69.3851   85.2617   86.5086 C   0  0  1  0  0  0  0  0  0  0  0  0
   70.7073   84.5444   86.5284 C   0  0  0  0  0  0  0  0  0  0  0  0
   70.8503   83.8113   87.8473 C   0  0  1  0  0  0  0  0  0  0  0  0
   70.7752   84.7097   89.0361 C   0  0  0  0  0  0  0  0  0  0  0  0
   69.6810   82.8321   87.9076 C   0  0  0  0  0  0  0  0  0  0  0  0
   68.2039   84.3178   86.6514 C   0  0  0  0  0  0  0  0  0  0  0  0
  1  2  2  0  0  0  0
  2 16  1  0  0  0  0
  3  4  2  0  0  0  0
  4  5  1  0  0  0  0
  5  1  1  0  0  0  0
  5  6  2  0  0  0  0
  6  7  1  0  0  0  0
  7  8  2  0  0  0  0
  8  9  1  0  0  0  0
  8  3  1  0  0  0  0
  9 10  1  0  0  0  0
 11 12  1  0  0  0  0
 11 14  1  0  0  0  0
 11 15  1  0  0  0  0
 12 13  2  0  0  0  0
 12  3  1  0  0  0  0
 16 17  1  0  0  0  0
 16 19  1  0  0  0  0
 17 18  2  0  0  0  0
 17 20  1  0  0  0  0
 21 20  1  1  0  0  0
 21 22  1  0  0  0  0
 23 22  1  6  0  0  0
 23 24  1  0  0  0  0
 25 24  1  1  0  0  0
 25 26  1  0  0  0  0
 25 30  1  0  0  0  0
 27 26  1  6  0  0  0
 27 28  1  0  0  0  0
 27 29  1  0  0  0  0
 28 23  1  0  0  0  0
 29 21  1  0  0  0  0
 30 21  1  0  0  0  0
M  END
>  <Activity>
116.0

>  <minimizedAffinity>
-7.77582

>  <RFScoreVS_v2>
5.9575408765

$$$$
HIPS6897
 OpenBabel05252300073D

 30 33  0  0  0  0  0  0  0  0999 V2000
   69.1549   78.0467   90.3799 C   0  0  0  0  0  0  0  0  0  0  0  0
   68.8964   79.1280   89.7733 N   0  0  0  0  0  0  0  0  0  0  0  0
   68.0918   74.4611   90.2836 C   0  0  0  0  0  0  0  0  0  0  0  0
   68.6974   75.6581   90.6640 C   0  0  0  0  0  0  0  0  0  0  0  0
   68.5148   76.8207   89.9626 C   0  0  0  0  0  0  0  0  0  0  0  0
   67.7085   76.8016   88.8494 C   0  0  0  0  0  0  0  0  0  0  0  0
   67.0836   75.6161   88.4378 C   0  0  0  0  0  0  0  0  0  0  0  0
   67.2906   74.4705   89.1668 C   0  0  0  0  0  0  0  0  0  0  0  0
   66.6968   73.2512   88.8113 O   0  0  0  0  0  0  0  0  0  0  0  0
   66.1413   73.2026   88.0582 H   0  0  0  0  0  0  0  0  0  0  0  0
   67.2143   72.5632   91.5875 N   0  0  0  0  0  0  0  0  0  0  0  0
   68.3230   73.2665   91.0651 C   0  0  0  0  0  0  0  0  0  0  0  0
   69.4866   72.8691   91.2705 O   0  0  0  0  0  0  0  0  0  0  0  0
   67.3555   71.7482   92.1214 H   0  0  0  0  0  0  0  0  0  0  0  0
   66.3006   72.8881   91.4174 H   0  0  0  0  0  0  0  0  0  0  0  0
   69.4122   80.3765   90.0371 N   0  0  0  0  0  0  0  0  0  0  0  0
   68.6216   81.5551   90.1932 C   0  0  0  0  0  0  0  0  0  0  0  0
   67.3845   81.3741   90.0704 O   0  0  0  0  0  0  0  0  0  0  0  0
   70.3891   80.4624   90.1237 H   0  0  0  0  0  0  0  0  0  0  0  0
   69.1790   82.8722   90.4724 C   0  0  0  0  0  0  0  0  0  0  0  0
   69.8184   83.5957   89.3448 C   0  0  1  0  0  0  0  0  0  0  0  0
   69.1184   83.2029   88.0249 C   0  0  0  0  0  0  0  0  0  0  0  0
   69.6301   84.0168   86.8873 C   0  0  2  0  0  0  0  0  0  0  0  0
   71.0970   83.7822   86.7209 C   0  0  0  0  0  0  0  0  0  0  0  0
   71.7827   84.1668   88.0070 C   0  0  1  0  0  0  0  0  0  0  0  0
   71.5648   85.6405   88.2151 C   0  0  0  0  0  0  0  0  0  0  0  0
   70.0788   85.9036   88.3572 C   0  0  1  0  0  0  0  0  0  0  0  0
   69.2833   85.4644   87.1739 C   0  0  0  0  0  0  0  0  0  0  0  0
   69.6273   85.0940   89.5698 C   0  0  0  0  0  0  0  0  0  0  0  0
   71.2662   83.3288   89.1636 C   0  0  0  0  0  0  0  0  0  0  0  0
  1  2  2  0  0  0  0
  2 16  1  0  0  0  0
  3  4  2  0  0  0  0
  4  5  1  0  0  0  0
  5  1  1  0  0  0  0
  5  6  2  0  0  0  0
  6  7  1  0  0  0  0
  7  8  2  0  0  0  0
  8  9  1  0  0  0  0
  8  3  1  0  0  0  0
  9 10  1  0  0  0  0
 11 12  1  0  0  0  0
 11 14  1  0  0  0  0
 11 15  1  0  0  0  0
 12 13  2  0  0  0  0
 12  3  1  0  0  0  0
 16 17  1  0  0  0  0
 16 19  1  0  0  0  0
 17 18  2  0  0  0  0
 17 20  1  0  0  0  0
 21 20  1  1  0  0  0
 21 22  1  0  0  0  0
 23 22  1  1  0  0  0
 23 24  1  0  0  0  0
 25 24  1  6  0  0  0
 25 26  1  0  0  0  0
 25 30  1  0  0  0  0
 27 26  1  6  0  0  0
 27 28  1  0  0  0  0
 27 29  1  0  0  0  0
 28 23  1  0  0  0  0
 29 21  1  0  0  0  0
 30 21  1  0  0  0  0
M  END
>  <Activity>
116.0

>  <minimizedAffinity>
-7.77450

>  <RFScoreVS_v2>
5.95509859861

$$$$
HIPS6897
 OpenBabel05252300073D

 30 33  0  0  0  0  0  0  0  0999 V2000
   67.0080   76.7262   91.8848 C   0  0  0  0  0  0  0  0  0  0  0  0
   68.0490   77.3900   91.6026 N   0  0  0  0  0  0  0  0  0  0  0  0
   68.1114   74.1580   94.3714 C   0  0  0  0  0  0  0  0  0  0  0  0
   68.0820   75.0230   93.2782 C   0  0  0  0  0  0  0  0  0  0  0  0
   67.0112   75.8395   93.0253 C   0  0  0  0  0  0  0  0  0  0  0  0
   65.9343   75.8010   93.8788 C   0  0  0  0  0  0  0  0  0  0  0  0
   65.9295   74.9435   94.9879 C   0  0  0  0  0  0  0  0  0  0  0  0
   67.0214   74.1399   95.2086 C   0  0  0  0  0  0  0  0  0  0  0  0
   67.0825   73.2594   96.2979 O   0  0  0  0  0  0  0  0  0  0  0  0
   66.3659   73.2079   96.8994 H   0  0  0  0  0  0  0  0  0  0  0  0
   69.4515   72.1784   93.7733 N   0  0  0  0  0  0  0  0  0  0  0  0
   69.2706   73.3205   94.5855 C   0  0  0  0  0  0  0  0  0  0  0  0
   70.0943   73.6088   95.4759 O   0  0  0  0  0  0  0  0  0  0  0  0
   70.2358   71.5985   93.9070 H   0  0  0  0  0  0  0  0  0  0  0  0
   68.7933   71.9627   93.0737 H   0  0  0  0  0  0  0  0  0  0  0  0
   68.2183   78.2734   90.5608 N   0  0  0  0  0  0  0  0  0  0  0  0
   67.8393   79.6492   90.6053 C   0  0  0  0  0  0  0  0  0  0  0  0
   67.3245   80.0142   91.6916 O   0  0  0  0  0  0  0  0  0  0  0  0
   68.6270   77.9348   89.7316 H   0  0  0  0  0  0  0  0  0  0  0  0
   68.0235   80.5754   89.4955 C   0  0  0  0  0  0  0  0  0  0  0  0
   68.9976   81.6800   89.6829 C   0  0  1  0  0  0  0  0  0  0  0  0
   68.4667   82.6501   90.7616 C   0  0  0  0  0  0  0  0  0  0  0  0
   69.4802   83.6918   91.0871 C   0  0  2  0  0  0  0  0  0  0  0  0
   69.7938   84.4886   89.8618 C   0  0  0  0  0  0  0  0  0  0  0  0
   70.3140   83.5444   88.8082 C   0  0  1  0  0  0  0  0  0  0  0  0
   71.5975   82.9520   89.3227 C   0  0  0  0  0  0  0  0  0  0  0  0
   71.3053   82.1628   90.5834 C   0  0  1  0  0  0  0  0  0  0  0  0
   70.6884   82.9829   91.6665 C   0  0  0  0  0  0  0  0  0  0  0  0
   70.3123   81.0782   90.1742 C   0  0  0  0  0  0  0  0  0  0  0  0
   69.2751   82.4891   88.4711 C   0  0  0  0  0  0  0  0  0  0  0  0
  1  2  2  0  0  0  0
  2 16  1  0  0  0  0
  3  4  2  0  0  0  0
  4  5  1  0  0  0  0
  5  1  1  0  0  0  0
  5  6  2  0  0  0  0
  6  7  1  0  0  0  0
  7  8  2  0  0  0  0
  8  9  1  0  0  0  0
  8  3  1  0  0  0  0
  9 10  1  0  0  0  0
 11 12  1  0  0  0  0
 11 14  1  0  0  0  0
 11 15  1  0  0  0  0
 12 13  2  0  0  0  0
 12  3  1  0  0  0  0
 16 17  1  0  0  0  0
 16 19  1  0  0  0  0
 17 18  2  0  0  0  0
 17 20  1  0  0  0  0
 21 20  1  6  0  0  0
 21 22  1  0  0  0  0
 23 22  1  6  0  0  0
 23 24  1  0  0  0  0
 25 24  1  1  0  0  0
 25 26  1  0  0  0  0
 25 30  1  0  0  0  0
 27 26  1  6  0  0  0
 27 28  1  0  0  0  0
 27 29  1  0  0  0  0
 28 23  1  0  0  0  0
 29 21  1  0  0  0  0
 30 21  1  0  0  0  0
M  END
>  <Activity>
116.0

>  <minimizedAffinity>
-7.77322

>  <RFScoreVS_v2>
5.95459035864

$$$$
HIPS6897
 OpenBabel05252300073D

 30 33  0  0  0  0  0  0  0  0999 V2000
   69.7999   80.9412   90.2692 C   0  0  0  0  0  0  0  0  0  0  0  0
   69.0444   80.2154   89.5575 N   0  0  0  0  0  0  0  0  0  0  0  0
   70.4465   84.0257   88.2533 C   0  0  0  0  0  0  0  0  0  0  0  0
   69.8150   82.9307   88.8418 C   0  0  0  0  0  0  0  0  0  0  0  0
   70.4797   82.0679   89.6730 C   0  0  0  0  0  0  0  0  0  0  0  0
   71.8108   82.2929   89.9319 C   0  0  0  0  0  0  0  0  0  0  0  0
   72.4779   83.3840   89.3576 C   0  0  0  0  0  0  0  0  0  0  0  0
   71.7779   84.2271   88.5294 C   0  0  0  0  0  0  0  0  0  0  0  0
   72.3830   85.3365   87.9221 O   0  0  0  0  0  0  0  0  0  0  0  0
   73.2888   85.5193   88.0770 H   0  0  0  0  0  0  0  0  0  0  0  0
   70.1638   85.1426   86.0750 N   0  0  0  0  0  0  0  0  0  0  0  0
   69.6912   84.9009   87.3846 C   0  0  0  0  0  0  0  0  0  0  0  0
   68.6390   85.4307   87.7924 O   0  0  0  0  0  0  0  0  0  0  0  0
   69.6607   85.7361   85.4718 H   0  0  0  0  0  0  0  0  0  0  0  0
   70.9963   84.7176   85.7658 H   0  0  0  0  0  0  0  0  0  0  0  0
   68.3264   79.1122   89.9599 N   0  0  0  0  0  0  0  0  0  0  0  0
   68.1759   77.9248   89.1817 C   0  0  0  0  0  0  0  0  0  0  0  0
   68.7596   77.9517   88.0696 O   0  0  0  0  0  0  0  0  0  0  0  0
   67.8885   79.1441   90.8411 H   0  0  0  0  0  0  0  0  0  0  0  0
   67.4129   76.7626   89.6183 C   0  0  0  0  0  0  0  0  0  0  0  0
   68.0108   75.9126   90.6785 C   0  0  1  0  0  0  0  0  0  0  0  0
   67.2180   76.1017   91.9908 C   0  0  0  0  0  0  0  0  0  0  0  0
   67.6913   75.1571   93.0405 C   0  0  2  0  0  0  0  0  0  0  0  0
   69.1355   75.4111   93.3314 C   0  0  0  0  0  0  0  0  0  0  0  0
   69.9116   75.2252   92.0527 C   0  0  1  0  0  0  0  0  0  0  0  0
   69.7636   73.7872   91.6363 C   0  0  0  0  0  0  0  0  0  0  0  0
   68.3002   73.5011   91.3644 C   0  0  1  0  0  0  0  0  0  0  0  0
   67.4185   73.7518   92.5416 C   0  0  0  0  0  0  0  0  0  0  0  0
   67.8916   74.4535   90.2438 C   0  0  0  0  0  0  0  0  0  0  0  0
   69.4337   76.1961   90.9871 C   0  0  0  0  0  0  0  0  0  0  0  0
  1  2  2  0  0  0  0
  2 16  1  0  0  0  0
  3  4  2  0  0  0  0
  4  5  1  0  0  0  0
  5  1  1  0  0  0  0
  5  6  2  0  0  0  0
  6  7  1  0  0  0  0
  7  8  2  0  0  0  0
  8  9  1  0  0  0  0
  8  3  1  0  0  0  0
  9 10  1  0  0  0  0
 11 12  1  0  0  0  0
 11 14  1  0  0  0  0
 11 15  1  0  0  0  0
 12 13  2  0  0  0  0
 12  3  1  0  0  0  0
 16 17  1  0  0  0  0
 16 19  1  0  0  0  0
 17 18  2  0  0  0  0
 17 20  1  0  0  0  0
 21 20  1  6  0  0  0
 21 22  1  0  0  0  0
 23 22  1  6  0  0  0
 23 24  1  0  0  0  0
 25 24  1  1  0  0  0
 25 26  1  0  0  0  0
 25 30  1  0  0  0  0
 27 26  1  1  0  0  0
 27 28  1  0  0  0  0
 27 29  1  0  0  0  0
 28 23  1  0  0  0  0
 29 21  1  0  0  0  0
 30 21  1  0  0  0  0
M  END
>  <Activity>
116.0

>  <minimizedAffinity>
-7.76347

>  <RFScoreVS_v2>
5.95585352745

$$$$
HIPS6897
 OpenBabel05252300073D

 30 33  0  0  0  0  0  0  0  0999 V2000
   71.3873   81.8676   90.0948 C   0  0  0  0  0  0  0  0  0  0  0  0
   70.9682   80.6845   89.9259 N   0  0  0  0  0  0  0  0  0  0  0  0
   69.3366   84.1473   87.9514 C   0  0  0  0  0  0  0  0  0  0  0  0
   69.7128   83.1596   88.8609 C   0  0  0  0  0  0  0  0  0  0  0  0
   71.0265   82.8973   89.1479 C   0  0  0  0  0  0  0  0  0  0  0  0
   72.0009   83.6335   88.5168 C   0  0  0  0  0  0  0  0  0  0  0  0
   71.6592   84.6346   87.5967 C   0  0  0  0  0  0  0  0  0  0  0  0
   70.3313   84.8685   87.3350 C   0  0  0  0  0  0  0  0  0  0  0  0
   69.9198   85.8538   86.4264 O   0  0  0  0  0  0  0  0  0  0  0  0
   70.5577   86.3740   85.9787 H   0  0  0  0  0  0  0  0  0  0  0  0
   67.4072   84.0431   86.4222 N   0  0  0  0  0  0  0  0  0  0  0  0
   67.9331   84.3775   87.6904 C   0  0  0  0  0  0  0  0  0  0  0  0
   67.2038   84.8641   88.5768 O   0  0  0  0  0  0  0  0  0  0  0  0
   66.4536   84.1939   86.2294 H   0  0  0  0  0  0  0  0  0  0  0  0
   67.9944   83.6594   85.7314 H   0  0  0  0  0  0  0  0  0  0  0  0
   71.2137   79.5905   90.7242 N   0  0  0  0  0  0  0  0  0  0  0  0
   70.8047   78.2592   90.4095 C   0  0  0  0  0  0  0  0  0  0  0  0
   70.1861   78.1462   89.3220 O   0  0  0  0  0  0  0  0  0  0  0  0
   71.7028   79.7352   91.5662 H   0  0  0  0  0  0  0  0  0  0  0  0
   71.0704   77.1083   91.2628 C   0  0  0  0  0  0  0  0  0  0  0  0
   69.9087   76.4762   91.9375 C   0  0  1  0  0  0  0  0  0  0  0  0
   69.8772   74.9705   91.5940 C   0  0  0  0  0  0  0  0  0  0  0  0
   68.8153   74.2692   92.3678 C   0  0  2  0  0  0  0  0  0  0  0  0
   67.4799   74.8493   92.0290 C   0  0  0  0  0  0  0  0  0  0  0  0
   67.5074   76.3185   92.3652 C   0  0  1  0  0  0  0  0  0  0  0  0
   67.7078   76.4409   93.8511 C   0  0  0  0  0  0  0  0  0  0  0  0
   69.0456   75.8311   94.2197 C   0  0  1  0  0  0  0  0  0  0  0  0
   69.1678   74.3943   93.8368 C   0  0  0  0  0  0  0  0  0  0  0  0
   70.0929   76.6276   93.4459 C   0  0  0  0  0  0  0  0  0  0  0  0
   68.5845   77.0329   91.5677 C   0  0  0  0  0  0  0  0  0  0  0  0
  1  2  2  0  0  0  0
  2 16  1  0  0  0  0
  3  4  2  0  0  0  0
  4  5  1  0  0  0  0
  5  1  1  0  0  0  0
  5  6  2  0  0  0  0
  6  7  1  0  0  0  0
  7  8  2  0  0  0  0
  8  9  1  0  0  0  0
  8  3  1  0  0  0  0
  9 10  1  0  0  0  0
 11 12  1  0  0  0  0
 11 14  1  0  0  0  0
 11 15  1  0  0  0  0
 12 13  2  0  0  0  0
 12  3  1  0  0  0  0
 16 17  1  0  0  0  0
 16 19  1  0  0  0  0
 17 18  2  0  0  0  0
 17 20  1  0  0  0  0
 21 20  1  6  0  0  0
 21 22  1  0  0  0  0
 23 22  1  6  0  0  0
 23 24  1  0  0  0  0
 25 24  1  6  0  0  0
 25 26  1  0  0  0  0
 25 30  1  0  0  0  0
 27 26  1  6  0  0  0
 27 28  1  0  0  0  0
 27 29  1  0  0  0  0
 28 23  1  0  0  0  0
 29 21  1  0  0  0  0
 30 21  1  0  0  0  0
M  END
>  <Activity>
116.0

>  <minimizedAffinity>
-7.72455

>  <RFScoreVS_v2>
5.96384550466

$$$$
HIPS6706
 OpenBabel05252300073D

 25 27  0  0  0  0  0  0  0  0999 V2000
   66.8161   81.4301   87.4526 N   0  0  0  0  0  0  0  0  0  0  0  0
   66.5608   80.3411   88.1201 C   0  0  0  0  0  0  0  0  0  0  0  0
   67.5530   79.6169   88.9380 C   0  0  0  0  0  0  0  0  0  0  0  0
   68.6994   80.1313   89.5172 C   0  0  0  0  0  0  0  0  0  0  0  0
   69.3126   79.0701   90.1467 C   0  0  0  0  0  0  0  0  0  0  0  0
   68.5092   77.9667   89.9045 C   0  0  0  0  0  0  0  0  0  0  0  0
   67.4755   78.3287   89.1768 O   0  0  0  0  0  0  0  0  0  0  0  0
   68.7369   76.5773   90.3654 C   0  0  0  0  0  0  0  0  0  0  0  0
   69.7080   76.3235   91.3505 C   0  0  0  0  0  0  0  0  0  0  0  0
   69.9399   75.0198   91.7994 C   0  0  0  0  0  0  0  0  0  0  0  0
   69.2062   73.9547   91.2703 C   0  0  0  0  0  0  0  0  0  0  0  0
   69.4989   72.3198   91.8347 Cl  0  0  0  0  0  0  0  0  0  0  0  0
   68.2388   74.1944   90.2905 C   0  0  0  0  0  0  0  0  0  0  0  0
   68.0034   75.4968   89.8385 C   0  0  0  0  0  0  0  0  0  0  0  0
   67.1289   84.0440   86.4940 O   0  0  0  0  0  0  0  0  0  0  0  0
   68.0942   83.5315   87.1243 C   0  0  0  0  0  0  0  0  0  0  0  0
   68.0165   82.1573   87.5373 N   0  0  0  0  0  0  0  0  0  0  0  0
   68.8230   81.7145   87.8878 H   0  0  0  0  0  0  0  0  0  0  0  0
   69.2939   84.3520   87.4191 C   0  0  0  0  0  0  0  0  0  0  0  0
   69.1738   85.7074   87.7805 C   0  0  0  0  0  0  0  0  0  0  0  0
   70.3132   86.4744   88.0424 C   0  0  0  0  0  0  0  0  0  0  0  0
   71.5839   85.9015   87.9429 C   0  0  0  0  0  0  0  0  0  0  0  0
   73.1378   86.9527   88.3001 Br  0  0  0  0  0  0  0  0  0  0  0  0
   71.7158   84.5596   87.5763 C   0  0  0  0  0  0  0  0  0  0  0  0
   70.5794   83.7891   87.3121 C   0  0  0  0  0  0  0  0  0  0  0  0
  1  2  2  0  0  0  0
  2  3  1  0  0  0  0
  3  4  2  0  0  0  0
  4  5  1  0  0  0  0
  5  6  2  0  0  0  0
  6  8  1  0  0  0  0
  6  7  1  0  0  0  0
  7  3  1  0  0  0  0
  8  9  2  0  0  0  0
  9 10  1  0  0  0  0
 10 11  2  0  0  0  0
 11 12  1  0  0  0  0
 11 13  1  0  0  0  0
 13 14  2  0  0  0  0
 14  8  1  0  0  0  0
 15 16  2  0  0  0  0
 16 17  1  0  0  0  0
 16 19  1  0  0  0  0
 17  1  1  0  0  0  0
 17 18  1  0  0  0  0
 19 20  2  0  0  0  0
 20 21  1  0  0  0  0
 21 22  2  0  0  0  0
 22 23  1  0  0  0  0
 22 24  1  0  0  0  0
 24 25  2  0  0  0  0
 25 19  1  0  0  0  0
M  END
>  <Activity>
122.3

>  <minimizedAffinity>
-7.78359

>  <RFScoreVS_v2>
5.95

$$$$
HIPS6706
 OpenBabel05252300073D

 25 27  0  0  0  0  0  0  0  0999 V2000
   66.2153   76.9566   88.1699 N   0  0  0  0  0  0  0  0  0  0  0  0
   66.3570   78.2360   87.9711 C   0  0  0  0  0  0  0  0  0  0  0  0
   67.0598   79.1470   88.8953 C   0  0  0  0  0  0  0  0  0  0  0  0
   66.7111   79.4532   90.1987 C   0  0  0  0  0  0  0  0  0  0  0  0
   67.6450   80.3681   90.6337 C   0  0  0  0  0  0  0  0  0  0  0  0
   68.5029   80.5754   89.5649 C   0  0  0  0  0  0  0  0  0  0  0  0
   68.1198   79.8375   88.5461 O   0  0  0  0  0  0  0  0  0  0  0  0
   69.6770   81.4780   89.5236 C   0  0  0  0  0  0  0  0  0  0  0  0
   70.8309   81.1494   90.2575 C   0  0  0  0  0  0  0  0  0  0  0  0
   71.9498   81.9873   90.2335 C   0  0  0  0  0  0  0  0  0  0  0  0
   71.9303   83.1625   89.4777 C   0  0  0  0  0  0  0  0  0  0  0  0
   73.3352   84.2125   89.4492 Cl  0  0  0  0  0  0  0  0  0  0  0  0
   70.7892   83.4999   88.7446 C   0  0  0  0  0  0  0  0  0  0  0  0
   69.6676   82.6647   88.7655 C   0  0  0  0  0  0  0  0  0  0  0  0
   66.8451   74.2315   88.0073 O   0  0  0  0  0  0  0  0  0  0  0  0
   67.2342   74.8630   89.0279 C   0  0  0  0  0  0  0  0  0  0  0  0
   66.8391   76.2336   89.2021 N   0  0  0  0  0  0  0  0  0  0  0  0
   67.0092   76.6769   90.0645 H   0  0  0  0  0  0  0  0  0  0  0  0
   68.0831   74.1782   90.0327 C   0  0  0  0  0  0  0  0  0  0  0  0
   68.0845   72.7748   90.1445 C   0  0  0  0  0  0  0  0  0  0  0  0
   68.8788   72.1414   91.1054 C   0  0  0  0  0  0  0  0  0  0  0  0
   69.6762   72.8986   91.9677 C   0  0  0  0  0  0  0  0  0  0  0  0
   70.7584   72.0299   93.2798 Br  0  0  0  0  0  0  0  0  0  0  0  0
   69.6760   74.2926   91.8721 C   0  0  0  0  0  0  0  0  0  0  0  0
   68.8825   74.9304   90.9137 C   0  0  0  0  0  0  0  0  0  0  0  0
  1  2  2  0  0  0  0
  2  3  1  0  0  0  0
  3  4  2  0  0  0  0
  4  5  1  0  0  0  0
  5  6  2  0  0  0  0
  6  8  1  0  0  0  0
  6  7  1  0  0  0  0
  7  3  1  0  0  0  0
  8  9  2  0  0  0  0
  9 10  1  0  0  0  0
 10 11  2  0  0  0  0
 11 12  1  0  0  0  0
 11 13  1  0  0  0  0
 13 14  2  0  0  0  0
 14  8  1  0  0  0  0
 15 16  2  0  0  0  0
 16 17  1  0  0  0  0
 16 19  1  0  0  0  0
 17  1  1  0  0  0  0
 17 18  1  0  0  0  0
 19 20  2  0  0  0  0
 20 21  1  0  0  0  0
 21 22  2  0  0  0  0
 22 23  1  0  0  0  0
 22 24  1  0  0  0  0
 24 25  2  0  0  0  0
 25 19  1  0  0  0  0
M  END
>  <Activity>
122.3

>  <minimizedAffinity>
-7.48550

>  <RFScoreVS_v2>
5.95

$$$$
HIPS6706
 OpenBabel05252300073D

 25 27  0  0  0  0  0  0  0  0999 V2000
   67.1682   74.0737   94.8428 N   0  0  0  0  0  0  0  0  0  0  0  0
   66.8816   75.2968   94.4984 C   0  0  0  0  0  0  0  0  0  0  0  0
   67.4392   75.9781   93.3140 C   0  0  0  0  0  0  0  0  0  0  0  0
   68.3731   76.9987   93.2950 C   0  0  0  0  0  0  0  0  0  0  0  0
   68.5492   77.3239   91.9677 C   0  0  0  0  0  0  0  0  0  0  0  0
   67.7026   76.4894   91.2547 C   0  0  0  0  0  0  0  0  0  0  0  0
   67.0535   75.7074   92.0891 O   0  0  0  0  0  0  0  0  0  0  0  0
   67.5174   76.4485   89.7854 C   0  0  0  0  0  0  0  0  0  0  0  0
   67.6736   77.6266   89.0334 C   0  0  0  0  0  0  0  0  0  0  0  0
   67.5026   77.6109   87.6459 C   0  0  0  0  0  0  0  0  0  0  0  0
   67.1734   76.4201   86.9930 C   0  0  0  0  0  0  0  0  0  0  0  0
   66.9591   76.4026   85.2520 Cl  0  0  0  0  0  0  0  0  0  0  0  0
   67.0151   75.2430   87.7296 C   0  0  0  0  0  0  0  0  0  0  0  0
   67.1852   75.2540   89.1177 C   0  0  0  0  0  0  0  0  0  0  0  0
   69.9632   73.8963   94.9195 O   0  0  0  0  0  0  0  0  0  0  0  0
   69.3418   73.0547   94.2145 C   0  0  0  0  0  0  0  0  0  0  0  0
   67.9182   73.1775   94.0609 N   0  0  0  0  0  0  0  0  0  0  0  0
   67.4572   72.6210   93.3923 H   0  0  0  0  0  0  0  0  0  0  0  0
   70.0911   71.9609   93.5501 C   0  0  0  0  0  0  0  0  0  0  0  0
   71.3393   71.5346   94.0423 C   0  0  0  0  0  0  0  0  0  0  0  0
   72.0427   70.5117   93.3990 C   0  0  0  0  0  0  0  0  0  0  0  0
   71.5132   69.9057   92.2565 C   0  0  0  0  0  0  0  0  0  0  0  0
   72.4777   68.5099   91.3797 Br  0  0  0  0  0  0  0  0  0  0  0  0
   70.2794   70.3267   91.7536 C   0  0  0  0  0  0  0  0  0  0  0  0
   69.5729   71.3500   92.3928 C   0  0  0  0  0  0  0  0  0  0  0  0
  1  2  2  0  0  0  0
  2  3  1  0  0  0  0
  3  4  2  0  0  0  0
  4  5  1  0  0  0  0
  5  6  2  0  0  0  0
  6  8  1  0  0  0  0
  6  7  1  0  0  0  0
  7  3  1  0  0  0  0
  8  9  2  0  0  0  0
  9 10  1  0  0  0  0
 10 11  2  0  0  0  0
 11 12  1  0  0  0  0
 11 13  1  0  0  0  0
 13 14  2  0  0  0  0
 14  8  1  0  0  0  0
 15 16  2  0  0  0  0
 16 17  1  0  0  0  0
 16 19  1  0  0  0  0
 17  1  1  0  0  0  0
 17 18  1  0  0  0  0
 19 20  2  0  0  0  0
 20 21  1  0  0  0  0
 21 22  2  0  0  0  0
 22 23  1  0  0  0  0
 22 24  1  0  0  0  0
 24 25  2  0  0  0  0
 25 19  1  0  0  0  0
M  END
>  <Activity>
122.3

>  <minimizedAffinity>
-7.48289

>  <RFScoreVS_v2>
5.95

$$$$
HIPS6706
 OpenBabel05252300073D

 25 27  0  0  0  0  0  0  0  0999 V2000
   66.5904   76.4502   87.1627 N   0  0  0  0  0  0  0  0  0  0  0  0
   66.5596   77.6957   86.7829 C   0  0  0  0  0  0  0  0  0  0  0  0
   66.8999   78.8377   87.6535 C   0  0  0  0  0  0  0  0  0  0  0  0
   66.7465   78.9218   89.0259 C   0  0  0  0  0  0  0  0  0  0  0  0
   67.1691   80.1856   89.3758 C   0  0  0  0  0  0  0  0  0  0  0  0
   67.5452   80.8033   88.1933 C   0  0  0  0  0  0  0  0  0  0  0  0
   67.3650   79.9737   87.1891 O   0  0  0  0  0  0  0  0  0  0  0  0
   68.0687   82.1798   88.0314 C   0  0  0  0  0  0  0  0  0  0  0  0
   67.3395   83.1149   87.2753 C   0  0  0  0  0  0  0  0  0  0  0  0
   67.8154   84.4190   87.1089 C   0  0  0  0  0  0  0  0  0  0  0  0
   69.0242   84.8047   87.6944 C   0  0  0  0  0  0  0  0  0  0  0  0
   69.6197   86.4413   87.4842 Cl  0  0  0  0  0  0  0  0  0  0  0  0
   69.7580   83.8841   88.4476 C   0  0  0  0  0  0  0  0  0  0  0  0
   69.2858   82.5786   88.6168 C   0  0  0  0  0  0  0  0  0  0  0  0
   66.5856   73.7675   87.9704 O   0  0  0  0  0  0  0  0  0  0  0  0
   67.1667   74.6029   88.7160 C   0  0  0  0  0  0  0  0  0  0  0  0
   67.0985   76.0019   88.3947 N   0  0  0  0  0  0  0  0  0  0  0  0
   67.4152   76.6621   89.0528 H   0  0  0  0  0  0  0  0  0  0  0  0
   67.9008   74.1283   89.9140 C   0  0  0  0  0  0  0  0  0  0  0  0
   68.6750   75.0139   90.6875 C   0  0  0  0  0  0  0  0  0  0  0  0
   69.3739   74.5516   91.8068 C   0  0  0  0  0  0  0  0  0  0  0  0
   69.3130   73.2022   92.1651 C   0  0  0  0  0  0  0  0  0  0  0  0
   70.2702   72.5743   93.6938 Br  0  0  0  0  0  0  0  0  0  0  0  0
   68.5551   72.3122   91.3997 C   0  0  0  0  0  0  0  0  0  0  0  0
   67.8556   72.7696   90.2789 C   0  0  0  0  0  0  0  0  0  0  0  0
  1  2  2  0  0  0  0
  2  3  1  0  0  0  0
  3  4  2  0  0  0  0
  4  5  1  0  0  0  0
  5  6  2  0  0  0  0
  6  8  1  0  0  0  0
  6  7  1  0  0  0  0
  7  3  1  0  0  0  0
  8  9  2  0  0  0  0
  9 10  1  0  0  0  0
 10 11  2  0  0  0  0
 11 12  1  0  0  0  0
 11 13  1  0  0  0  0
 13 14  2  0  0  0  0
 14  8  1  0  0  0  0
 15 16  2  0  0  0  0
 16 17  1  0  0  0  0
 16 19  1  0  0  0  0
 17  1  1  0  0  0  0
 17 18  1  0  0  0  0
 19 20  2  0  0  0  0
 20 21  1  0  0  0  0
 21 22  2  0  0  0  0
 22 23  1  0  0  0  0
 22 24  1  0  0  0  0
 24 25  2  0  0  0  0
 25 19  1  0  0  0  0
M  END
>  <Activity>
122.3

>  <minimizedAffinity>
-7.43645

>  <RFScoreVS_v2>
5.95

$$$$
HIPS6706
 OpenBabel05252300073D

 25 27  0  0  0  0  0  0  0  0999 V2000
   66.9339   77.6009   91.2203 N   0  0  0  0  0  0  0  0  0  0  0  0
   67.2221   78.6988   90.5816 C   0  0  0  0  0  0  0  0  0  0  0  0
   68.5943   79.1939   90.3587 C   0  0  0  0  0  0  0  0  0  0  0  0
   69.7757   78.4901   90.5117 C   0  0  0  0  0  0  0  0  0  0  0  0
   70.7858   79.3816   90.2231 C   0  0  0  0  0  0  0  0  0  0  0  0
   70.1610   80.5818   89.9219 C   0  0  0  0  0  0  0  0  0  0  0  0
   68.8580   80.4340   90.0194 O   0  0  0  0  0  0  0  0  0  0  0  0
   70.8122   81.8590   89.5482 C   0  0  0  0  0  0  0  0  0  0  0  0
   70.1030   82.8011   88.7817 C   0  0  0  0  0  0  0  0  0  0  0  0
   70.6985   84.0123   88.4171 C   0  0  0  0  0  0  0  0  0  0  0  0
   72.0081   84.2972   88.8125 C   0  0  0  0  0  0  0  0  0  0  0  0
   72.7536   85.8175   88.3538 Cl  0  0  0  0  0  0  0  0  0  0  0  0
   72.7232   83.3687   89.5740 C   0  0  0  0  0  0  0  0  0  0  0  0
   72.1315   82.1558   89.9410 C   0  0  0  0  0  0  0  0  0  0  0  0
   66.4476   75.7076   93.2274 O   0  0  0  0  0  0  0  0  0  0  0  0
   67.5452   75.6376   92.6093 C   0  0  0  0  0  0  0  0  0  0  0  0
   67.8801   76.6534   91.6496 N   0  0  0  0  0  0  0  0  0  0  0  0
   68.7935   76.6868   91.2840 H   0  0  0  0  0  0  0  0  0  0  0  0
   68.4731   74.5154   92.8904 C   0  0  0  0  0  0  0  0  0  0  0  0
   68.8410   74.1926   94.2104 C   0  0  0  0  0  0  0  0  0  0  0  0
   69.7277   73.1411   94.4617 C   0  0  0  0  0  0  0  0  0  0  0  0
   70.2608   72.4030   93.4015 C   0  0  0  0  0  0  0  0  0  0  0  0
   71.4727   70.9685   93.7487 Br  0  0  0  0  0  0  0  0  0  0  0  0
   69.9099   72.7200   92.0867 C   0  0  0  0  0  0  0  0  0  0  0  0
   69.0246   73.7714   91.8304 C   0  0  0  0  0  0  0  0  0  0  0  0
  1  2  2  0  0  0  0
  2  3  1  0  0  0  0
  3  4  2  0  0  0  0
  4  5  1  0  0  0  0
  5  6  2  0  0  0  0
  6  8  1  0  0  0  0
  6  7  1  0  0  0  0
  7  3  1  0  0  0  0
  8  9  2  0  0  0  0
  9 10  1  0  0  0  0
 10 11  2  0  0  0  0
 11 12  1  0  0  0  0
 11 13  1  0  0  0  0
 13 14  2  0  0  0  0
 14  8  1  0  0  0  0
 15 16  2  0  0  0  0
 16 17  1  0  0  0  0
 16 19  1  0  0  0  0
 17  1  1  0  0  0  0
 17 18  1  0  0  0  0
 19 20  2  0  0  0  0
 20 21  1  0  0  0  0
 21 22  2  0  0  0  0
 22 23  1  0  0  0  0
 22 24  1  0  0  0  0
 24 25  2  0  0  0  0
 25 19  1  0  0  0  0
M  END
>  <Activity>
122.3

>  <minimizedAffinity>
-7.41195

>  <RFScoreVS_v2>
5.95

$$$$
HIPS6706
 OpenBabel05252300073D

 25 27  0  0  0  0  0  0  0  0999 V2000
   69.6118   72.9304   93.8300 N   0  0  0  0  0  0  0  0  0  0  0  0
   68.8872   73.1588   94.8880 C   0  0  0  0  0  0  0  0  0  0  0  0
   67.8368   74.1923   94.9675 C   0  0  0  0  0  0  0  0  0  0  0  0
   66.7301   74.2021   95.7979 C   0  0  0  0  0  0  0  0  0  0  0  0
   66.0326   75.3479   95.4829 C   0  0  0  0  0  0  0  0  0  0  0  0
   66.7495   75.9647   94.4695 C   0  0  0  0  0  0  0  0  0  0  0  0
   67.8127   75.2453   94.1845 O   0  0  0  0  0  0  0  0  0  0  0  0
   66.4119   77.2316   93.7797 C   0  0  0  0  0  0  0  0  0  0  0  0
   67.2306   77.6908   92.7324 C   0  0  0  0  0  0  0  0  0  0  0  0
   66.9311   78.8842   92.0683 C   0  0  0  0  0  0  0  0  0  0  0  0
   65.8120   79.6331   92.4418 C   0  0  0  0  0  0  0  0  0  0  0  0
   65.4381   81.1301   91.6075 Cl  0  0  0  0  0  0  0  0  0  0  0  0
   64.9911   79.1872   93.4814 C   0  0  0  0  0  0  0  0  0  0  0  0
   65.2868   77.9941   94.1484 C   0  0  0  0  0  0  0  0  0  0  0  0
   67.5919   72.1347   92.0590 O   0  0  0  0  0  0  0  0  0  0  0  0
   68.2821   73.1433   91.7457 C   0  0  0  0  0  0  0  0  0  0  0  0
   69.3969   73.5188   92.5711 N   0  0  0  0  0  0  0  0  0  0  0  0
   70.0251   74.2042   92.2475 H   0  0  0  0  0  0  0  0  0  0  0  0
   67.9371   73.9167   90.5283 C   0  0  0  0  0  0  0  0  0  0  0  0
   68.2376   75.2887   90.4321 C   0  0  0  0  0  0  0  0  0  0  0  0
   67.8948   76.0103   89.2845 C   0  0  0  0  0  0  0  0  0  0  0  0
   67.2453   75.3747   88.2229 C   0  0  0  0  0  0  0  0  0  0  0  0
   66.7773   76.3641   86.6578 Br  0  0  0  0  0  0  0  0  0  0  0  0
   66.9338   74.0155   88.3108 C   0  0  0  0  0  0  0  0  0  0  0  0
   67.2735   73.2901   89.4568 C   0  0  0  0  0  0  0  0  0  0  0  0
  1  2  2  0  0  0  0
  2  3  1  0  0  0  0
  3  4  2  0  0  0  0
  4  5  1  0  0  0  0
  5  6  2  0  0  0  0
  6  8  1  0  0  0  0
  6  7  1  0  0  0  0
  7  3  1  0  0  0  0
  8  9  2  0  0  0  0
  9 10  1  0  0  0  0
 10 11  2  0  0  0  0
 11 12  1  0  0  0  0
 11 13  1  0  0  0  0
 13 14  2  0  0  0  0
 14  8  1  0  0  0  0
 15 16  2  0  0  0  0
 16 17  1  0  0  0  0
 16 19  1  0  0  0  0
 17  1  1  0  0  0  0
 17 18  1  0  0  0  0
 19 20  2  0  0  0  0
 20 21  1  0  0  0  0
 21 22  2  0  0  0  0
 22 23  1  0  0  0  0
 22 24  1  0  0  0  0
 24 25  2  0  0  0  0
 25 19  1  0  0  0  0
M  END
>  <Activity>
122.3

>  <minimizedAffinity>
-7.38580

>  <RFScoreVS_v2>
5.95

$$$$
HIPS6706
 OpenBabel05252300073D

 25 27  0  0  0  0  0  0  0  0999 V2000
   66.2877   78.4087   93.0828 N   0  0  0  0  0  0  0  0  0  0  0  0
   66.3566   79.2604   92.0998 C   0  0  0  0  0  0  0  0  0  0  0  0
   67.5319   79.4217   91.2219 C   0  0  0  0  0  0  0  0  0  0  0  0
   68.2108   78.4292   90.5376 C   0  0  0  0  0  0  0  0  0  0  0  0
   69.2479   79.0615   89.8872 C   0  0  0  0  0  0  0  0  0  0  0  0
   69.1476   80.4028   90.2227 C   0  0  0  0  0  0  0  0  0  0  0  0
   68.1193   80.5784   91.0233 O   0  0  0  0  0  0  0  0  0  0  0  0
   70.0353   81.5032   89.7803 C   0  0  0  0  0  0  0  0  0  0  0  0
   71.3504   81.5747   90.2737 C   0  0  0  0  0  0  0  0  0  0  0  0
   72.2049   82.6051   89.8703 C   0  0  0  0  0  0  0  0  0  0  0  0
   71.7570   83.5761   88.9707 C   0  0  0  0  0  0  0  0  0  0  0  0
   72.8306   84.8683   88.4659 Cl  0  0  0  0  0  0  0  0  0  0  0  0
   70.4521   83.5160   88.4738 C   0  0  0  0  0  0  0  0  0  0  0  0
   69.5939   82.4870   88.8746 C   0  0  0  0  0  0  0  0  0  0  0  0
   65.6600   75.8145   93.9346 O   0  0  0  0  0  0  0  0  0  0  0  0
   66.8695   76.0729   93.6856 C   0  0  0  0  0  0  0  0  0  0  0  0
   67.2488   77.4183   93.3519 N   0  0  0  0  0  0  0  0  0  0  0  0
   68.2043   77.6520   93.3107 H   0  0  0  0  0  0  0  0  0  0  0  0
   67.8782   74.9878   93.7506 C   0  0  0  0  0  0  0  0  0  0  0  0
   68.3917   74.5489   94.9858 C   0  0  0  0  0  0  0  0  0  0  0  0
   69.3529   73.5344   95.0332 C   0  0  0  0  0  0  0  0  0  0  0  0
   69.8160   72.9496   93.8516 C   0  0  0  0  0  0  0  0  0  0  0  0
   71.1299   71.5653   93.9205 Br  0  0  0  0  0  0  0  0  0  0  0  0
   69.3202   73.3833   92.6193 C   0  0  0  0  0  0  0  0  0  0  0  0
   68.3600   74.3982   92.5668 C   0  0  0  0  0  0  0  0  0  0  0  0
  1  2  2  0  0  0  0
  2  3  1  0  0  0  0
  3  4  2  0  0  0  0
  4  5  1  0  0  0  0
  5  6  2  0  0  0  0
  6  8  1  0  0  0  0
  6  7  1  0  0  0  0
  7  3  1  0  0  0  0
  8  9  2  0  0  0  0
  9 10  1  0  0  0  0
 10 11  2  0  0  0  0
 11 12  1  0  0  0  0
 11 13  1  0  0  0  0
 13 14  2  0  0  0  0
 14  8  1  0  0  0  0
 15 16  2  0  0  0  0
 16 17  1  0  0  0  0
 16 19  1  0  0  0  0
 17  1  1  0  0  0  0
 17 18  1  0  0  0  0
 19 20  2  0  0  0  0
 20 21  1  0  0  0  0
 21 22  2  0  0  0  0
 22 23  1  0  0  0  0
 22 24  1  0  0  0  0
 24 25  2  0  0  0  0
 25 19  1  0  0  0  0
M  END
>  <Activity>
122.3

>  <minimizedAffinity>
-7.26908

>  <RFScoreVS_v2>
5.95

$$$$
HIPS6706
 OpenBabel05252300073D

 25 27  0  0  0  0  0  0  0  0999 V2000
   66.4484   78.0072   93.0926 N   0  0  0  0  0  0  0  0  0  0  0  0
   66.4766   78.8728   92.1197 C   0  0  0  0  0  0  0  0  0  0  0  0
   67.6389   79.0923   91.2372 C   0  0  0  0  0  0  0  0  0  0  0  0
   68.3239   78.1431   90.4998 C   0  0  0  0  0  0  0  0  0  0  0  0
   69.3440   78.8205   89.8680 C   0  0  0  0  0  0  0  0  0  0  0  0
   69.2282   80.1430   90.2669 C   0  0  0  0  0  0  0  0  0  0  0  0
   68.2071   80.2657   91.0863 O   0  0  0  0  0  0  0  0  0  0  0  0
   70.0946   81.2761   89.8665 C   0  0  0  0  0  0  0  0  0  0  0  0
   69.5935   82.2575   88.9926 C   0  0  0  0  0  0  0  0  0  0  0  0
   70.3941   83.3348   88.6010 C   0  0  0  0  0  0  0  0  0  0  0  0
   71.7036   83.4449   89.0763 C   0  0  0  0  0  0  0  0  0  0  0  0
   72.7065   84.7971   88.5836 Cl  0  0  0  0  0  0  0  0  0  0  0  0
   72.2129   82.4755   89.9448 C   0  0  0  0  0  0  0  0  0  0  0  0
   71.4156   81.3962   90.3392 C   0  0  0  0  0  0  0  0  0  0  0  0
   65.9318   75.3773   93.9088 O   0  0  0  0  0  0  0  0  0  0  0  0
   67.1286   75.6891   93.6595 C   0  0  0  0  0  0  0  0  0  0  0  0
   67.4507   77.0536   93.3440 N   0  0  0  0  0  0  0  0  0  0  0  0
   68.3955   77.3272   93.3031 H   0  0  0  0  0  0  0  0  0  0  0  0
   68.1815   74.6457   93.7054 C   0  0  0  0  0  0  0  0  0  0  0  0
   68.6651   74.0518   92.5241 C   0  0  0  0  0  0  0  0  0  0  0  0
   69.6481   73.0591   92.5813 C   0  0  0  0  0  0  0  0  0  0  0  0
   70.1566   72.6441   93.8150 C   0  0  0  0  0  0  0  0  0  0  0  0
   71.4981   71.2869   93.8891 Br  0  0  0  0  0  0  0  0  0  0  0  0
   69.6777   73.2200   94.9946 C   0  0  0  0  0  0  0  0  0  0  0  0
   68.6939   74.2121   94.9425 C   0  0  0  0  0  0  0  0  0  0  0  0
  1  2  2  0  0  0  0
  2  3  1  0  0  0  0
  3  4  2  0  0  0  0
  4  5  1  0  0  0  0
  5  6  2  0  0  0  0
  6  8  1  0  0  0  0
  6  7  1  0  0  0  0
  7  3  1  0  0  0  0
  8  9  2  0  0  0  0
  9 10  1  0  0  0  0
 10 11  2  0  0  0  0
 11 12  1  0  0  0  0
 11 13  1  0  0  0  0
 13 14  2  0  0  0  0
 14  8  1  0  0  0  0
 15 16  2  0  0  0  0
 16 17  1  0  0  0  0
 16 19  1  0  0  0  0
 17  1  1  0  0  0  0
 17 18  1  0  0  0  0
 19 20  2  0  0  0  0
 20 21  1  0  0  0  0
 21 22  2  0  0  0  0
 22 23  1  0  0  0  0
 22 24  1  0  0  0  0
 24 25  2  0  0  0  0
 25 19  1  0  0  0  0
M  END
>  <Activity>
122.3

>  <minimizedAffinity>
-7.24160

>  <RFScoreVS_v2>
5.95

$$$$
HIPS6706
 OpenBabel05252300073D

 25 27  0  0  0  0  0  0  0  0999 V2000
   67.1259   75.9303   88.2917 N   0  0  0  0  0  0  0  0  0  0  0  0
   67.0648   74.8833   89.0642 C   0  0  0  0  0  0  0  0  0  0  0  0
   68.0460   74.5740   90.1223 C   0  0  0  0  0  0  0  0  0  0  0  0
   68.8452   75.4675   90.8129 C   0  0  0  0  0  0  0  0  0  0  0  0
   69.6118   74.7053   91.6672 C   0  0  0  0  0  0  0  0  0  0  0  0
   69.2429   73.3887   91.4390 C   0  0  0  0  0  0  0  0  0  0  0  0
   68.3143   73.3488   90.5089 O   0  0  0  0  0  0  0  0  0  0  0  0
   69.7823   72.1812   92.1066 C   0  0  0  0  0  0  0  0  0  0  0  0
   70.3862   72.2989   93.3713 C   0  0  0  0  0  0  0  0  0  0  0  0
   70.9026   71.1726   94.0190 C   0  0  0  0  0  0  0  0  0  0  0  0
   70.8229   69.9163   93.4122 C   0  0  0  0  0  0  0  0  0  0  0  0
   71.4717   68.5045   94.2264 Cl  0  0  0  0  0  0  0  0  0  0  0  0
   70.2256   69.7868   92.1554 C   0  0  0  0  0  0  0  0  0  0  0  0
   69.7076   70.9107   91.5039 C   0  0  0  0  0  0  0  0  0  0  0  0
   66.4248   78.4455   89.3075 O   0  0  0  0  0  0  0  0  0  0  0  0
   67.6454   78.2267   89.0754 C   0  0  0  0  0  0  0  0  0  0  0  0
   68.0344   76.9913   88.4528 N   0  0  0  0  0  0  0  0  0  0  0  0
   68.9589   76.8853   88.1315 H   0  0  0  0  0  0  0  0  0  0  0  0
   68.6546   79.2504   89.4398 C   0  0  0  0  0  0  0  0  0  0  0  0
   68.3718   80.6238   89.3138 C   0  0  0  0  0  0  0  0  0  0  0  0
   69.3366   81.5793   89.6474 C   0  0  0  0  0  0  0  0  0  0  0  0
   70.5942   81.1777   90.1054 C   0  0  0  0  0  0  0  0  0  0  0  0
   71.9098   82.4857   90.5586 Br  0  0  0  0  0  0  0  0  0  0  0  0
   70.8894   79.8173   90.2260 C   0  0  0  0  0  0  0  0  0  0  0  0
   69.9283   78.8581   89.8924 C   0  0  0  0  0  0  0  0  0  0  0  0
  1  2  2  0  0  0  0
  2  3  1  0  0  0  0
  3  4  2  0  0  0  0
  4  5  1  0  0  0  0
  5  6  2  0  0  0  0
  6  8  1  0  0  0  0
  6  7  1  0  0  0  0
  7  3  1  0  0  0  0
  8  9  2  0  0  0  0
  9 10  1  0  0  0  0
 10 11  2  0  0  0  0
 11 12  1  0  0  0  0
 11 13  1  0  0  0  0
 13 14  2  0  0  0  0
 14  8  1  0  0  0  0
 15 16  2  0  0  0  0
 16 17  1  0  0  0  0
 16 19  1  0  0  0  0
 17  1  1  0  0  0  0
 17 18  1  0  0  0  0
 19 20  2  0  0  0  0
 20 21  1  0  0  0  0
 21 22  2  0  0  0  0
 22 23  1  0  0  0  0
 22 24  1  0  0  0  0
 24 25  2  0  0  0  0
 25 19  1  0  0  0  0
M  END
>  <Activity>
122.3

>  <minimizedAffinity>
-7.21541

>  <RFScoreVS_v2>
5.95

$$$$
HIPS6706
 OpenBabel05252300073D

 25 27  0  0  0  0  0  0  0  0999 V2000
   68.3431   77.1342   93.3324 N   0  0  0  0  0  0  0  0  0  0  0  0
   69.0485   76.6152   94.2965 C   0  0  0  0  0  0  0  0  0  0  0  0
   69.1941   75.1655   94.5312 C   0  0  0  0  0  0  0  0  0  0  0  0
   68.8185   74.4558   95.6579 C   0  0  0  0  0  0  0  0  0  0  0  0
   69.1864   73.1494   95.4206 C   0  0  0  0  0  0  0  0  0  0  0  0
   69.7761   73.1408   94.1661 C   0  0  0  0  0  0  0  0  0  0  0  0
   69.7690   74.3587   93.6704 O   0  0  0  0  0  0  0  0  0  0  0  0
   70.3444   71.9726   93.4540 C   0  0  0  0  0  0  0  0  0  0  0  0
   69.6418   71.4095   92.3736 C   0  0  0  0  0  0  0  0  0  0  0  0
   70.1592   70.3064   91.6880 C   0  0  0  0  0  0  0  0  0  0  0  0
   71.3830   69.7522   92.0727 C   0  0  0  0  0  0  0  0  0  0  0  0
   72.0304   68.3680   91.2113 Cl  0  0  0  0  0  0  0  0  0  0  0  0
   72.0903   70.3027   93.1451 C   0  0  0  0  0  0  0  0  0  0  0  0
   71.5766   71.4063   93.8337 C   0  0  0  0  0  0  0  0  0  0  0  0
   69.5432   76.7274   90.8336 O   0  0  0  0  0  0  0  0  0  0  0  0
   68.4544   76.1335   91.0644 C   0  0  0  0  0  0  0  0  0  0  0  0
   67.7517   76.3999   92.2893 N   0  0  0  0  0  0  0  0  0  0  0  0
   66.8344   76.0602   92.4007 H   0  0  0  0  0  0  0  0  0  0  0  0
   67.9150   75.1795   90.0652 C   0  0  0  0  0  0  0  0  0  0  0  0
   68.0048   73.7893   90.2685 C   0  0  0  0  0  0  0  0  0  0  0  0
   67.5051   72.8998   89.3124 C   0  0  0  0  0  0  0  0  0  0  0  0
   66.9149   73.3847   88.1423 C   0  0  0  0  0  0  0  0  0  0  0  0
   66.2347   72.1665   86.8381 Br  0  0  0  0  0  0  0  0  0  0  0  0
   66.8283   74.7623   87.9255 C   0  0  0  0  0  0  0  0  0  0  0  0
   67.3278   75.6557   88.8780 C   0  0  0  0  0  0  0  0  0  0  0  0
  1  2  2  0  0  0  0
  2  3  1  0  0  0  0
  3  4  2  0  0  0  0
  4  5  1  0  0  0  0
  5  6  2  0  0  0  0
  6  8  1  0  0  0  0
  6  7  1  0  0  0  0
  7  3  1  0  0  0  0
  8  9  2  0  0  0  0
  9 10  1  0  0  0  0
 10 11  2  0  0  0  0
 11 12  1  0  0  0  0
 11 13  1  0  0  0  0
 13 14  2  0  0  0  0
 14  8  1  0  0  0  0
 15 16  2  0  0  0  0
 16 17  1  0  0  0  0
 16 19  1  0  0  0  0
 17  1  1  0  0  0  0
 17 18  1  0  0  0  0
 19 20  2  0  0  0  0
 20 21  1  0  0  0  0
 21 22  2  0  0  0  0
 22 23  1  0  0  0  0
 22 24  1  0  0  0  0
 24 25  2  0  0  0  0
 25 19  1  0  0  0  0
M  END
>  <Activity>
122.3

>  <minimizedAffinity>
-7.17653

>  <RFScoreVS_v2>
5.95

$$$$
HIPS6297
 OpenBabel05252300073D

 35 38  0  0  0  0  0  0  0  0999 V2000
   68.6858   75.2907   91.7182 C   0  0  0  0  0  0  0  0  0  0  0  0
   67.9563   74.6610   90.7379 C   0  0  0  0  0  0  0  0  0  0  0  0
   67.7067   75.3542   89.5542 C   0  0  0  0  0  0  0  0  0  0  0  0
   68.1963   76.6547   89.3922 C   0  0  0  0  0  0  0  0  0  0  0  0
   68.9259   77.2855   90.3716 C   0  0  0  0  0  0  0  0  0  0  0  0
   69.1652   76.5779   91.5467 C   0  0  0  0  0  0  0  0  0  0  0  0
   69.4408   78.6405   90.2084 C   0  0  0  0  0  0  0  0  0  0  0  0
   70.7864   78.9171   90.3558 C   0  0  0  0  0  0  0  0  0  0  0  0
   71.2474   80.2177   90.1947 C   0  0  0  0  0  0  0  0  0  0  0  0
   70.3891   81.2564   89.8874 C   0  0  0  0  0  0  0  0  0  0  0  0
   69.0383   80.9935   89.7368 C   0  0  0  0  0  0  0  0  0  0  0  0
   68.6022   79.7040   89.8996 C   0  0  0  0  0  0  0  0  0  0  0  0
   70.9450   82.8781   89.6853 S   0  0  0  0  0  0  0  0  0  0  0  0
   72.4408   82.9145   89.5591 O   0  0  0  0  0  0  0  0  0  0  0  0
   70.5994   83.6464   90.9455 O   0  0  0  0  0  0  0  0  0  0  0  0
   70.1837   83.6910   88.3779 N   0  0  0  0  0  0  0  0  0  0  0  0
   69.2799   84.7271   88.8281 C   0  0  0  0  0  0  0  0  0  0  0  0
   68.2063   84.8669   87.7450 C   0  0  0  0  0  0  0  0  0  0  0  0
   68.9283   84.9585   86.4231 C   0  0  0  0  0  0  0  0  0  0  0  0
   70.4068   85.2506   86.5944 C   0  0  0  0  0  0  0  0  0  0  0  0
   71.0929   84.1317   87.3738 C   0  0  0  0  0  0  0  0  0  0  0  0
   68.9564   74.5581   92.9790 C   0  0  0  0  0  0  0  0  0  0  0  0
   70.1765   73.8490   92.8912 O   0  0  0  0  0  0  0  0  0  0  0  0
   70.7459   70.3602   93.9355 C   0  0  0  0  0  0  0  0  0  0  0  0
   70.6749   71.7354   93.9729 C   0  0  0  0  0  0  0  0  0  0  0  0
   70.2633   72.4784   92.9014 C   0  0  0  0  0  0  0  0  0  0  0  0
   69.9091   71.8003   91.7443 C   0  0  0  0  0  0  0  0  0  0  0  0
   69.9750   70.4382   91.6947 C   0  0  0  0  0  0  0  0  0  0  0  0
   70.3900   69.7160   92.7800 C   0  0  0  0  0  0  0  0  0  0  0  0
   70.4400   68.3211   92.6777 O   0  0  0  0  0  0  0  0  0  0  0  0
   70.1921   67.9008   91.8778 H   0  0  0  0  0  0  0  0  0  0  0  0
   70.3800   68.8927   95.7324 O   0  0  0  0  0  0  0  0  0  0  0  0
   71.1889   69.5838   95.0939 C   0  0  0  0  0  0  0  0  0  0  0  0
   72.5068   69.6020   95.5001 O   0  0  0  0  0  0  0  0  0  0  0  0
   73.1342   70.1172   95.0322 H   0  0  0  0  0  0  0  0  0  0  0  0
  1  2  2  0  0  0  0
  2  3  1  0  0  0  0
  3  4  2  0  0  0  0
  4  5  1  0  0  0  0
  5  7  1  0  0  0  0
  5  6  2  0  0  0  0
  6  1  1  0  0  0  0
  7  8  2  0  0  0  0
  8  9  1  0  0  0  0
  9 10  2  0  0  0  0
 10 13  1  0  0  0  0
 10 11  1  0  0  0  0
 11 12  2  0  0  0  0
 12  7  1  0  0  0  0
 13 14  2  0  0  0  0
 13 15  2  0  0  0  0
 13 16  1  0  0  0  0
 16 17  1  0  0  0  0
 17 18  1  0  0  0  0
 18 19  1  0  0  0  0
 19 20  1  0  0  0  0
 20 21  1  0  0  0  0
 21 16  1  0  0  0  0
 22  1  1  0  0  0  0
 23 22  1  0  0  0  0
 24 25  2  0  0  0  0
 25 26  1  0  0  0  0
 26 23  1  0  0  0  0
 26 27  2  0  0  0  0
 27 28  1  0  0  0  0
 28 29  2  0  0  0  0
 29 30  1  0  0  0  0
 29 24  1  0  0  0  0
 30 31  1  0  0  0  0
 32 33  2  0  0  0  0
 33 34  1  0  0  0  0
 33 24  1  0  0  0  0
 34 35  1  0  0  0  0
M  END
>  <Activity>
125.3

>  <minimizedAffinity>
-9.30459

>  <RFScoreVS_v2>
5.96893389831

$$$$
HIPS6297
 OpenBabel05252300073D

 35 38  0  0  0  0  0  0  0  0999 V2000
   69.1362   76.9035   90.7874 C   0  0  0  0  0  0  0  0  0  0  0  0
   70.3957   76.4921   91.1533 C   0  0  0  0  0  0  0  0  0  0  0  0
   71.4421   77.4086   91.0575 C   0  0  0  0  0  0  0  0  0  0  0  0
   71.1917   78.7061   90.5982 C   0  0  0  0  0  0  0  0  0  0  0  0
   69.9327   79.1187   90.2319 C   0  0  0  0  0  0  0  0  0  0  0  0
   68.9003   78.1900   90.3343 C   0  0  0  0  0  0  0  0  0  0  0  0
   69.6645   80.4705   89.7540 C   0  0  0  0  0  0  0  0  0  0  0  0
   70.6246   81.4611   89.8334 C   0  0  0  0  0  0  0  0  0  0  0  0
   70.3399   82.7395   89.3704 C   0  0  0  0  0  0  0  0  0  0  0  0
   69.1093   83.0543   88.8257 C   0  0  0  0  0  0  0  0  0  0  0  0
   68.1382   82.0714   88.7399 C   0  0  0  0  0  0  0  0  0  0  0  0
   68.4375   80.8159   89.2020 C   0  0  0  0  0  0  0  0  0  0  0  0
   68.7388   84.6377   88.2471 S   0  0  0  0  0  0  0  0  0  0  0  0
   67.4662   85.1435   88.8630 O   0  0  0  0  0  0  0  0  0  0  0  0
   68.4865   84.5383   86.7556 O   0  0  0  0  0  0  0  0  0  0  0  0
   70.0283   85.7510   88.4642 N   0  0  0  0  0  0  0  0  0  0  0  0
   70.8610   85.8622   87.2862 C   0  0  0  0  0  0  0  0  0  0  0  0
   72.2565   86.2581   87.7773 C   0  0  0  0  0  0  0  0  0  0  0  0
   72.0726   87.4099   88.7346 C   0  0  0  0  0  0  0  0  0  0  0  0
   70.6925   88.0302   88.6297 C   0  0  0  0  0  0  0  0  0  0  0  0
   69.6124   87.0108   88.9828 C   0  0  0  0  0  0  0  0  0  0  0  0
   68.0184   75.9341   90.8889 C   0  0  0  0  0  0  0  0  0  0  0  0
   67.2410   76.1889   92.0420 O   0  0  0  0  0  0  0  0  0  0  0  0
   68.3644   73.9161   94.7177 C   0  0  0  0  0  0  0  0  0  0  0  0
   68.3668   74.6772   93.5696 C   0  0  0  0  0  0  0  0  0  0  0  0
   67.2856   75.4162   93.1766 C   0  0  0  0  0  0  0  0  0  0  0  0
   66.1553   75.3829   93.9801 C   0  0  0  0  0  0  0  0  0  0  0  0
   66.1404   74.6329   95.1200 C   0  0  0  0  0  0  0  0  0  0  0  0
   67.2348   73.9015   95.4927 C   0  0  0  0  0  0  0  0  0  0  0  0
   67.1686   73.1488   96.6708 O   0  0  0  0  0  0  0  0  0  0  0  0
   66.3860   73.1530   97.1861 H   0  0  0  0  0  0  0  0  0  0  0  0
   69.5605   72.5710   96.2264 O   0  0  0  0  0  0  0  0  0  0  0  0
   69.5327   73.1325   95.1203 C   0  0  0  0  0  0  0  0  0  0  0  0
   70.6224   73.0006   94.2854 O   0  0  0  0  0  0  0  0  0  0  0  0
   70.6223   73.4164   93.4457 H   0  0  0  0  0  0  0  0  0  0  0  0
  1  2  2  0  0  0  0
  2  3  1  0  0  0  0
  3  4  2  0  0  0  0
  4  5  1  0  0  0  0
  5  7  1  0  0  0  0
  5  6  2  0  0  0  0
  6  1  1  0  0  0  0
  7  8  2  0  0  0  0
  8  9  1  0  0  0  0
  9 10  2  0  0  0  0
 10 13  1  0  0  0  0
 10 11  1  0  0  0  0
 11 12  2  0  0  0  0
 12  7  1  0  0  0  0
 13 14  2  0  0  0  0
 13 15  2  0  0  0  0
 13 16  1  0  0  0  0
 16 17  1  0  0  0  0
 17 18  1  0  0  0  0
 18 19  1  0  0  0  0
 19 20  1  0  0  0  0
 20 21  1  0  0  0  0
 21 16  1  0  0  0  0
 22  1  1  0  0  0  0
 23 22  1  0  0  0  0
 24 25  2  0  0  0  0
 25 26  1  0  0  0  0
 26 23  1  0  0  0  0
 26 27  2  0  0  0  0
 27 28  1  0  0  0  0
 28 29  2  0  0  0  0
 29 30  1  0  0  0  0
 29 24  1  0  0  0  0
 30 31  1  0  0  0  0
 32 33  2  0  0  0  0
 33 34  1  0  0  0  0
 33 24  1  0  0  0  0
 34 35  1  0  0  0  0
M  END
>  <Activity>
125.3

>  <minimizedAffinity>
-9.29886

>  <RFScoreVS_v2>
5.95786488455

$$$$
HIPS6297
 OpenBabel05252300073D

 35 38  0  0  0  0  0  0  0  0999 V2000
   67.5750   75.4854   89.5681 C   0  0  0  0  0  0  0  0  0  0  0  0
   66.8336   75.0021   88.5163 C   0  0  0  0  0  0  0  0  0  0  0  0
   66.7820   73.6219   88.3255 C   0  0  0  0  0  0  0  0  0  0  0  0
   67.4748   72.7723   89.1946 C   0  0  0  0  0  0  0  0  0  0  0  0
   68.2165   73.2543   90.2468 C   0  0  0  0  0  0  0  0  0  0  0  0
   68.2565   74.6351   90.4217 C   0  0  0  0  0  0  0  0  0  0  0  0
   68.9397   72.3739   91.1577 C   0  0  0  0  0  0  0  0  0  0  0  0
   69.2389   71.0713   90.8070 C   0  0  0  0  0  0  0  0  0  0  0  0
   69.9285   70.2562   91.6957 C   0  0  0  0  0  0  0  0  0  0  0  0
   70.3295   70.7152   92.9361 C   0  0  0  0  0  0  0  0  0  0  0  0
   70.0365   72.0182   93.3005 C   0  0  0  0  0  0  0  0  0  0  0  0
   69.3552   72.8074   92.4102 C   0  0  0  0  0  0  0  0  0  0  0  0
   71.1858   69.7154   94.0527 S   0  0  0  0  0  0  0  0  0  0  0  0
   70.6381   68.3174   94.0413 O   0  0  0  0  0  0  0  0  0  0  0  0
   70.9424   70.2629   95.4452 O   0  0  0  0  0  0  0  0  0  0  0  0
   72.8843   69.7274   93.7991 N   0  0  0  0  0  0  0  0  0  0  0  0
   73.6206   69.9351   95.0272 C   0  0  0  0  0  0  0  0  0  0  0  0
   74.9389   70.6080   94.6340 C   0  0  0  0  0  0  0  0  0  0  0  0
   75.5110   69.8119   93.4869 C   0  0  0  0  0  0  0  0  0  0  0  0
   74.8436   68.4582   93.3370 C   0  0  0  0  0  0  0  0  0  0  0  0
   73.3550   68.6185   93.0391 C   0  0  0  0  0  0  0  0  0  0  0  0
   67.6324   76.9525   89.7777 C   0  0  0  0  0  0  0  0  0  0  0  0
   67.2250   77.2847   91.0902 O   0  0  0  0  0  0  0  0  0  0  0  0
   67.8511   75.5578   94.2860 C   0  0  0  0  0  0  0  0  0  0  0  0
   67.2027   76.0272   93.1649 C   0  0  0  0  0  0  0  0  0  0  0  0
   67.8289   76.7944   92.2221 C   0  0  0  0  0  0  0  0  0  0  0  0
   69.1672   77.0987   92.4234 C   0  0  0  0  0  0  0  0  0  0  0  0
   69.8207   76.6397   93.5299 C   0  0  0  0  0  0  0  0  0  0  0  0
   69.1728   75.8733   94.4598 C   0  0  0  0  0  0  0  0  0  0  0  0
   69.8881   75.4275   95.5770 O   0  0  0  0  0  0  0  0  0  0  0  0
   70.7917   75.6550   95.6762 H   0  0  0  0  0  0  0  0  0  0  0  0
   66.1854   75.1897   95.9004 O   0  0  0  0  0  0  0  0  0  0  0  0
   67.1622   74.7378   95.2829 C   0  0  0  0  0  0  0  0  0  0  0  0
   67.5796   73.4523   95.5573 O   0  0  0  0  0  0  0  0  0  0  0  0
   68.3150   73.0913   95.1026 H   0  0  0  0  0  0  0  0  0  0  0  0
  1  2  2  0  0  0  0
  2  3  1  0  0  0  0
  3  4  2  0  0  0  0
  4  5  1  0  0  0  0
  5  7  1  0  0  0  0
  5  6  2  0  0  0  0
  6  1  1  0  0  0  0
  7  8  2  0  0  0  0
  8  9  1  0  0  0  0
  9 10  2  0  0  0  0
 10 13  1  0  0  0  0
 10 11  1  0  0  0  0
 11 12  2  0  0  0  0
 12  7  1  0  0  0  0
 13 14  2  0  0  0  0
 13 15  2  0  0  0  0
 13 16  1  0  0  0  0
 16 17  1  0  0  0  0
 17 18  1  0  0  0  0
 18 19  1  0  0  0  0
 19 20  1  0  0  0  0
 20 21  1  0  0  0  0
 21 16  1  0  0  0  0
 22  1  1  0  0  0  0
 23 22  1  0  0  0  0
 24 25  2  0  0  0  0
 25 26  1  0  0  0  0
 26 23  1  0  0  0  0
 26 27  2  0  0  0  0
 27 28  1  0  0  0  0
 28 29  2  0  0  0  0
 29 30  1  0  0  0  0
 29 24  1  0  0  0  0
 30 31  1  0  0  0  0
 32 33  2  0  0  0  0
 33 34  1  0  0  0  0
 33 24  1  0  0  0  0
 34 35  1  0  0  0  0
M  END
>  <Activity>
125.3

>  <minimizedAffinity>
-9.18481

>  <RFScoreVS_v2>
5.96055329819

$$$$
HIPS6297
 OpenBabel05252300073D

 35 38  0  0  0  0  0  0  0  0999 V2000
   67.8239   75.0064   89.5519 C   0  0  0  0  0  0  0  0  0  0  0  0
   66.9778   74.9023   88.4735 C   0  0  0  0  0  0  0  0  0  0  0  0
   66.7282   76.0477   87.7187 C   0  0  0  0  0  0  0  0  0  0  0  0
   67.3343   77.2587   88.0694 C   0  0  0  0  0  0  0  0  0  0  0  0
   68.1806   77.3643   89.1475 C   0  0  0  0  0  0  0  0  0  0  0  0
   68.4181   76.2102   89.8895 C   0  0  0  0  0  0  0  0  0  0  0  0
   68.8172   78.6235   89.5175 C   0  0  0  0  0  0  0  0  0  0  0  0
   68.0945   79.7995   89.5793 C   0  0  0  0  0  0  0  0  0  0  0  0
   68.7283   80.9836   89.9344 C   0  0  0  0  0  0  0  0  0  0  0  0
   70.0776   81.0208   90.2316 C   0  0  0  0  0  0  0  0  0  0  0  0
   70.8138   79.8498   90.1738 C   0  0  0  0  0  0  0  0  0  0  0  0
   70.1709   78.6913   89.8214 C   0  0  0  0  0  0  0  0  0  0  0  0
   70.8809   82.4834   90.6732 S   0  0  0  0  0  0  0  0  0  0  0  0
   72.1794   82.1872   91.3665 O   0  0  0  0  0  0  0  0  0  0  0  0
   70.0082   83.2047   91.6812 O   0  0  0  0  0  0  0  0  0  0  0  0
   71.1052   83.5529   89.3483 N   0  0  0  0  0  0  0  0  0  0  0  0
   72.5042   83.7938   89.0688 C   0  0  0  0  0  0  0  0  0  0  0  0
   72.5864   85.1853   88.4345 C   0  0  0  0  0  0  0  0  0  0  0  0
   71.5374   85.2345   87.3510 C   0  0  0  0  0  0  0  0  0  0  0  0
   71.0188   83.8558   86.9895 C   0  0  0  0  0  0  0  0  0  0  0  0
   70.3519   83.1954   88.1934 C   0  0  0  0  0  0  0  0  0  0  0  0
   68.0952   73.7913   90.3578 C   0  0  0  0  0  0  0  0  0  0  0  0
   69.2984   73.9349   91.0862 O   0  0  0  0  0  0  0  0  0  0  0  0
   70.3275   72.1236   94.1271 C   0  0  0  0  0  0  0  0  0  0  0  0
   70.2070   72.4800   92.8020 C   0  0  0  0  0  0  0  0  0  0  0  0
   69.4487   73.5420   92.3936 C   0  0  0  0  0  0  0  0  0  0  0  0
   68.7852   74.2732   93.3680 C   0  0  0  0  0  0  0  0  0  0  0  0
   68.8966   73.9302   94.6840 C   0  0  0  0  0  0  0  0  0  0  0  0
   69.6614   72.8631   95.0686 C   0  0  0  0  0  0  0  0  0  0  0  0
   69.7428   72.5529   96.4309 O   0  0  0  0  0  0  0  0  0  0  0  0
   69.2790   73.0720   97.0581 H   0  0  0  0  0  0  0  0  0  0  0  0
   72.3174   70.8764   94.1525 O   0  0  0  0  0  0  0  0  0  0  0  0
   71.1445   70.9832   94.5429 C   0  0  0  0  0  0  0  0  0  0  0  0
   70.6334   70.0073   95.3726 O   0  0  0  0  0  0  0  0  0  0  0  0
   69.7500   70.0684   95.6791 H   0  0  0  0  0  0  0  0  0  0  0  0
  1  2  2  0  0  0  0
  2  3  1  0  0  0  0
  3  4  2  0  0  0  0
  4  5  1  0  0  0  0
  5  7  1  0  0  0  0
  5  6  2  0  0  0  0
  6  1  1  0  0  0  0
  7  8  2  0  0  0  0
  8  9  1  0  0  0  0
  9 10  2  0  0  0  0
 10 13  1  0  0  0  0
 10 11  1  0  0  0  0
 11 12  2  0  0  0  0
 12  7  1  0  0  0  0
 13 14  2  0  0  0  0
 13 15  2  0  0  0  0
 13 16  1  0  0  0  0
 16 17  1  0  0  0  0
 17 18  1  0  0  0  0
 18 19  1  0  0  0  0
 19 20  1  0  0  0  0
 20 21  1  0  0  0  0
 21 16  1  0  0  0  0
 22  1  1  0  0  0  0
 23 22  1  0  0  0  0
 24 25  2  0  0  0  0
 25 26  1  0  0  0  0
 26 23  1  0  0  0  0
 26 27  2  0  0  0  0
 27 28  1  0  0  0  0
 28 29  2  0  0  0  0
 29 30  1  0  0  0  0
 29 24  1  0  0  0  0
 30 31  1  0  0  0  0
 32 33  2  0  0  0  0
 33 34  1  0  0  0  0
 33 24  1  0  0  0  0
 34 35  1  0  0  0  0
M  END
>  <Activity>
125.3

>  <minimizedAffinity>
-9.10483

>  <RFScoreVS_v2>
5.97444474975

$$$$
HIPS6297
 OpenBabel05252300073D

 35 38  0  0  0  0  0  0  0  0999 V2000
   67.5940   79.3633   88.4427 C   0  0  0  0  0  0  0  0  0  0  0  0
   67.2055   78.9388   87.1943 C   0  0  0  0  0  0  0  0  0  0  0  0
   67.1522   77.5668   86.9518 C   0  0  0  0  0  0  0  0  0  0  0  0
   67.4899   76.6663   87.9678 C   0  0  0  0  0  0  0  0  0  0  0  0
   67.8785   77.0895   89.2166 C   0  0  0  0  0  0  0  0  0  0  0  0
   67.9258   78.4631   89.4404 C   0  0  0  0  0  0  0  0  0  0  0  0
   68.2301   76.1560   90.2808 C   0  0  0  0  0  0  0  0  0  0  0  0
   68.7401   76.6026   91.4848 C   0  0  0  0  0  0  0  0  0  0  0  0
   69.0662   75.6896   92.4797 C   0  0  0  0  0  0  0  0  0  0  0  0
   68.8934   74.3304   92.2989 C   0  0  0  0  0  0  0  0  0  0  0  0
   68.3832   73.8689   91.0976 C   0  0  0  0  0  0  0  0  0  0  0  0
   68.0673   74.7850   90.1277 C   0  0  0  0  0  0  0  0  0  0  0  0
   69.2947   73.1824   93.5240 S   0  0  0  0  0  0  0  0  0  0  0  0
   68.0661   72.7560   94.2746 O   0  0  0  0  0  0  0  0  0  0  0  0
   70.1959   73.8732   94.5284 O   0  0  0  0  0  0  0  0  0  0  0  0
   70.1628   71.8299   92.9187 N   0  0  0  0  0  0  0  0  0  0  0  0
   71.1638   71.3588   93.8511 C   0  0  0  0  0  0  0  0  0  0  0  0
   72.2662   70.7070   93.0114 C   0  0  0  0  0  0  0  0  0  0  0  0
   71.5830   69.7774   92.0387 C   0  0  0  0  0  0  0  0  0  0  0  0
   70.1413   69.5027   92.4217 C   0  0  0  0  0  0  0  0  0  0  0  0
   69.3250   70.7926   92.4177 C   0  0  0  0  0  0  0  0  0  0  0  0
   67.6508   80.8215   88.7078 C   0  0  0  0  0  0  0  0  0  0  0  0
   68.5876   81.1064   89.7277 O   0  0  0  0  0  0  0  0  0  0  0  0
   70.9620   83.6334   88.4773 C   0  0  0  0  0  0  0  0  0  0  0  0
   69.8110   82.8929   88.6332 C   0  0  0  0  0  0  0  0  0  0  0  0
   69.7121   81.8715   89.5368 C   0  0  0  0  0  0  0  0  0  0  0  0
   70.8253   81.5886   90.3147 C   0  0  0  0  0  0  0  0  0  0  0  0
   71.9714   82.3149   90.1698 C   0  0  0  0  0  0  0  0  0  0  0  0
   72.0464   83.3326   89.2586 C   0  0  0  0  0  0  0  0  0  0  0  0
   73.2448   84.0472   89.1488 O   0  0  0  0  0  0  0  0  0  0  0  0
   73.9744   83.8248   89.6931 H   0  0  0  0  0  0  0  0  0  0  0  0
   70.5824   84.5813   86.3623 O   0  0  0  0  0  0  0  0  0  0  0  0
   71.0467   84.7228   87.5042 C   0  0  0  0  0  0  0  0  0  0  0  0
   71.6403   85.9238   87.8314 O   0  0  0  0  0  0  0  0  0  0  0  0
   71.9973   86.0519   88.6882 H   0  0  0  0  0  0  0  0  0  0  0  0
  1  2  2  0  0  0  0
  2  3  1  0  0  0  0
  3  4  2  0  0  0  0
  4  5  1  0  0  0  0
  5  7  1  0  0  0  0
  5  6  2  0  0  0  0
  6  1  1  0  0  0  0
  7  8  2  0  0  0  0
  8  9  1  0  0  0  0
  9 10  2  0  0  0  0
 10 13  1  0  0  0  0
 10 11  1  0  0  0  0
 11 12  2  0  0  0  0
 12  7  1  0  0  0  0
 13 14  2  0  0  0  0
 13 15  2  0  0  0  0
 13 16  1  0  0  0  0
 16 17  1  0  0  0  0
 17 18  1  0  0  0  0
 18 19  1  0  0  0  0
 19 20  1  0  0  0  0
 20 21  1  0  0  0  0
 21 16  1  0  0  0  0
 22  1  1  0  0  0  0
 23 22  1  0  0  0  0
 24 25  2  0  0  0  0
 25 26  1  0  0  0  0
 26 23  1  0  0  0  0
 26 27  2  0  0  0  0
 27 28  1  0  0  0  0
 28 29  2  0  0  0  0
 29 30  1  0  0  0  0
 29 24  1  0  0  0  0
 30 31  1  0  0  0  0
 32 33  2  0  0  0  0
 33 34  1  0  0  0  0
 33 24  1  0  0  0  0
 34 35  1  0  0  0  0
M  END
>  <Activity>
125.3

>  <minimizedAffinity>
-9.04709

>  <RFScoreVS_v2>
5.97145422327

$$$$
HIPS6297
 OpenBabel05252300073D

 35 38  0  0  0  0  0  0  0  0999 V2000
   66.9137   78.8828   88.0733 C   0  0  0  0  0  0  0  0  0  0  0  0
   66.6547   78.3556   86.8305 C   0  0  0  0  0  0  0  0  0  0  0  0
   66.8285   76.9844   86.6469 C   0  0  0  0  0  0  0  0  0  0  0  0
   67.2559   76.1876   87.7144 C   0  0  0  0  0  0  0  0  0  0  0  0
   67.5153   76.7134   88.9577 C   0  0  0  0  0  0  0  0  0  0  0  0
   67.3362   78.0845   89.1222 C   0  0  0  0  0  0  0  0  0  0  0  0
   67.9594   75.8879   90.0753 C   0  0  0  0  0  0  0  0  0  0  0  0
   67.9652   74.5089   89.9882 C   0  0  0  0  0  0  0  0  0  0  0  0
   68.3933   73.7490   91.0694 C   0  0  0  0  0  0  0  0  0  0  0  0
   68.8191   74.3386   92.2446 C   0  0  0  0  0  0  0  0  0  0  0  0
   68.8186   75.7192   92.3456 C   0  0  0  0  0  0  0  0  0  0  0  0
   68.3926   76.4524   91.2682 C   0  0  0  0  0  0  0  0  0  0  0  0
   69.3528   73.4092   93.5977 S   0  0  0  0  0  0  0  0  0  0  0  0
   68.1836   72.8074   94.3225 O   0  0  0  0  0  0  0  0  0  0  0  0
   70.0246   74.3554   94.5732 O   0  0  0  0  0  0  0  0  0  0  0  0
   70.5137   72.2156   93.1769 N   0  0  0  0  0  0  0  0  0  0  0  0
   71.0180   71.5090   94.3343 C   0  0  0  0  0  0  0  0  0  0  0  0
   72.4329   71.0450   93.9768 C   0  0  0  0  0  0  0  0  0  0  0  0
   72.3490   70.3923   92.6189 C   0  0  0  0  0  0  0  0  0  0  0  0
   70.9203   70.0746   92.2208 C   0  0  0  0  0  0  0  0  0  0  0  0
   70.0875   71.3507   92.1285 C   0  0  0  0  0  0  0  0  0  0  0  0
   66.7288   80.3404   88.2757 C   0  0  0  0  0  0  0  0  0  0  0  0
   67.9428   80.9461   88.6737 O   0  0  0  0  0  0  0  0  0  0  0  0
   70.0182   83.9078   87.9612 C   0  0  0  0  0  0  0  0  0  0  0  0
   69.5908   82.7190   88.5105 C   0  0  0  0  0  0  0  0  0  0  0  0
   68.4100   82.1285   88.1545 C   0  0  0  0  0  0  0  0  0  0  0  0
   67.6301   82.7688   87.2026 C   0  0  0  0  0  0  0  0  0  0  0  0
   68.0425   83.9468   86.6510 C   0  0  0  0  0  0  0  0  0  0  0  0
   69.2283   84.5186   87.0233 C   0  0  0  0  0  0  0  0  0  0  0  0
   69.6059   85.7274   86.4276 O   0  0  0  0  0  0  0  0  0  0  0  0
   69.0505   86.1282   85.7881 H   0  0  0  0  0  0  0  0  0  0  0  0
   71.3738   85.7542   88.4799 O   0  0  0  0  0  0  0  0  0  0  0  0
   71.2857   84.5227   88.3562 C   0  0  0  0  0  0  0  0  0  0  0  0
   72.4043   83.7532   88.5986 O   0  0  0  0  0  0  0  0  0  0  0  0
   72.3598   82.8213   88.5111 H   0  0  0  0  0  0  0  0  0  0  0  0
  1  2  2  0  0  0  0
  2  3  1  0  0  0  0
  3  4  2  0  0  0  0
  4  5  1  0  0  0  0
  5  7  1  0  0  0  0
  5  6  2  0  0  0  0
  6  1  1  0  0  0  0
  7  8  2  0  0  0  0
  8  9  1  0  0  0  0
  9 10  2  0  0  0  0
 10 13  1  0  0  0  0
 10 11  1  0  0  0  0
 11 12  2  0  0  0  0
 12  7  1  0  0  0  0
 13 14  2  0  0  0  0
 13 15  2  0  0  0  0
 13 16  1  0  0  0  0
 16 17  1  0  0  0  0
 17 18  1  0  0  0  0
 18 19  1  0  0  0  0
 19 20  1  0  0  0  0
 20 21  1  0  0  0  0
 21 16  1  0  0  0  0
 22  1  1  0  0  0  0
 23 22  1  0  0  0  0
 24 25  2  0  0  0  0
 25 26  1  0  0  0  0
 26 23  1  0  0  0  0
 26 27  2  0  0  0  0
 27 28  1  0  0  0  0
 28 29  2  0  0  0  0
 29 30  1  0  0  0  0
 29 24  1  0  0  0  0
 30 31  1  0  0  0  0
 32 33  2  0  0  0  0
 33 34  1  0  0  0  0
 33 24  1  0  0  0  0
 34 35  1  0  0  0  0
M  END
>  <Activity>
125.3

>  <minimizedAffinity>
-9.02681

>  <RFScoreVS_v2>
5.99018160819

$$$$
HIPS6297
 OpenBabel05252300073D

 35 38  0  0  0  0  0  0  0  0999 V2000
   69.1422   73.4362   92.2468 C   0  0  0  0  0  0  0  0  0  0  0  0
   68.6808   72.4440   91.4148 C   0  0  0  0  0  0  0  0  0  0  0  0
   68.0799   72.8178   90.2134 C   0  0  0  0  0  0  0  0  0  0  0  0
   67.9613   74.1728   89.8861 C   0  0  0  0  0  0  0  0  0  0  0  0
   68.4222   75.1659   90.7172 C   0  0  0  0  0  0  0  0  0  0  0  0
   69.0194   74.7737   91.9124 C   0  0  0  0  0  0  0  0  0  0  0  0
   68.3034   76.5803   90.3811 C   0  0  0  0  0  0  0  0  0  0  0  0
   68.1819   77.5420   91.3657 C   0  0  0  0  0  0  0  0  0  0  0  0
   68.0700   78.8815   91.0150 C   0  0  0  0  0  0  0  0  0  0  0  0
   68.0767   79.2862   89.6935 C   0  0  0  0  0  0  0  0  0  0  0  0
   68.1979   78.3333   88.6967 C   0  0  0  0  0  0  0  0  0  0  0  0
   68.3072   77.0164   89.0622 C   0  0  0  0  0  0  0  0  0  0  0  0
   67.9373   80.9459   89.2404 S   0  0  0  0  0  0  0  0  0  0  0  0
   66.9300   81.6490   90.1039 O   0  0  0  0  0  0  0  0  0  0  0  0
   67.4006   80.9955   87.8235 O   0  0  0  0  0  0  0  0  0  0  0  0
   69.4444   81.7694   89.2346 N   0  0  0  0  0  0  0  0  0  0  0  0
   69.2835   83.2073   89.2249 C   0  0  0  0  0  0  0  0  0  0  0  0
   70.5262   83.7781   88.5357 C   0  0  0  0  0  0  0  0  0  0  0  0
   71.7227   83.1145   89.1720 C   0  0  0  0  0  0  0  0  0  0  0  0
   71.3703   82.4185   90.4727 C   0  0  0  0  0  0  0  0  0  0  0  0
   70.3493   81.3091   90.2337 C   0  0  0  0  0  0  0  0  0  0  0  0
   69.7842   73.0451   93.5253 C   0  0  0  0  0  0  0  0  0  0  0  0
   69.9125   71.6396   93.6090 O   0  0  0  0  0  0  0  0  0  0  0  0
   73.4136   70.5317   93.9279 C   0  0  0  0  0  0  0  0  0  0  0  0
   72.2939   71.1949   93.4765 C   0  0  0  0  0  0  0  0  0  0  0  0
   71.0561   71.0026   94.0246 C   0  0  0  0  0  0  0  0  0  0  0  0
   70.9483   70.1011   95.0735 C   0  0  0  0  0  0  0  0  0  0  0  0
   72.0501   69.4379   95.5298 C   0  0  0  0  0  0  0  0  0  0  0  0
   73.2785   69.6470   94.9652 C   0  0  0  0  0  0  0  0  0  0  0  0
   74.3771   68.9419   95.4699 O   0  0  0  0  0  0  0  0  0  0  0  0
   74.2623   68.3415   96.1800 H   0  0  0  0  0  0  0  0  0  0  0  0
   75.6564   71.2249   94.0033 O   0  0  0  0  0  0  0  0  0  0  0  0
   74.7294   70.7524   93.3272 C   0  0  0  0  0  0  0  0  0  0  0  0
   74.9682   70.4425   92.0047 O   0  0  0  0  0  0  0  0  0  0  0  0
   74.2823   70.0848   91.4761 H   0  0  0  0  0  0  0  0  0  0  0  0
  1  2  2  0  0  0  0
  2  3  1  0  0  0  0
  3  4  2  0  0  0  0
  4  5  1  0  0  0  0
  5  7  1  0  0  0  0
  5  6  2  0  0  0  0
  6  1  1  0  0  0  0
  7  8  2  0  0  0  0
  8  9  1  0  0  0  0
  9 10  2  0  0  0  0
 10 13  1  0  0  0  0
 10 11  1  0  0  0  0
 11 12  2  0  0  0  0
 12  7  1  0  0  0  0
 13 14  2  0  0  0  0
 13 15  2  0  0  0  0
 13 16  1  0  0  0  0
 16 17  1  0  0  0  0
 17 18  1  0  0  0  0
 18 19  1  0  0  0  0
 19 20  1  0  0  0  0
 20 21  1  0  0  0  0
 21 16  1  0  0  0  0
 22  1  1  0  0  0  0
 23 22  1  0  0  0  0
 24 25  2  0  0  0  0
 25 26  1  0  0  0  0
 26 23  1  0  0  0  0
 26 27  2  0  0  0  0
 27 28  1  0  0  0  0
 28 29  2  0  0  0  0
 29 30  1  0  0  0  0
 29 24  1  0  0  0  0
 30 31  1  0  0  0  0
 32 33  2  0  0  0  0
 33 34  1  0  0  0  0
 33 24  1  0  0  0  0
 34 35  1  0  0  0  0
M  END
>  <Activity>
125.3

>  <minimizedAffinity>
-9.01829

>  <RFScoreVS_v2>
5.96358020254

$$$$
HIPS6297
 OpenBabel05252300073D

 35 38  0  0  0  0  0  0  0  0999 V2000
   67.2472   75.8886   88.5062 C   0  0  0  0  0  0  0  0  0  0  0  0
   67.0435   75.4538   87.2181 C   0  0  0  0  0  0  0  0  0  0  0  0
   67.0186   76.4040   86.1980 C   0  0  0  0  0  0  0  0  0  0  0  0
   67.1985   77.7576   86.5025 C   0  0  0  0  0  0  0  0  0  0  0  0
   67.4022   78.1936   87.7900 C   0  0  0  0  0  0  0  0  0  0  0  0
   67.4240   77.2306   88.7955 C   0  0  0  0  0  0  0  0  0  0  0  0
   67.5922   79.6031   88.1141 C   0  0  0  0  0  0  0  0  0  0  0  0
   68.2710   79.9901   89.2537 C   0  0  0  0  0  0  0  0  0  0  0  0
   68.4359   81.3402   89.5362 C   0  0  0  0  0  0  0  0  0  0  0  0
   67.9350   82.3205   88.7006 C   0  0  0  0  0  0  0  0  0  0  0  0
   67.2529   81.9470   87.5553 C   0  0  0  0  0  0  0  0  0  0  0  0
   67.1002   80.6100   87.2933 C   0  0  0  0  0  0  0  0  0  0  0  0
   68.1298   84.0022   89.0375 S   0  0  0  0  0  0  0  0  0  0  0  0
   67.7055   84.3145   90.4435 O   0  0  0  0  0  0  0  0  0  0  0  0
   67.1938   84.7688   88.1240 O   0  0  0  0  0  0  0  0  0  0  0  0
   69.7186   84.5713   88.7191 N   0  0  0  0  0  0  0  0  0  0  0  0
   70.1903   84.1766   87.4094 C   0  0  0  0  0  0  0  0  0  0  0  0
   71.7164   84.0934   87.5050 C   0  0  0  0  0  0  0  0  0  0  0  0
   72.1828   85.3651   88.1700 C   0  0  0  0  0  0  0  0  0  0  0  0
   71.1049   86.4320   88.1908 C   0  0  0  0  0  0  0  0  0  0  0  0
   69.8910   85.9597   88.9867 C   0  0  0  0  0  0  0  0  0  0  0  0
   67.2768   74.8827   89.5956 C   0  0  0  0  0  0  0  0  0  0  0  0
   68.5766   74.7781   90.1421 O   0  0  0  0  0  0  0  0  0  0  0  0
   68.9080   74.5508   93.8061 C   0  0  0  0  0  0  0  0  0  0  0  0
   68.5878   74.2298   92.5054 C   0  0  0  0  0  0  0  0  0  0  0  0
   68.8758   75.0547   91.4537 C   0  0  0  0  0  0  0  0  0  0  0  0
   69.5146   76.2544   91.7311 C   0  0  0  0  0  0  0  0  0  0  0  0
   69.8371   76.5838   93.0155 C   0  0  0  0  0  0  0  0  0  0  0  0
   69.5387   75.7419   94.0517 C   0  0  0  0  0  0  0  0  0  0  0  0
   69.8907   76.1264   95.3505 O   0  0  0  0  0  0  0  0  0  0  0  0
   70.3216   76.9456   95.4961 H   0  0  0  0  0  0  0  0  0  0  0  0
   67.4106   73.4450   95.2383 O   0  0  0  0  0  0  0  0  0  0  0  0
   68.5909   73.6534   94.9174 C   0  0  0  0  0  0  0  0  0  0  0  0
   69.5898   73.0225   95.6290 O   0  0  0  0  0  0  0  0  0  0  0  0
   70.4878   73.1657   95.4034 H   0  0  0  0  0  0  0  0  0  0  0  0
  1  2  2  0  0  0  0
  2  3  1  0  0  0  0
  3  4  2  0  0  0  0
  4  5  1  0  0  0  0
  5  7  1  0  0  0  0
  5  6  2  0  0  0  0
  6  1  1  0  0  0  0
  7  8  2  0  0  0  0
  8  9  1  0  0  0  0
  9 10  2  0  0  0  0
 10 13  1  0  0  0  0
 10 11  1  0  0  0  0
 11 12  2  0  0  0  0
 12  7  1  0  0  0  0
 13 14  2  0  0  0  0
 13 15  2  0  0  0  0
 13 16  1  0  0  0  0
 16 17  1  0  0  0  0
 17 18  1  0  0  0  0
 18 19  1  0  0  0  0
 19 20  1  0  0  0  0
 20 21  1  0  0  0  0
 21 16  1  0  0  0  0
 22  1  1  0  0  0  0
 23 22  1  0  0  0  0
 24 25  2  0  0  0  0
 25 26  1  0  0  0  0
 26 23  1  0  0  0  0
 26 27  2  0  0  0  0
 27 28  1  0  0  0  0
 28 29  2  0  0  0  0
 29 30  1  0  0  0  0
 29 24  1  0  0  0  0
 30 31  1  0  0  0  0
 32 33  2  0  0  0  0
 33 34  1  0  0  0  0
 33 24  1  0  0  0  0
 34 35  1  0  0  0  0
M  END
>  <Activity>
125.3

>  <minimizedAffinity>
-9.00971

>  <RFScoreVS_v2>
5.97336208762

$$$$
HIPS6297
 OpenBabel05252300073D

 35 38  0  0  0  0  0  0  0  0999 V2000
   67.3581   75.2460   88.6660 C   0  0  0  0  0  0  0  0  0  0  0  0
   66.9348   75.0650   87.3707 C   0  0  0  0  0  0  0  0  0  0  0  0
   66.8934   76.1762   86.5296 C   0  0  0  0  0  0  0  0  0  0  0  0
   67.2773   77.4312   87.0141 C   0  0  0  0  0  0  0  0  0  0  0  0
   67.7007   77.6135   88.3092 C   0  0  0  0  0  0  0  0  0  0  0  0
   67.7355   76.4926   89.1345 C   0  0  0  0  0  0  0  0  0  0  0  0
   68.1041   78.9189   88.8202 C   0  0  0  0  0  0  0  0  0  0  0  0
   69.1184   79.0408   89.7505 C   0  0  0  0  0  0  0  0  0  0  0  0
   69.4804   80.2974   90.2192 C   0  0  0  0  0  0  0  0  0  0  0  0
   68.8481   81.4441   89.7770 C   0  0  0  0  0  0  0  0  0  0  0  0
   67.8302   81.3366   88.8449 C   0  0  0  0  0  0  0  0  0  0  0  0
   67.4870   80.0882   88.3941 C   0  0  0  0  0  0  0  0  0  0  0  0
   69.2845   83.0127   90.3499 S   0  0  0  0  0  0  0  0  0  0  0  0
   69.5300   82.9875   91.8310 O   0  0  0  0  0  0  0  0  0  0  0  0
   68.1016   83.9336   90.1243 O   0  0  0  0  0  0  0  0  0  0  0  0
   70.6161   83.6906   89.5033 N   0  0  0  0  0  0  0  0  0  0  0  0
   71.7773   82.8278   89.5263 C   0  0  0  0  0  0  0  0  0  0  0  0
   72.9998   83.7426   89.4097 C   0  0  0  0  0  0  0  0  0  0  0  0
   72.7315   84.6869   88.2637 C   0  0  0  0  0  0  0  0  0  0  0  0
   71.5796   84.2223   87.3933 C   0  0  0  0  0  0  0  0  0  0  0  0
   70.2845   84.1566   88.1987 C   0  0  0  0  0  0  0  0  0  0  0  0
   67.4062   74.0676   89.5653 C   0  0  0  0  0  0  0  0  0  0  0  0
   68.6172   74.0467   90.2948 O   0  0  0  0  0  0  0  0  0  0  0  0
   67.8016   73.7715   93.8789 C   0  0  0  0  0  0  0  0  0  0  0  0
   67.6819   74.0410   92.5333 C   0  0  0  0  0  0  0  0  0  0  0  0
   68.6899   73.7949   91.6429 C   0  0  0  0  0  0  0  0  0  0  0  0
   69.8680   73.2534   92.1360 C   0  0  0  0  0  0  0  0  0  0  0  0
   69.9990   72.9818   93.4669 C   0  0  0  0  0  0  0  0  0  0  0  0
   68.9761   73.2367   94.3388 C   0  0  0  0  0  0  0  0  0  0  0  0
   69.1608   72.9402   95.6941 O   0  0  0  0  0  0  0  0  0  0  0  0
   69.9723   72.5748   95.9873 H   0  0  0  0  0  0  0  0  0  0  0  0
   66.4717   73.2561   95.7448 O   0  0  0  0  0  0  0  0  0  0  0  0
   66.7102   74.0423   94.8149 C   0  0  0  0  0  0  0  0  0  0  0  0
   65.9266   75.1699   94.6863 O   0  0  0  0  0  0  0  0  0  0  0  0
   66.0895   75.7768   93.9913 H   0  0  0  0  0  0  0  0  0  0  0  0
  1  2  2  0  0  0  0
  2  3  1  0  0  0  0
  3  4  2  0  0  0  0
  4  5  1  0  0  0  0
  5  7  1  0  0  0  0
  5  6  2  0  0  0  0
  6  1  1  0  0  0  0
  7  8  2  0  0  0  0
  8  9  1  0  0  0  0
  9 10  2  0  0  0  0
 10 13  1  0  0  0  0
 10 11  1  0  0  0  0
 11 12  2  0  0  0  0
 12  7  1  0  0  0  0
 13 14  2  0  0  0  0
 13 15  2  0  0  0  0
 13 16  1  0  0  0  0
 16 17  1  0  0  0  0
 17 18  1  0  0  0  0
 18 19  1  0  0  0  0
 19 20  1  0  0  0  0
 20 21  1  0  0  0  0
 21 16  1  0  0  0  0
 22  1  1  0  0  0  0
 23 22  1  0  0  0  0
 24 25  2  0  0  0  0
 25 26  1  0  0  0  0
 26 23  1  0  0  0  0
 26 27  2  0  0  0  0
 27 28  1  0  0  0  0
 28 29  2  0  0  0  0
 29 30  1  0  0  0  0
 29 24  1  0  0  0  0
 30 31  1  0  0  0  0
 32 33  2  0  0  0  0
 33 34  1  0  0  0  0
 33 24  1  0  0  0  0
 34 35  1  0  0  0  0
M  END
>  <Activity>
125.3

>  <minimizedAffinity>
-8.99050

>  <RFScoreVS_v2>
5.96115011639

$$$$
HIPS6297
 OpenBabel05252300073D

 35 38  0  0  0  0  0  0  0  0999 V2000
   67.2262   75.9197   88.5033 C   0  0  0  0  0  0  0  0  0  0  0  0
   67.0463   75.4781   87.2140 C   0  0  0  0  0  0  0  0  0  0  0  0
   67.0388   76.4229   86.1887 C   0  0  0  0  0  0  0  0  0  0  0  0
   67.2116   77.7782   86.4893 C   0  0  0  0  0  0  0  0  0  0  0  0
   67.3915   78.2212   87.7781 C   0  0  0  0  0  0  0  0  0  0  0  0
   67.3961   77.2634   88.7888 C   0  0  0  0  0  0  0  0  0  0  0  0
   67.5740   79.6326   88.0982 C   0  0  0  0  0  0  0  0  0  0  0  0
   68.1899   80.0265   89.2707 C   0  0  0  0  0  0  0  0  0  0  0  0
   68.3493   81.3782   89.5485 C   0  0  0  0  0  0  0  0  0  0  0  0
   67.9046   82.3533   88.6759 C   0  0  0  0  0  0  0  0  0  0  0  0
   67.2858   81.9729   87.4974 C   0  0  0  0  0  0  0  0  0  0  0  0
   67.1375   80.6344   87.2406 C   0  0  0  0  0  0  0  0  0  0  0  0
   68.0934   84.0370   89.0062 S   0  0  0  0  0  0  0  0  0  0  0  0
   67.6525   84.3559   90.4057 O   0  0  0  0  0  0  0  0  0  0  0  0
   67.1670   84.7977   88.0781 O   0  0  0  0  0  0  0  0  0  0  0  0
   69.6850   84.6066   88.7032 N   0  0  0  0  0  0  0  0  0  0  0  0
   70.1603   84.2327   87.3888 C   0  0  0  0  0  0  0  0  0  0  0  0
   71.6858   84.1432   87.4885 C   0  0  0  0  0  0  0  0  0  0  0  0
   72.1535   85.4021   88.1766 C   0  0  0  0  0  0  0  0  0  0  0  0
   71.0788   86.4717   88.2114 C   0  0  0  0  0  0  0  0  0  0  0  0
   69.8605   85.9898   88.9949 C   0  0  0  0  0  0  0  0  0  0  0  0
   67.2371   74.9195   89.5983 C   0  0  0  0  0  0  0  0  0  0  0  0
   68.4564   74.9752   90.3119 O   0  0  0  0  0  0  0  0  0  0  0  0
   69.3766   73.3780   93.5039 C   0  0  0  0  0  0  0  0  0  0  0  0
   69.0048   74.3367   92.5873 C   0  0  0  0  0  0  0  0  0  0  0  0
   68.8259   74.0544   91.2615 C   0  0  0  0  0  0  0  0  0  0  0  0
   69.0323   72.7467   90.8471 C   0  0  0  0  0  0  0  0  0  0  0  0
   69.4008   71.7879   91.7453 C   0  0  0  0  0  0  0  0  0  0  0  0
   69.5737   72.0945   93.0673 C   0  0  0  0  0  0  0  0  0  0  0  0
   69.9521   71.0748   93.9481 O   0  0  0  0  0  0  0  0  0  0  0  0
   70.0816   70.2037   93.6283 H   0  0  0  0  0  0  0  0  0  0  0  0
   70.0236   74.8032   95.2550 O   0  0  0  0  0  0  0  0  0  0  0  0
   69.5625   73.7015   94.9187 C   0  0  0  0  0  0  0  0  0  0  0  0
   69.2317   72.7955   95.9045 O   0  0  0  0  0  0  0  0  0  0  0  0
   68.8820   71.9577   95.6726 H   0  0  0  0  0  0  0  0  0  0  0  0
  1  2  2  0  0  0  0
  2  3  1  0  0  0  0
  3  4  2  0  0  0  0
  4  5  1  0  0  0  0
  5  7  1  0  0  0  0
  5  6  2  0  0  0  0
  6  1  1  0  0  0  0
  7  8  2  0  0  0  0
  8  9  1  0  0  0  0
  9 10  2  0  0  0  0
 10 13  1  0  0  0  0
 10 11  1  0  0  0  0
 11 12  2  0  0  0  0
 12  7  1  0  0  0  0
 13 14  2  0  0  0  0
 13 15  2  0  0  0  0
 13 16  1  0  0  0  0
 16 17  1  0  0  0  0
 17 18  1  0  0  0  0
 18 19  1  0  0  0  0
 19 20  1  0  0  0  0
 20 21  1  0  0  0  0
 21 16  1  0  0  0  0
 22  1  1  0  0  0  0
 23 22  1  0  0  0  0
 24 25  2  0  0  0  0
 25 26  1  0  0  0  0
 26 23  1  0  0  0  0
 26 27  2  0  0  0  0
 27 28  1  0  0  0  0
 28 29  2  0  0  0  0
 29 30  1  0  0  0  0
 29 24  1  0  0  0  0
 30 31  1  0  0  0  0
 32 33  2  0  0  0  0
 33 34  1  0  0  0  0
 33 24  1  0  0  0  0
 34 35  1  0  0  0  0
M  END
>  <Activity>
125.3

>  <minimizedAffinity>
-8.98350

>  <RFScoreVS_v2>
5.97354163705

$$$$
HIPS6249
 OpenBabel05252300073D

 30 33  0  0  0  0  0  0  0  0999 V2000
   67.7738   78.3260   90.3607 C   0  0  0  0  0  0  0  0  0  0  0  0
   67.7296   79.7006   90.0924 C   0  0  0  0  0  0  0  0  0  0  0  0
   67.5837   80.1719   88.7768 C   0  0  0  0  0  0  0  0  0  0  0  0
   67.4737   79.2398   87.7288 C   0  0  0  0  0  0  0  0  0  0  0  0
   67.5052   77.8561   87.9817 C   0  0  0  0  0  0  0  0  0  0  0  0
   67.6480   77.4107   89.3067 C   0  0  0  0  0  0  0  0  0  0  0  0
   67.5464   81.6312   88.4992 C   0  0  0  0  0  0  0  0  0  0  0  0
   67.6074   82.2473   87.2612 C   0  0  0  0  0  0  0  0  0  0  0  0
   67.5388   83.6017   87.5083 C   0  0  0  0  0  0  0  0  0  0  0  0
   67.4396   83.8130   88.8000 O   0  0  0  0  0  0  0  0  0  0  0  0
   67.4406   82.6579   89.4240 C   0  0  0  0  0  0  0  0  0  0  0  0
   67.3913   76.8799   86.8669 C   0  0  0  0  0  0  0  0  0  0  0  0
   67.6920   77.0965   85.5331 C   0  0  0  0  0  0  0  0  0  0  0  0
   67.4268   75.9080   84.8871 C   0  0  0  0  0  0  0  0  0  0  0  0
   66.9914   75.0206   85.7509 O   0  0  0  0  0  0  0  0  0  0  0  0
   66.9565   75.5664   86.9445 C   0  0  0  0  0  0  0  0  0  0  0  0
   67.9474   77.8427   91.7774 C   0  0  0  0  0  0  0  0  0  0  0  0
   66.8777   76.9728   92.1509 O   0  0  0  0  0  0  0  0  0  0  0  0
   68.0653   74.2454   94.4328 C   0  0  0  0  0  0  0  0  0  0  0  0
   68.0428   75.1768   93.3787 C   0  0  0  0  0  0  0  0  0  0  0  0
   66.9296   76.0134   93.1757 C   0  0  0  0  0  0  0  0  0  0  0  0
   65.8277   75.8976   94.0252 C   0  0  0  0  0  0  0  0  0  0  0  0
   65.8248   74.9613   95.0589 C   0  0  0  0  0  0  0  0  0  0  0  0
   66.9226   74.1187   95.2622 C   0  0  0  0  0  0  0  0  0  0  0  0
   66.8228   73.1545   96.2677 O   0  0  0  0  0  0  0  0  0  0  0  0
   66.0492   73.1047   96.7940 H   0  0  0  0  0  0  0  0  0  0  0  0
   69.4686   72.7975   95.7063 O   0  0  0  0  0  0  0  0  0  0  0  0
   69.3020   73.4610   94.6481 C   0  0  0  0  0  0  0  0  0  0  0  0
   70.3236   73.5045   93.7029 O   0  0  0  0  0  0  0  0  0  0  0  0
   70.2101   73.9949   92.9126 H   0  0  0  0  0  0  0  0  0  0  0  0
  1  2  2  0  0  0  0
  2  3  1  0  0  0  0
  3  7  1  0  0  0  0
  3  4  2  0  0  0  0
  4  5  1  0  0  0  0
  5 12  1  0  0  0  0
  5  6  2  0  0  0  0
  6  1  1  0  0  0  0
  7  8  1  0  0  0  0
  8  9  2  0  0  0  0
  9 10  1  0  0  0  0
 10 11  1  0  0  0  0
 11  7  2  0  0  0  0
 12 13  1  0  0  0  0
 13 14  2  0  0  0  0
 14 15  1  0  0  0  0
 15 16  1  0  0  0  0
 16 12  2  0  0  0  0
 17  1  1  0  0  0  0
 18 17  1  0  0  0  0
 19 20  2  0  0  0  0
 20 21  1  0  0  0  0
 21 18  1  0  0  0  0
 21 22  2  0  0  0  0
 22 23  1  0  0  0  0
 23 24  2  0  0  0  0
 24 25  1  0  0  0  0
 24 19  1  0  0  0  0
 25 26  1  0  0  0  0
 27 28  2  0  0  0  0
 28 29  1  0  0  0  0
 28 19  1  0  0  0  0
 29 30  1  0  0  0  0
M  END
>  <Activity>
233.5

>  <minimizedAffinity>
-8.30445

>  <RFScoreVS_v2>
6.01239804674

$$$$
HIPS6249
 OpenBabel05252300073D

 30 33  0  0  0  0  0  0  0  0999 V2000
   67.5063   78.5038   90.4807 C   0  0  0  0  0  0  0  0  0  0  0  0
   67.4428   77.5596   89.4474 C   0  0  0  0  0  0  0  0  0  0  0  0
   67.3871   77.9669   88.1038 C   0  0  0  0  0  0  0  0  0  0  0  0
   67.4043   79.3424   87.8089 C   0  0  0  0  0  0  0  0  0  0  0  0
   67.4789   80.3036   88.8337 C   0  0  0  0  0  0  0  0  0  0  0  0
   67.5376   79.8700   90.1689 C   0  0  0  0  0  0  0  0  0  0  0  0
   67.3110   76.9597   87.0139 C   0  0  0  0  0  0  0  0  0  0  0  0
   67.6050   77.1545   85.6753 C   0  0  0  0  0  0  0  0  0  0  0  0
   67.3871   75.9408   85.0593 C   0  0  0  0  0  0  0  0  0  0  0  0
   66.9911   75.0575   85.9457 O   0  0  0  0  0  0  0  0  0  0  0  0
   66.9345   75.6308   87.1255 C   0  0  0  0  0  0  0  0  0  0  0  0
   67.4934   81.7543   88.5113 C   0  0  0  0  0  0  0  0  0  0  0  0
   67.5797   82.3300   87.2553 C   0  0  0  0  0  0  0  0  0  0  0  0
   67.5595   83.6929   87.4611 C   0  0  0  0  0  0  0  0  0  0  0  0
   67.4710   83.9468   88.7459 O   0  0  0  0  0  0  0  0  0  0  0  0
   67.4299   82.8119   89.4047 C   0  0  0  0  0  0  0  0  0  0  0  0
   67.5488   78.0451   91.9154 C   0  0  0  0  0  0  0  0  0  0  0  0
   66.7679   76.8621   92.0928 O   0  0  0  0  0  0  0  0  0  0  0  0
   68.1155   74.2447   94.4142 C   0  0  0  0  0  0  0  0  0  0  0  0
   68.0158   75.1208   93.3181 C   0  0  0  0  0  0  0  0  0  0  0  0
   66.8945   75.9562   93.1589 C   0  0  0  0  0  0  0  0  0  0  0  0
   65.8616   75.8945   94.0962 C   0  0  0  0  0  0  0  0  0  0  0  0
   65.9344   75.0125   95.1742 C   0  0  0  0  0  0  0  0  0  0  0  0
   67.0403   74.1714   95.3353 C   0  0  0  0  0  0  0  0  0  0  0  0
   67.0142   73.2611   96.3942 O   0  0  0  0  0  0  0  0  0  0  0  0
   66.2837   73.2456   96.9808 H   0  0  0  0  0  0  0  0  0  0  0  0
   69.5861   72.8160   95.6322 O   0  0  0  0  0  0  0  0  0  0  0  0
   69.3611   73.4610   94.5735 C   0  0  0  0  0  0  0  0  0  0  0  0
   70.3278   73.4850   93.5715 O   0  0  0  0  0  0  0  0  0  0  0  0
   70.1707   73.9617   92.7803 H   0  0  0  0  0  0  0  0  0  0  0  0
  1  2  2  0  0  0  0
  2  3  1  0  0  0  0
  3  7  1  0  0  0  0
  3  4  2  0  0  0  0
  4  5  1  0  0  0  0
  5 12  1  0  0  0  0
  5  6  2  0  0  0  0
  6  1  1  0  0  0  0
  7  8  1  0  0  0  0
  8  9  2  0  0  0  0
  9 10  1  0  0  0  0
 10 11  1  0  0  0  0
 11  7  2  0  0  0  0
 12 13  1  0  0  0  0
 13 14  2  0  0  0  0
 14 15  1  0  0  0  0
 15 16  1  0  0  0  0
 16 12  2  0  0  0  0
 17  1  1  0  0  0  0
 18 17  1  0  0  0  0
 19 20  2  0  0  0  0
 20 21  1  0  0  0  0
 21 18  1  0  0  0  0
 21 22  2  0  0  0  0
 22 23  1  0  0  0  0
 23 24  2  0  0  0  0
 24 25  1  0  0  0  0
 24 19  1  0  0  0  0
 25 26  1  0  0  0  0
 27 28  2  0  0  0  0
 28 29  1  0  0  0  0
 28 19  1  0  0  0  0
 29 30  1  0  0  0  0
M  END
>  <Activity>
233.5

>  <minimizedAffinity>
-8.29759

>  <RFScoreVS_v2>
6.01620960911

$$$$
HIPS6249
 OpenBabel05252300073D

 30 33  0  0  0  0  0  0  0  0999 V2000
   67.5839   79.7682   89.5738 C   0  0  0  0  0  0  0  0  0  0  0  0
   67.3808   79.0514   88.3871 C   0  0  0  0  0  0  0  0  0  0  0  0
   67.7466   77.6980   88.2933 C   0  0  0  0  0  0  0  0  0  0  0  0
   68.3147   77.0677   89.4155 C   0  0  0  0  0  0  0  0  0  0  0  0
   68.5155   77.7697   90.6181 C   0  0  0  0  0  0  0  0  0  0  0  0
   68.1374   79.1212   90.6872 C   0  0  0  0  0  0  0  0  0  0  0  0
   67.5362   76.9467   87.0286 C   0  0  0  0  0  0  0  0  0  0  0  0
   67.7924   77.3893   85.7423 C   0  0  0  0  0  0  0  0  0  0  0  0
   67.4412   76.3501   84.9074 C   0  0  0  0  0  0  0  0  0  0  0  0
   67.0033   75.3376   85.6185 O   0  0  0  0  0  0  0  0  0  0  0  0
   67.0462   75.6578   86.8910 C   0  0  0  0  0  0  0  0  0  0  0  0
   69.1192   77.0951   91.7968 C   0  0  0  0  0  0  0  0  0  0  0  0
   68.5692   76.9721   93.0612 C   0  0  0  0  0  0  0  0  0  0  0  0
   69.4932   76.2753   93.8101 C   0  0  0  0  0  0  0  0  0  0  0  0
   70.5393   75.9892   93.0707 O   0  0  0  0  0  0  0  0  0  0  0  0
   70.3514   76.4641   91.8612 C   0  0  0  0  0  0  0  0  0  0  0  0
   67.1993   81.2234   89.6472 C   0  0  0  0  0  0  0  0  0  0  0  0
   67.6771   81.9324   88.5028 O   0  0  0  0  0  0  0  0  0  0  0  0
   71.2251   82.9417   89.1729 C   0  0  0  0  0  0  0  0  0  0  0  0
   69.9619   82.3454   89.3395 C   0  0  0  0  0  0  0  0  0  0  0  0
   68.9431   82.5299   88.3863 C   0  0  0  0  0  0  0  0  0  0  0  0
   69.1915   83.3335   87.2720 C   0  0  0  0  0  0  0  0  0  0  0  0
   70.4305   83.9521   87.1061 C   0  0  0  0  0  0  0  0  0  0  0  0
   71.4457   83.7826   88.0531 C   0  0  0  0  0  0  0  0  0  0  0  0
   72.6349   84.4900   87.8630 O   0  0  0  0  0  0  0  0  0  0  0  0
   72.7401   85.0353   87.1083 H   0  0  0  0  0  0  0  0  0  0  0  0
   71.9921   82.1105   91.2725 O   0  0  0  0  0  0  0  0  0  0  0  0
   72.2812   82.6333   90.1631 C   0  0  0  0  0  0  0  0  0  0  0  0
   73.6031   82.9814   89.8976 O   0  0  0  0  0  0  0  0  0  0  0  0
   73.8290   83.3708   89.0758 H   0  0  0  0  0  0  0  0  0  0  0  0
  1  2  2  0  0  0  0
  2  3  1  0  0  0  0
  3  7  1  0  0  0  0
  3  4  2  0  0  0  0
  4  5  1  0  0  0  0
  5 12  1  0  0  0  0
  5  6  2  0  0  0  0
  6  1  1  0  0  0  0
  7  8  1  0  0  0  0
  8  9  2  0  0  0  0
  9 10  1  0  0  0  0
 10 11  1  0  0  0  0
 11  7  2  0  0  0  0
 12 13  1  0  0  0  0
 13 14  2  0  0  0  0
 14 15  1  0  0  0  0
 15 16  1  0  0  0  0
 16 12  2  0  0  0  0
 17  1  1  0  0  0  0
 18 17  1  0  0  0  0
 19 20  2  0  0  0  0
 20 21  1  0  0  0  0
 21 18  1  0  0  0  0
 21 22  2  0  0  0  0
 22 23  1  0  0  0  0
 23 24  2  0  0  0  0
 24 25  1  0  0  0  0
 24 19  1  0  0  0  0
 25 26  1  0  0  0  0
 27 28  2  0  0  0  0
 28 29  1  0  0  0  0
 28 19  1  0  0  0  0
 29 30  1  0  0  0  0
M  END
>  <Activity>
233.5

>  <minimizedAffinity>
-8.09307

>  <RFScoreVS_v2>
6.01731932381

$$$$
HIPS6249
 OpenBabel05252300073D

 30 33  0  0  0  0  0  0  0  0999 V2000
   67.5903   79.8027   89.5825 C   0  0  0  0  0  0  0  0  0  0  0  0
   68.1688   79.1635   90.6870 C   0  0  0  0  0  0  0  0  0  0  0  0
   68.5379   77.8093   90.6218 C   0  0  0  0  0  0  0  0  0  0  0  0
   68.3250   77.1033   89.4237 C   0  0  0  0  0  0  0  0  0  0  0  0
   67.7553   77.7327   88.3018 C   0  0  0  0  0  0  0  0  0  0  0  0
   67.3987   79.0888   88.3916 C   0  0  0  0  0  0  0  0  0  0  0  0
   69.1428   77.1359   91.8003 C   0  0  0  0  0  0  0  0  0  0  0  0
   68.5573   76.9342   93.0382 C   0  0  0  0  0  0  0  0  0  0  0  0
   69.4976   76.2724   93.7986 C   0  0  0  0  0  0  0  0  0  0  0  0
   70.5835   76.0743   93.0884 O   0  0  0  0  0  0  0  0  0  0  0  0
   70.4078   76.5768   91.8883 C   0  0  0  0  0  0  0  0  0  0  0  0
   67.5319   76.9768   87.0417 C   0  0  0  0  0  0  0  0  0  0  0  0
   67.7635   77.4188   85.7505 C   0  0  0  0  0  0  0  0  0  0  0  0
   67.4070   76.3753   84.9233 C   0  0  0  0  0  0  0  0  0  0  0  0
   66.9830   75.3629   85.6431 O   0  0  0  0  0  0  0  0  0  0  0  0
   67.0430   75.6864   86.9141 C   0  0  0  0  0  0  0  0  0  0  0  0
   67.1870   81.2514   89.6796 C   0  0  0  0  0  0  0  0  0  0  0  0
   67.6529   81.9845   88.5455 O   0  0  0  0  0  0  0  0  0  0  0  0
   71.2184   82.9478   89.1897 C   0  0  0  0  0  0  0  0  0  0  0  0
   69.9479   82.3702   89.3668 C   0  0  0  0  0  0  0  0  0  0  0  0
   68.9264   82.5635   88.4184 C   0  0  0  0  0  0  0  0  0  0  0  0
   69.1795   83.3573   87.2981 C   0  0  0  0  0  0  0  0  0  0  0  0
   70.4261   83.9575   87.1216 C   0  0  0  0  0  0  0  0  0  0  0  0
   71.4443   83.7791   88.0638 C   0  0  0  0  0  0  0  0  0  0  0  0
   72.6421   84.4687   87.8629 O   0  0  0  0  0  0  0  0  0  0  0  0
   72.7506   85.0083   87.1046 H   0  0  0  0  0  0  0  0  0  0  0  0
   71.9907   82.0774   91.2714 O   0  0  0  0  0  0  0  0  0  0  0  0
   72.2758   82.6302   90.1756 C   0  0  0  0  0  0  0  0  0  0  0  0
   73.5936   83.0022   89.9225 O   0  0  0  0  0  0  0  0  0  0  0  0
   73.8166   83.4139   89.1109 H   0  0  0  0  0  0  0  0  0  0  0  0
  1  2  2  0  0  0  0
  2  3  1  0  0  0  0
  3  7  1  0  0  0  0
  3  4  2  0  0  0  0
  4  5  1  0  0  0  0
  5 12  1  0  0  0  0
  5  6  2  0  0  0  0
  6  1  1  0  0  0  0
  7  8  1  0  0  0  0
  8  9  2  0  0  0  0
  9 10  1  0  0  0  0
 10 11  1  0  0  0  0
 11  7  2  0  0  0  0
 12 13  1  0  0  0  0
 13 14  2  0  0  0  0
 14 15  1  0  0  0  0
 15 16  1  0  0  0  0
 16 12  2  0  0  0  0
 17  1  1  0  0  0  0
 18 17  1  0  0  0  0
 19 20  2  0  0  0  0
 20 21  1  0  0  0  0
 21 18  1  0  0  0  0
 21 22  2  0  0  0  0
 22 23  1  0  0  0  0
 23 24  2  0  0  0  0
 24 25  1  0  0  0  0
 24 19  1  0  0  0  0
 25 26  1  0  0  0  0
 27 28  2  0  0  0  0
 28 29  1  0  0  0  0
 28 19  1  0  0  0  0
 29 30  1  0  0  0  0
M  END
>  <Activity>
233.5

>  <minimizedAffinity>
-8.08366

>  <RFScoreVS_v2>
6.02595262853

$$$$
HIPS6249
 OpenBabel05252300073D

 30 33  0  0  0  0  0  0  0  0999 V2000
   70.2096   78.5884   90.6234 C   0  0  0  0  0  0  0  0  0  0  0  0
   68.8235   78.7708   90.7172 C   0  0  0  0  0  0  0  0  0  0  0  0
   68.2463   80.0292   90.4775 C   0  0  0  0  0  0  0  0  0  0  0  0
   69.0826   81.1065   90.1324 C   0  0  0  0  0  0  0  0  0  0  0  0
   70.4752   80.9382   90.0231 C   0  0  0  0  0  0  0  0  0  0  0  0
   71.0271   79.6687   90.2640 C   0  0  0  0  0  0  0  0  0  0  0  0
   66.7763   80.2169   90.5875 C   0  0  0  0  0  0  0  0  0  0  0  0
   66.0339   80.3301   91.7503 C   0  0  0  0  0  0  0  0  0  0  0  0
   64.7244   80.4885   91.3496 C   0  0  0  0  0  0  0  0  0  0  0  0
   64.6567   80.4781   90.0389 O   0  0  0  0  0  0  0  0  0  0  0  0
   65.8642   80.3181   89.5491 C   0  0  0  0  0  0  0  0  0  0  0  0
   71.3501   82.0837   89.6609 C   0  0  0  0  0  0  0  0  0  0  0  0
   72.6248   82.3434   90.1342 C   0  0  0  0  0  0  0  0  0  0  0  0
   73.0278   83.5085   89.5176 C   0  0  0  0  0  0  0  0  0  0  0  0
   72.0767   83.9430   88.7242 O   0  0  0  0  0  0  0  0  0  0  0  0
   71.0581   83.1168   88.7846 C   0  0  0  0  0  0  0  0  0  0  0  0
   70.8091   77.2340   90.9007 C   0  0  0  0  0  0  0  0  0  0  0  0
   70.2657   76.6744   92.0974 O   0  0  0  0  0  0  0  0  0  0  0  0
   67.8350   74.1135   93.3584 C   0  0  0  0  0  0  0  0  0  0  0  0
   68.7378   75.1924   93.3464 C   0  0  0  0  0  0  0  0  0  0  0  0
   69.3772   75.5879   92.1568 C   0  0  0  0  0  0  0  0  0  0  0  0
   69.1213   74.8820   90.9797 C   0  0  0  0  0  0  0  0  0  0  0  0
   68.2484   73.7943   90.9811 C   0  0  0  0  0  0  0  0  0  0  0  0
   67.6159   73.3877   92.1605 C   0  0  0  0  0  0  0  0  0  0  0  0
   66.8131   72.2461   92.1058 O   0  0  0  0  0  0  0  0  0  0  0  0
   66.6943   71.7954   91.2929 H   0  0  0  0  0  0  0  0  0  0  0  0
   67.7651   73.4669   95.6528 O   0  0  0  0  0  0  0  0  0  0  0  0
   67.1264   73.8072   94.6213 C   0  0  0  0  0  0  0  0  0  0  0  0
   65.7346   73.8313   94.6584 O   0  0  0  0  0  0  0  0  0  0  0  0
   65.2499   74.0829   93.8970 H   0  0  0  0  0  0  0  0  0  0  0  0
  1  2  2  0  0  0  0
  2  3  1  0  0  0  0
  3  7  1  0  0  0  0
  3  4  2  0  0  0  0
  4  5  1  0  0  0  0
  5 12  1  0  0  0  0
  5  6  2  0  0  0  0
  6  1  1  0  0  0  0
  7  8  1  0  0  0  0
  8  9  2  0  0  0  0
  9 10  1  0  0  0  0
 10 11  1  0  0  0  0
 11  7  2  0  0  0  0
 12 13  1  0  0  0  0
 13 14  2  0  0  0  0
 14 15  1  0  0  0  0
 15 16  1  0  0  0  0
 16 12  2  0  0  0  0
 17  1  1  0  0  0  0
 18 17  1  0  0  0  0
 19 20  2  0  0  0  0
 20 21  1  0  0  0  0
 21 18  1  0  0  0  0
 21 22  2  0  0  0  0
 22 23  1  0  0  0  0
 23 24  2  0  0  0  0
 24 25  1  0  0  0  0
 24 19  1  0  0  0  0
 25 26  1  0  0  0  0
 27 28  2  0  0  0  0
 28 29  1  0  0  0  0
 28 19  1  0  0  0  0
 29 30  1  0  0  0  0
M  END
>  <Activity>
233.5

>  <minimizedAffinity>
-8.06017

>  <RFScoreVS_v2>
5.97521755063

$$$$
HIPS6249
 OpenBabel05252300073D

 30 33  0  0  0  0  0  0  0  0999 V2000
   68.9269   79.5436   89.8890 C   0  0  0  0  0  0  0  0  0  0  0  0
   68.4692   79.0100   88.6769 C   0  0  0  0  0  0  0  0  0  0  0  0
   68.2620   77.6278   88.5327 C   0  0  0  0  0  0  0  0  0  0  0  0
   68.5139   76.7842   89.6300 C   0  0  0  0  0  0  0  0  0  0  0  0
   68.9633   77.3046   90.8575 C   0  0  0  0  0  0  0  0  0  0  0  0
   69.1589   78.6909   90.9769 C   0  0  0  0  0  0  0  0  0  0  0  0
   67.7848   77.0684   87.2414 C   0  0  0  0  0  0  0  0  0  0  0  0
   68.0203   77.5741   85.9746 C   0  0  0  0  0  0  0  0  0  0  0  0
   67.3803   76.7211   85.1012 C   0  0  0  0  0  0  0  0  0  0  0  0
   66.7941   75.7568   85.7716 O   0  0  0  0  0  0  0  0  0  0  0  0
   67.0149   75.9315   87.0539 C   0  0  0  0  0  0  0  0  0  0  0  0
   69.2293   76.4042   92.0096 C   0  0  0  0  0  0  0  0  0  0  0  0
   68.7638   76.5464   93.3055 C   0  0  0  0  0  0  0  0  0  0  0  0
   69.2730   75.4768   94.0104 C   0  0  0  0  0  0  0  0  0  0  0  0
   70.0021   74.7281   93.2162 O   0  0  0  0  0  0  0  0  0  0  0  0
   69.9993   75.2520   92.0123 C   0  0  0  0  0  0  0  0  0  0  0  0
   69.1580   81.0272   90.0166 C   0  0  0  0  0  0  0  0  0  0  0  0
   70.5188   81.3548   89.7309 O   0  0  0  0  0  0  0  0  0  0  0  0
   70.6504   84.6197   87.8927 C   0  0  0  0  0  0  0  0  0  0  0  0
   70.1718   83.3885   88.3765 C   0  0  0  0  0  0  0  0  0  0  0  0
   70.9681   82.5783   89.2071 C   0  0  0  0  0  0  0  0  0  0  0  0
   72.2578   83.0006   89.5352 C   0  0  0  0  0  0  0  0  0  0  0  0
   72.7556   84.2067   89.0424 C   0  0  0  0  0  0  0  0  0  0  0  0
   71.9751   85.0138   88.2082 C   0  0  0  0  0  0  0  0  0  0  0  0
   72.5620   86.1707   87.6907 O   0  0  0  0  0  0  0  0  0  0  0  0
   73.4411   86.3951   87.9249 H   0  0  0  0  0  0  0  0  0  0  0  0
   69.6293   86.7008   87.3324 O   0  0  0  0  0  0  0  0  0  0  0  0
   69.7303   85.4664   87.1005 C   0  0  0  0  0  0  0  0  0  0  0  0
   68.9174   84.8865   86.1300 O   0  0  0  0  0  0  0  0  0  0  0  0
   68.9844   83.9694   85.9497 H   0  0  0  0  0  0  0  0  0  0  0  0
  1  2  2  0  0  0  0
  2  3  1  0  0  0  0
  3  7  1  0  0  0  0
  3  4  2  0  0  0  0
  4  5  1  0  0  0  0
  5 12  1  0  0  0  0
  5  6  2  0  0  0  0
  6  1  1  0  0  0  0
  7  8  1  0  0  0  0
  8  9  2  0  0  0  0
  9 10  1  0  0  0  0
 10 11  1  0  0  0  0
 11  7  2  0  0  0  0
 12 13  1  0  0  0  0
 13 14  2  0  0  0  0
 14 15  1  0  0  0  0
 15 16  1  0  0  0  0
 16 12  2  0  0  0  0
 17  1  1  0  0  0  0
 18 17  1  0  0  0  0
 19 20  2  0  0  0  0
 20 21  1  0  0  0  0
 21 18  1  0  0  0  0
 21 22  2  0  0  0  0
 22 23  1  0  0  0  0
 23 24  2  0  0  0  0
 24 25  1  0  0  0  0
 24 19  1  0  0  0  0
 25 26  1  0  0  0  0
 27 28  2  0  0  0  0
 28 29  1  0  0  0  0
 28 19  1  0  0  0  0
 29 30  1  0  0  0  0
M  END
>  <Activity>
233.5

>  <minimizedAffinity>
-8.04217

>  <RFScoreVS_v2>
5.99961949766

$$$$
HIPS6249
 OpenBabel05252300073D

 30 33  0  0  0  0  0  0  0  0999 V2000
   67.2187   79.4888   90.3372 C   0  0  0  0  0  0  0  0  0  0  0  0
   67.2123   78.4346   89.4143 C   0  0  0  0  0  0  0  0  0  0  0  0
   67.3193   78.6854   88.0359 C   0  0  0  0  0  0  0  0  0  0  0  0
   67.4417   80.0154   87.5941 C   0  0  0  0  0  0  0  0  0  0  0  0
   67.4609   81.0850   88.5080 C   0  0  0  0  0  0  0  0  0  0  0  0
   67.3563   80.8071   89.8813 C   0  0  0  0  0  0  0  0  0  0  0  0
   67.3029   77.5626   87.0625 C   0  0  0  0  0  0  0  0  0  0  0  0
   67.7874   77.5749   85.7659 C   0  0  0  0  0  0  0  0  0  0  0  0
   67.5505   76.3142   85.2613 C   0  0  0  0  0  0  0  0  0  0  0  0
   66.9666   75.5730   86.1737 O   0  0  0  0  0  0  0  0  0  0  0  0
   66.8031   76.2860   87.2639 C   0  0  0  0  0  0  0  0  0  0  0  0
   67.5876   82.4867   88.0305 C   0  0  0  0  0  0  0  0  0  0  0  0
   67.7859   82.9104   86.7276 C   0  0  0  0  0  0  0  0  0  0  0  0
   67.8407   84.2867   86.7811 C   0  0  0  0  0  0  0  0  0  0  0  0
   67.6914   84.6893   88.0215 O   0  0  0  0  0  0  0  0  0  0  0  0
   67.5382   83.6405   88.7964 C   0  0  0  0  0  0  0  0  0  0  0  0
   67.0863   79.1982   91.8099 C   0  0  0  0  0  0  0  0  0  0  0  0
   66.6834   77.8448   92.0254 O   0  0  0  0  0  0  0  0  0  0  0  0
   67.4142   75.0411   94.4047 C   0  0  0  0  0  0  0  0  0  0  0  0
   66.6958   75.9764   93.6378 C   0  0  0  0  0  0  0  0  0  0  0  0
   67.3635   76.9111   92.8247 C   0  0  0  0  0  0  0  0  0  0  0  0
   68.7594   76.9162   92.7993 C   0  0  0  0  0  0  0  0  0  0  0  0
   69.4858   76.0118   93.5738 C   0  0  0  0  0  0  0  0  0  0  0  0
   68.8311   75.0858   94.3925 C   0  0  0  0  0  0  0  0  0  0  0  0
   69.6193   74.2602   95.1973 O   0  0  0  0  0  0  0  0  0  0  0  0
   70.5535   74.3218   95.1586 H   0  0  0  0  0  0  0  0  0  0  0  0
   67.2132   73.3287   96.0524 O   0  0  0  0  0  0  0  0  0  0  0  0
   66.6516   74.0262   95.1660 C   0  0  0  0  0  0  0  0  0  0  0  0
   65.3139   73.7904   94.8592 O   0  0  0  0  0  0  0  0  0  0  0  0
   64.8866   74.3034   94.2017 H   0  0  0  0  0  0  0  0  0  0  0  0
  1  2  2  0  0  0  0
  2  3  1  0  0  0  0
  3  7  1  0  0  0  0
  3  4  2  0  0  0  0
  4  5  1  0  0  0  0
  5 12  1  0  0  0  0
  5  6  2  0  0  0  0
  6  1  1  0  0  0  0
  7  8  1  0  0  0  0
  8  9  2  0  0  0  0
  9 10  1  0  0  0  0
 10 11  1  0  0  0  0
 11  7  2  0  0  0  0
 12 13  1  0  0  0  0
 13 14  2  0  0  0  0
 14 15  1  0  0  0  0
 15 16  1  0  0  0  0
 16 12  2  0  0  0  0
 17  1  1  0  0  0  0
 18 17  1  0  0  0  0
 19 20  2  0  0  0  0
 20 21  1  0  0  0  0
 21 18  1  0  0  0  0
 21 22  2  0  0  0  0
 22 23  1  0  0  0  0
 23 24  2  0  0  0  0
 24 25  1  0  0  0  0
 24 19  1  0  0  0  0
 25 26  1  0  0  0  0
 27 28  2  0  0  0  0
 28 29  1  0  0  0  0
 28 19  1  0  0  0  0
 29 30  1  0  0  0  0
M  END
>  <Activity>
233.5

>  <minimizedAffinity>
-7.97311

>  <RFScoreVS_v2>
6.05881355477

$$$$
HIPS6249
 OpenBabel05252300073D

 30 33  0  0  0  0  0  0  0  0999 V2000
   69.7691   76.0575   91.7218 C   0  0  0  0  0  0  0  0  0  0  0  0
   69.3388   75.5913   92.9711 C   0  0  0  0  0  0  0  0  0  0  0  0
   68.2872   74.6647   93.0693 C   0  0  0  0  0  0  0  0  0  0  0  0
   67.6751   74.2031   91.8896 C   0  0  0  0  0  0  0  0  0  0  0  0
   68.1021   74.6525   90.6266 C   0  0  0  0  0  0  0  0  0  0  0  0
   69.1584   75.5763   90.5556 C   0  0  0  0  0  0  0  0  0  0  0  0
   67.8305   74.1815   94.3983 C   0  0  0  0  0  0  0  0  0  0  0  0
   66.5637   74.3070   94.9419 C   0  0  0  0  0  0  0  0  0  0  0  0
   66.6237   73.7107   96.1833 C   0  0  0  0  0  0  0  0  0  0  0  0
   67.8332   73.2469   96.3953 O   0  0  0  0  0  0  0  0  0  0  0  0
   68.5818   73.5097   95.3494 C   0  0  0  0  0  0  0  0  0  0  0  0
   67.4466   74.1608   89.3867 C   0  0  0  0  0  0  0  0  0  0  0  0
   67.1024   72.8541   89.0857 C   0  0  0  0  0  0  0  0  0  0  0  0
   66.5267   72.8929   87.8338 C   0  0  0  0  0  0  0  0  0  0  0  0
   66.5160   74.1274   87.3879 O   0  0  0  0  0  0  0  0  0  0  0  0
   67.0584   74.9128   88.2893 C   0  0  0  0  0  0  0  0  0  0  0  0
   70.8879   77.0638   91.6405 C   0  0  0  0  0  0  0  0  0  0  0  0
   70.8324   77.7851   90.4088 O   0  0  0  0  0  0  0  0  0  0  0  0
   70.6483   81.4988   89.9285 C   0  0  0  0  0  0  0  0  0  0  0  0
   71.1820   80.2096   90.1077 C   0  0  0  0  0  0  0  0  0  0  0  0
   70.3398   79.0914   90.2527 C   0  0  0  0  0  0  0  0  0  0  0  0
   68.9560   79.2753   90.2368 C   0  0  0  0  0  0  0  0  0  0  0  0
   68.4121   80.5507   90.0856 C   0  0  0  0  0  0  0  0  0  0  0  0
   69.2411   81.6692   89.9507 C   0  0  0  0  0  0  0  0  0  0  0  0
   68.6314   82.9236   89.8782 O   0  0  0  0  0  0  0  0  0  0  0  0
   67.6970   82.9921   89.8961 H   0  0  0  0  0  0  0  0  0  0  0  0
   71.2888   83.5514   88.8968 O   0  0  0  0  0  0  0  0  0  0  0  0
   71.5867   82.6183   89.6895 C   0  0  0  0  0  0  0  0  0  0  0  0
   72.8406   82.6128   90.2951 O   0  0  0  0  0  0  0  0  0  0  0  0
   73.0724   81.9237   90.8862 H   0  0  0  0  0  0  0  0  0  0  0  0
  1  2  2  0  0  0  0
  2  3  1  0  0  0  0
  3  7  1  0  0  0  0
  3  4  2  0  0  0  0
  4  5  1  0  0  0  0
  5 12  1  0  0  0  0
  5  6  2  0  0  0  0
  6  1  1  0  0  0  0
  7  8  1  0  0  0  0
  8  9  2  0  0  0  0
  9 10  1  0  0  0  0
 10 11  1  0  0  0  0
 11  7  2  0  0  0  0
 12 13  1  0  0  0  0
 13 14  2  0  0  0  0
 14 15  1  0  0  0  0
 15 16  1  0  0  0  0
 16 12  2  0  0  0  0
 17  1  1  0  0  0  0
 18 17  1  0  0  0  0
 19 20  2  0  0  0  0
 20 21  1  0  0  0  0
 21 18  1  0  0  0  0
 21 22  2  0  0  0  0
 22 23  1  0  0  0  0
 23 24  2  0  0  0  0
 24 25  1  0  0  0  0
 24 19  1  0  0  0  0
 25 26  1  0  0  0  0
 27 28  2  0  0  0  0
 28 29  1  0  0  0  0
 28 19  1  0  0  0  0
 29 30  1  0  0  0  0
M  END
>  <Activity>
233.5

>  <minimizedAffinity>
-7.87624

>  <RFScoreVS_v2>
5.97684148493

$$$$
HIPS6249
 OpenBabel05252300073D

 30 33  0  0  0  0  0  0  0  0999 V2000
   70.1301   78.9492   90.3118 C   0  0  0  0  0  0  0  0  0  0  0  0
   70.1652   77.5608   90.4973 C   0  0  0  0  0  0  0  0  0  0  0  0
   68.9843   76.8371   90.7333 C   0  0  0  0  0  0  0  0  0  0  0  0
   67.7595   77.5281   90.7728 C   0  0  0  0  0  0  0  0  0  0  0  0
   67.7050   78.9204   90.5777 C   0  0  0  0  0  0  0  0  0  0  0  0
   68.8999   79.6203   90.3395 C   0  0  0  0  0  0  0  0  0  0  0  0
   69.0305   75.3659   90.9378 C   0  0  0  0  0  0  0  0  0  0  0  0
   68.2925   74.4063   90.2666 C   0  0  0  0  0  0  0  0  0  0  0  0
   68.6762   73.1935   90.7978 C   0  0  0  0  0  0  0  0  0  0  0  0
   69.5850   73.3827   91.7258 O   0  0  0  0  0  0  0  0  0  0  0  0
   69.8223   74.6691   91.8366 C   0  0  0  0  0  0  0  0  0  0  0  0
   66.4062   79.6413   90.6244 C   0  0  0  0  0  0  0  0  0  0  0  0
   65.6613   79.9481   91.7502 C   0  0  0  0  0  0  0  0  0  0  0  0
   64.5434   80.6138   91.2948 C   0  0  0  0  0  0  0  0  0  0  0  0
   64.5866   80.7112   89.9865 O   0  0  0  0  0  0  0  0  0  0  0  0
   65.6858   80.1404   89.5509 C   0  0  0  0  0  0  0  0  0  0  0  0
   71.4106   79.7079   90.0764 C   0  0  0  0  0  0  0  0  0  0  0  0
   71.3007   81.0491   90.5557 O   0  0  0  0  0  0  0  0  0  0  0  0
   70.8028   83.9373   88.2176 C   0  0  0  0  0  0  0  0  0  0  0  0
   70.5465   82.7619   88.9469 C   0  0  0  0  0  0  0  0  0  0  0  0
   71.5251   82.2067   89.7921 C   0  0  0  0  0  0  0  0  0  0  0  0
   72.7724   82.8266   89.8879 C   0  0  0  0  0  0  0  0  0  0  0  0
   73.0501   83.9781   89.1515 C   0  0  0  0  0  0  0  0  0  0  0  0
   72.0872   84.5315   88.3013 C   0  0  0  0  0  0  0  0  0  0  0  0
   72.4568   85.6410   87.5376 O   0  0  0  0  0  0  0  0  0  0  0  0
   73.3166   86.0033   87.6234 H   0  0  0  0  0  0  0  0  0  0  0  0
   68.5077   84.4465   87.8167 O   0  0  0  0  0  0  0  0  0  0  0  0
   69.7011   84.5205   87.4194 C   0  0  0  0  0  0  0  0  0  0  0  0
   69.9733   85.1021   86.1837 O   0  0  0  0  0  0  0  0  0  0  0  0
   70.8572   85.1621   85.8787 H   0  0  0  0  0  0  0  0  0  0  0  0
  1  2  2  0  0  0  0
  2  3  1  0  0  0  0
  3  7  1  0  0  0  0
  3  4  2  0  0  0  0
  4  5  1  0  0  0  0
  5 12  1  0  0  0  0
  5  6  2  0  0  0  0
  6  1  1  0  0  0  0
  7  8  1  0  0  0  0
  8  9  2  0  0  0  0
  9 10  1  0  0  0  0
 10 11  1  0  0  0  0
 11  7  2  0  0  0  0
 12 13  1  0  0  0  0
 13 14  2  0  0  0  0
 14 15  1  0  0  0  0
 15 16  1  0  0  0  0
 16 12  2  0  0  0  0
 17  1  1  0  0  0  0
 18 17  1  0  0  0  0
 19 20  2  0  0  0  0
 20 21  1  0  0  0  0
 21 18  1  0  0  0  0
 21 22  2  0  0  0  0
 22 23  1  0  0  0  0
 23 24  2  0  0  0  0
 24 25  1  0  0  0  0
 24 19  1  0  0  0  0
 25 26  1  0  0  0  0
 27 28  2  0  0  0  0
 28 29  1  0  0  0  0
 28 19  1  0  0  0  0
 29 30  1  0  0  0  0
M  END
>  <Activity>
233.5

>  <minimizedAffinity>
-7.83745

>  <RFScoreVS_v2>
6.00564127534

$$$$
HIPS6249
 OpenBabel05252300073D

 30 33  0  0  0  0  0  0  0  0999 V2000
   67.9024   79.5047   89.8854 C   0  0  0  0  0  0  0  0  0  0  0  0
   68.3285   78.6692   90.9263 C   0  0  0  0  0  0  0  0  0  0  0  0
   68.5245   77.2947   90.7104 C   0  0  0  0  0  0  0  0  0  0  0  0
   68.2937   76.7682   89.4264 C   0  0  0  0  0  0  0  0  0  0  0  0
   67.8761   77.5949   88.3673 C   0  0  0  0  0  0  0  0  0  0  0  0
   67.6913   78.9667   88.6084 C   0  0  0  0  0  0  0  0  0  0  0  0
   68.9681   76.4133   91.8216 C   0  0  0  0  0  0  0  0  0  0  0  0
   68.2036   75.9577   92.8818 C   0  0  0  0  0  0  0  0  0  0  0  0
   69.0440   75.1778   93.6471 C   0  0  0  0  0  0  0  0  0  0  0  0
   70.2386   75.1473   93.1041 O   0  0  0  0  0  0  0  0  0  0  0  0
   70.2306   75.8743   92.0110 C   0  0  0  0  0  0  0  0  0  0  0  0
   67.6322   77.0280   87.0152 C   0  0  0  0  0  0  0  0  0  0  0  0
   68.0177   77.5692   85.8008 C   0  0  0  0  0  0  0  0  0  0  0  0
   67.5691   76.6927   84.8360 C   0  0  0  0  0  0  0  0  0  0  0  0
   66.9492   75.6853   85.4050 O   0  0  0  0  0  0  0  0  0  0  0  0
   66.9668   75.8522   86.7072 C   0  0  0  0  0  0  0  0  0  0  0  0
   67.6827   80.9730   90.1432 C   0  0  0  0  0  0  0  0  0  0  0  0
   67.3316   81.6526   88.9367 O   0  0  0  0  0  0  0  0  0  0  0  0
   70.2303   83.8166   87.9515 C   0  0  0  0  0  0  0  0  0  0  0  0
   69.4563   82.8762   88.6555 C   0  0  0  0  0  0  0  0  0  0  0  0
   68.1293   82.6015   88.2760 C   0  0  0  0  0  0  0  0  0  0  0  0
   67.5740   83.2906   87.1962 C   0  0  0  0  0  0  0  0  0  0  0  0
   68.3204   84.2443   86.5045 C   0  0  0  0  0  0  0  0  0  0  0  0
   69.6368   84.5311   86.8805 C   0  0  0  0  0  0  0  0  0  0  0  0
   70.3008   85.5493   86.1926 O   0  0  0  0  0  0  0  0  0  0  0  0
   69.8719   85.9969   85.4900 H   0  0  0  0  0  0  0  0  0  0  0  0
   72.4188   84.7192   87.6629 O   0  0  0  0  0  0  0  0  0  0  0  0
   71.6470   83.9916   88.3431 C   0  0  0  0  0  0  0  0  0  0  0  0
   72.1544   83.2960   89.4375 O   0  0  0  0  0  0  0  0  0  0  0  0
   71.5892   82.7521   89.9500 H   0  0  0  0  0  0  0  0  0  0  0  0
  1  2  2  0  0  0  0
  2  3  1  0  0  0  0
  3  7  1  0  0  0  0
  3  4  2  0  0  0  0
  4  5  1  0  0  0  0
  5 12  1  0  0  0  0
  5  6  2  0  0  0  0
  6  1  1  0  0  0  0
  7  8  1  0  0  0  0
  8  9  2  0  0  0  0
  9 10  1  0  0  0  0
 10 11  1  0  0  0  0
 11  7  2  0  0  0  0
 12 13  1  0  0  0  0
 13 14  2  0  0  0  0
 14 15  1  0  0  0  0
 15 16  1  0  0  0  0
 16 12  2  0  0  0  0
 17  1  1  0  0  0  0
 18 17  1  0  0  0  0
 19 20  2  0  0  0  0
 20 21  1  0  0  0  0
 21 18  1  0  0  0  0
 21 22  2  0  0  0  0
 22 23  1  0  0  0  0
 23 24  2  0  0  0  0
 24 25  1  0  0  0  0
 24 19  1  0  0  0  0
 25 26  1  0  0  0  0
 27 28  2  0  0  0  0
 28 29  1  0  0  0  0
 28 19  1  0  0  0  0
 29 30  1  0  0  0  0
M  END
>  <Activity>
233.5

>  <minimizedAffinity>
-7.82594

>  <RFScoreVS_v2>
6.01945932514

$$$$
HIPS7112
 OpenBabel05252300073D

 31 33  0  0  0  0  0  0  0  0999 V2000
   67.4876   79.1642   88.2256 N   0  0  0  0  0  0  0  0  0  0  0  0
   67.5771   80.3982   88.9418 C   0  0  0  0  0  0  0  0  0  0  0  0
   67.9253   80.4025   90.1531 O   0  0  0  0  0  0  0  0  0  0  0  0
   67.1731   79.1605   87.2927 H   0  0  0  0  0  0  0  0  0  0  0  0
   67.1992   76.8565   88.6233 C   0  0  0  0  0  0  0  0  0  0  0  0
   67.8463   77.9578   88.8470 N   0  0  0  0  0  0  0  0  0  0  0  0
   68.9081   74.4399   90.9873 C   0  0  0  0  0  0  0  0  0  0  0  0
   68.5103   75.6232   90.3393 C   0  0  0  0  0  0  0  0  0  0  0  0
   67.5957   75.5923   89.2762 C   0  0  0  0  0  0  0  0  0  0  0  0
   67.0729   74.3585   88.8581 C   0  0  0  0  0  0  0  0  0  0  0  0
   67.4494   73.1794   89.5022 C   0  0  0  0  0  0  0  0  0  0  0  0
   68.3509   73.2062   90.5711 C   0  0  0  0  0  0  0  0  0  0  0  0
   68.6421   71.9989   91.2098 O   0  0  0  0  0  0  0  0  0  0  0  0
   68.2538   71.2023   90.9055 H   0  0  0  0  0  0  0  0  0  0  0  0
   69.9797   73.5268   93.0857 N   0  0  0  0  0  0  0  0  0  0  0  0
   69.9216   74.5218   92.0619 C   0  0  0  0  0  0  0  0  0  0  0  0
   70.7226   75.4938   92.1021 O   0  0  0  0  0  0  0  0  0  0  0  0
   70.6581   73.5906   93.7963 H   0  0  0  0  0  0  0  0  0  0  0  0
   69.3412   72.7774   93.0806 H   0  0  0  0  0  0  0  0  0  0  0  0
   67.2604   81.6902   88.2526 C   0  0  0  0  0  0  0  0  0  0  0  0
   67.9598   82.7686   88.8739 O   0  0  0  0  0  0  0  0  0  0  0  0
   68.9295   83.5809   88.2565 C   0  0  0  0  0  0  0  0  0  0  0  0
   68.5922   84.5051   87.2475 C   0  0  0  0  0  0  0  0  0  0  0  0
   69.5731   85.3022   86.6557 C   0  0  0  0  0  0  0  0  0  0  0  0
   70.9043   85.1940   87.0538 C   0  0  0  0  0  0  0  0  0  0  0  0
   71.2682   84.2804   88.0519 C   0  0  0  0  0  0  0  0  0  0  0  0
   72.6086   84.1675   88.4538 C   0  0  0  0  0  0  0  0  0  0  0  0
   72.9697   83.2577   89.4495 C   0  0  0  0  0  0  0  0  0  0  0  0
   71.9992   82.4548   90.0516 C   0  0  0  0  0  0  0  0  0  0  0  0
   70.6610   82.5549   89.6623 C   0  0  0  0  0  0  0  0  0  0  0  0
   70.2775   83.4658   88.6593 C   0  0  0  0  0  0  0  0  0  0  0  0
  1  2  1  0  0  0  0
  1  4  1  0  0  0  0
  2  3  2  0  0  0  0
  2 20  1  0  0  0  0
  5  6  2  0  0  0  0
  6  1  1  0  0  0  0
  7  8  2  0  0  0  0
  8  9  1  0  0  0  0
  9  5  1  0  0  0  0
  9 10  2  0  0  0  0
 10 11  1  0  0  0  0
 11 12  2  0  0  0  0
 12 13  1  0  0  0  0
 12  7  1  0  0  0  0
 13 14  1  0  0  0  0
 15 16  1  0  0  0  0
 15 18  1  0  0  0  0
 15 19  1  0  0  0  0
 16 17  2  0  0  0  0
 16  7  1  0  0  0  0
 20 21  1  0  0  0  0
 21 22  1  0  0  0  0
 22 23  2  0  0  0  0
 23 24  1  0  0  0  0
 24 25  2  0  0  0  0
 25 26  1  0  0  0  0
 26 27  2  0  0  0  0
 27 28  1  0  0  0  0
 28 29  2  0  0  0  0
 29 30  1  0  0  0  0
 30 31  2  0  0  0  0
 31 22  1  0  0  0  0
 31 26  1  0  0  0  0
M  END
>  <Activity>
398.5

>  <minimizedAffinity>
-8.75587

>  <RFScoreVS_v2>
5.98604928044

$$$$
HIPS7112
 OpenBabel05252300073D

 31 33  0  0  0  0  0  0  0  0999 V2000
   67.5614   78.8734   90.8563 N   0  0  0  0  0  0  0  0  0  0  0  0
   68.7432   79.3207   90.1876 C   0  0  0  0  0  0  0  0  0  0  0  0
   69.8500   78.7643   90.4197 O   0  0  0  0  0  0  0  0  0  0  0  0
   66.7071   79.3387   90.7056 H   0  0  0  0  0  0  0  0  0  0  0  0
   66.7917   77.6509   92.7216 C   0  0  0  0  0  0  0  0  0  0  0  0
   67.6142   77.7735   91.7266 N   0  0  0  0  0  0  0  0  0  0  0  0
   68.1189   74.5934   94.5214 C   0  0  0  0  0  0  0  0  0  0  0  0
   68.0235   75.7112   93.6731 C   0  0  0  0  0  0  0  0  0  0  0  0
   66.8525   76.4818   93.6224 C   0  0  0  0  0  0  0  0  0  0  0  0
   65.7633   76.1270   94.4337 C   0  0  0  0  0  0  0  0  0  0  0  0
   65.8510   75.0285   95.2895 C   0  0  0  0  0  0  0  0  0  0  0  0
   67.0209   74.2647   95.3534 C   0  0  0  0  0  0  0  0  0  0  0  0
   67.0649   73.2136   96.2720 O   0  0  0  0  0  0  0  0  0  0  0  0
   66.3179   73.0262   96.8056 H   0  0  0  0  0  0  0  0  0  0  0  0
   69.6696   72.8952   95.5686 N   0  0  0  0  0  0  0  0  0  0  0  0
   69.3535   73.7789   94.4913 C   0  0  0  0  0  0  0  0  0  0  0  0
   70.1572   73.8855   93.5265 O   0  0  0  0  0  0  0  0  0  0  0  0
   70.4938   72.3576   95.5387 H   0  0  0  0  0  0  0  0  0  0  0  0
   69.0632   72.8239   96.3410 H   0  0  0  0  0  0  0  0  0  0  0  0
   68.6679   80.4503   89.2063 C   0  0  0  0  0  0  0  0  0  0  0  0
   69.0896   81.6689   89.8189 O   0  0  0  0  0  0  0  0  0  0  0  0
   70.3049   82.3340   89.5702 C   0  0  0  0  0  0  0  0  0  0  0  0
   71.4898   81.9988   90.2555 C   0  0  0  0  0  0  0  0  0  0  0  0
   72.6826   82.6710   89.9854 C   0  0  0  0  0  0  0  0  0  0  0  0
   72.7188   83.6876   89.0328 C   0  0  0  0  0  0  0  0  0  0  0  0
   71.5546   84.0441   88.3394 C   0  0  0  0  0  0  0  0  0  0  0  0
   71.5873   85.0690   87.3807 C   0  0  0  0  0  0  0  0  0  0  0  0
   70.4267   85.4224   86.6894 C   0  0  0  0  0  0  0  0  0  0  0  0
   69.2265   84.7577   86.9479 C   0  0  0  0  0  0  0  0  0  0  0  0
   69.1775   83.7358   87.8996 C   0  0  0  0  0  0  0  0  0  0  0  0
   70.3371   83.3660   88.6075 C   0  0  0  0  0  0  0  0  0  0  0  0
  1  2  1  0  0  0  0
  1  4  1  0  0  0  0
  2  3  2  0  0  0  0
  2 20  1  0  0  0  0
  5  6  2  0  0  0  0
  6  1  1  0  0  0  0
  7  8  2  0  0  0  0
  8  9  1  0  0  0  0
  9  5  1  0  0  0  0
  9 10  2  0  0  0  0
 10 11  1  0  0  0  0
 11 12  2  0  0  0  0
 12 13  1  0  0  0  0
 12  7  1  0  0  0  0
 13 14  1  0  0  0  0
 15 16  1  0  0  0  0
 15 18  1  0  0  0  0
 15 19  1  0  0  0  0
 16 17  2  0  0  0  0
 16  7  1  0  0  0  0
 20 21  1  0  0  0  0
 21 22  1  0  0  0  0
 22 23  2  0  0  0  0
 23 24  1  0  0  0  0
 24 25  2  0  0  0  0
 25 26  1  0  0  0  0
 26 27  2  0  0  0  0
 27 28  1  0  0  0  0
 28 29  2  0  0  0  0
 29 30  1  0  0  0  0
 30 31  2  0  0  0  0
 31 22  1  0  0  0  0
 31 26  1  0  0  0  0
M  END
>  <Activity>
398.5

>  <minimizedAffinity>
-8.72231

>  <RFScoreVS_v2>
5.96026503921

$$$$
HIPS7112
 OpenBabel05252300073D

 31 33  0  0  0  0  0  0  0  0999 V2000
   69.1060   79.7863   90.2589 N   0  0  0  0  0  0  0  0  0  0  0  0
   67.7865   79.3383   89.9396 C   0  0  0  0  0  0  0  0  0  0  0  0
   67.0142   80.0739   89.2681 O   0  0  0  0  0  0  0  0  0  0  0  0
   69.6907   79.2279   90.8206 H   0  0  0  0  0  0  0  0  0  0  0  0
   70.8207   81.3563   89.8569 C   0  0  0  0  0  0  0  0  0  0  0  0
   69.5712   81.0190   89.7750 N   0  0  0  0  0  0  0  0  0  0  0  0
   70.8285   84.7187   88.1123 C   0  0  0  0  0  0  0  0  0  0  0  0
   70.4112   83.4762   88.6228 C   0  0  0  0  0  0  0  0  0  0  0  0
   71.2971   82.6525   89.3329 C   0  0  0  0  0  0  0  0  0  0  0  0
   72.6186   83.0810   89.5343 C   0  0  0  0  0  0  0  0  0  0  0  0
   73.0404   84.3176   89.0447 C   0  0  0  0  0  0  0  0  0  0  0  0
   72.1574   85.1483   88.3473 C   0  0  0  0  0  0  0  0  0  0  0  0
   72.6253   86.3976   87.9339 O   0  0  0  0  0  0  0  0  0  0  0  0
   73.5117   86.6468   88.1076 H   0  0  0  0  0  0  0  0  0  0  0  0
   69.2183   84.9567   86.1796 N   0  0  0  0  0  0  0  0  0  0  0  0
   69.8722   85.5206   87.3180 C   0  0  0  0  0  0  0  0  0  0  0  0
   69.6530   86.7242   87.6204 O   0  0  0  0  0  0  0  0  0  0  0  0
   68.5835   85.4990   85.6578 H   0  0  0  0  0  0  0  0  0  0  0  0
   69.4024   84.0260   85.9169 H   0  0  0  0  0  0  0  0  0  0  0  0
   67.3198   77.9911   90.3997 C   0  0  0  0  0  0  0  0  0  0  0  0
   68.2312   76.9780   89.9741 O   0  0  0  0  0  0  0  0  0  0  0  0
   67.8953   75.6424   89.6835 C   0  0  0  0  0  0  0  0  0  0  0  0
   67.0095   75.3087   88.6394 C   0  0  0  0  0  0  0  0  0  0  0  0
   66.6978   73.9755   88.3693 C   0  0  0  0  0  0  0  0  0  0  0  0
   67.2581   72.9521   89.1316 C   0  0  0  0  0  0  0  0  0  0  0  0
   68.1387   73.2556   90.1784 C   0  0  0  0  0  0  0  0  0  0  0  0
   68.7032   72.2272   90.9494 C   0  0  0  0  0  0  0  0  0  0  0  0
   69.5818   72.5309   91.9914 C   0  0  0  0  0  0  0  0  0  0  0  0
   69.9041   73.8599   92.2722 C   0  0  0  0  0  0  0  0  0  0  0  0
   69.3501   74.8948   91.5143 C   0  0  0  0  0  0  0  0  0  0  0  0
   68.4615   74.6085   90.4602 C   0  0  0  0  0  0  0  0  0  0  0  0
  1  2  1  0  0  0  0
  1  4  1  0  0  0  0
  2  3  2  0  0  0  0
  2 20  1  0  0  0  0
  5  6  2  0  0  0  0
  6  1  1  0  0  0  0
  7  8  2  0  0  0  0
  8  9  1  0  0  0  0
  9  5  1  0  0  0  0
  9 10  2  0  0  0  0
 10 11  1  0  0  0  0
 11 12  2  0  0  0  0
 12 13  1  0  0  0  0
 12  7  1  0  0  0  0
 13 14  1  0  0  0  0
 15 16  1  0  0  0  0
 15 18  1  0  0  0  0
 15 19  1  0  0  0  0
 16 17  2  0  0  0  0
 16  7  1  0  0  0  0
 20 21  1  0  0  0  0
 21 22  1  0  0  0  0
 22 23  2  0  0  0  0
 23 24  1  0  0  0  0
 24 25  2  0  0  0  0
 25 26  1  0  0  0  0
 26 27  2  0  0  0  0
 27 28  1  0  0  0  0
 28 29  2  0  0  0  0
 29 30  1  0  0  0  0
 30 31  2  0  0  0  0
 31 22  1  0  0  0  0
 31 26  1  0  0  0  0
M  END
>  <Activity>
398.5

>  <minimizedAffinity>
-8.66111

>  <RFScoreVS_v2>
5.98110162917

$$$$
HIPS7112
 OpenBabel05252300073D

 31 33  0  0  0  0  0  0  0  0999 V2000
   66.9226   78.9764   90.4937 N   0  0  0  0  0  0  0  0  0  0  0  0
   67.9982   79.4047   89.6551 C   0  0  0  0  0  0  0  0  0  0  0  0
   69.1094   78.8118   89.6996 O   0  0  0  0  0  0  0  0  0  0  0  0
   66.0704   79.4693   90.4881 H   0  0  0  0  0  0  0  0  0  0  0  0
   66.5939   77.8281   92.5284 C   0  0  0  0  0  0  0  0  0  0  0  0
   67.0765   77.8560   91.3251 N   0  0  0  0  0  0  0  0  0  0  0  0
   68.0705   74.6794   94.0300 C   0  0  0  0  0  0  0  0  0  0  0  0
   67.8826   75.8192   93.2276 C   0  0  0  0  0  0  0  0  0  0  0  0
   66.7543   76.6372   93.3874 C   0  0  0  0  0  0  0  0  0  0  0  0
   65.8026   76.3080   94.3653 C   0  0  0  0  0  0  0  0  0  0  0  0
   65.9850   75.1876   95.1766 C   0  0  0  0  0  0  0  0  0  0  0  0
   67.1147   74.3762   95.0301 C   0  0  0  0  0  0  0  0  0  0  0  0
   67.2667   73.3035   95.9114 O   0  0  0  0  0  0  0  0  0  0  0  0
   66.6125   73.1341   96.5605 H   0  0  0  0  0  0  0  0  0  0  0  0
   69.2627   72.4602   94.2270 N   0  0  0  0  0  0  0  0  0  0  0  0
   69.2459   73.8169   93.7790 C   0  0  0  0  0  0  0  0  0  0  0  0
   70.2604   74.2853   93.1963 O   0  0  0  0  0  0  0  0  0  0  0  0
   70.0500   71.8947   94.0548 H   0  0  0  0  0  0  0  0  0  0  0  0
   68.4871   72.0909   94.7079 H   0  0  0  0  0  0  0  0  0  0  0  0
   67.8056   80.5579   88.7182 C   0  0  0  0  0  0  0  0  0  0  0  0
   68.4368   81.7290   89.2362 O   0  0  0  0  0  0  0  0  0  0  0  0
   69.0907   82.7140   88.4724 C   0  0  0  0  0  0  0  0  0  0  0  0
   68.4308   83.4184   87.4456 C   0  0  0  0  0  0  0  0  0  0  0  0
   69.1016   84.3942   86.7072 C   0  0  0  0  0  0  0  0  0  0  0  0
   70.4382   84.6854   86.9739 C   0  0  0  0  0  0  0  0  0  0  0  0
   71.1198   83.9974   87.9864 C   0  0  0  0  0  0  0  0  0  0  0  0
   72.4667   84.2870   88.2562 C   0  0  0  0  0  0  0  0  0  0  0  0
   73.1445   83.6015   89.2665 C   0  0  0  0  0  0  0  0  0  0  0  0
   72.4859   82.6240   90.0145 C   0  0  0  0  0  0  0  0  0  0  0  0
   71.1456   82.3238   89.7577 C   0  0  0  0  0  0  0  0  0  0  0  0
   70.4457   83.0036   88.7426 C   0  0  0  0  0  0  0  0  0  0  0  0
  1  2  1  0  0  0  0
  1  4  1  0  0  0  0
  2  3  2  0  0  0  0
  2 20  1  0  0  0  0
  5  6  2  0  0  0  0
  6  1  1  0  0  0  0
  7  8  2  0  0  0  0
  8  9  1  0  0  0  0
  9  5  1  0  0  0  0
  9 10  2  0  0  0  0
 10 11  1  0  0  0  0
 11 12  2  0  0  0  0
 12 13  1  0  0  0  0
 12  7  1  0  0  0  0
 13 14  1  0  0  0  0
 15 16  1  0  0  0  0
 15 18  1  0  0  0  0
 15 19  1  0  0  0  0
 16 17  2  0  0  0  0
 16  7  1  0  0  0  0
 20 21  1  0  0  0  0
 21 22  1  0  0  0  0
 22 23  2  0  0  0  0
 23 24  1  0  0  0  0
 24 25  2  0  0  0  0
 25 26  1  0  0  0  0
 26 27  2  0  0  0  0
 27 28  1  0  0  0  0
 28 29  2  0  0  0  0
 29 30  1  0  0  0  0
 30 31  2  0  0  0  0
 31 22  1  0  0  0  0
 31 26  1  0  0  0  0
M  END
>  <Activity>
398.5

>  <minimizedAffinity>
-8.62581

>  <RFScoreVS_v2>
5.95250359652

$$$$
HIPS7112
 OpenBabel05252300073D

 31 33  0  0  0  0  0  0  0  0999 V2000
   71.3278   79.3459   90.7596 N   0  0  0  0  0  0  0  0  0  0  0  0
   70.5495   78.1848   90.4602 C   0  0  0  0  0  0  0  0  0  0  0  0
   69.7276   78.2035   89.5050 O   0  0  0  0  0  0  0  0  0  0  0  0
   71.9365   79.3419   91.5334 H   0  0  0  0  0  0  0  0  0  0  0  0
   71.6365   81.6516   90.3659 C   0  0  0  0  0  0  0  0  0  0  0  0
   71.2278   80.4916   89.9549 N   0  0  0  0  0  0  0  0  0  0  0  0
   70.1518   84.3444   88.1536 C   0  0  0  0  0  0  0  0  0  0  0  0
   70.2873   83.2113   88.9759 C   0  0  0  0  0  0  0  0  0  0  0  0
   71.5349   82.8462   89.5031 C   0  0  0  0  0  0  0  0  0  0  0  0
   72.6610   83.6283   89.2021 C   0  0  0  0  0  0  0  0  0  0  0  0
   72.5366   84.7624   88.3989 C   0  0  0  0  0  0  0  0  0  0  0  0
   71.2927   85.1381   87.8815 C   0  0  0  0  0  0  0  0  0  0  0  0
   71.2257   86.3151   87.1328 O   0  0  0  0  0  0  0  0  0  0  0  0
   72.0027   86.8139   86.9735 H   0  0  0  0  0  0  0  0  0  0  0  0
   68.6725   84.8403   86.1660 N   0  0  0  0  0  0  0  0  0  0  0  0
   68.8255   84.6498   87.5738 C   0  0  0  0  0  0  0  0  0  0  0  0
   67.8223   84.7800   88.3252 O   0  0  0  0  0  0  0  0  0  0  0  0
   67.7854   85.0432   85.7902 H   0  0  0  0  0  0  0  0  0  0  0  0
   69.4541   84.7685   85.5717 H   0  0  0  0  0  0  0  0  0  0  0  0
   70.7117   76.9411   91.2797 C   0  0  0  0  0  0  0  0  0  0  0  0
   69.4519   76.2919   91.4513 O   0  0  0  0  0  0  0  0  0  0  0  0
   69.2099   74.9150   91.2874 C   0  0  0  0  0  0  0  0  0  0  0  0
   69.8206   73.9493   92.1123 C   0  0  0  0  0  0  0  0  0  0  0  0
   69.5588   72.5905   91.9313 C   0  0  0  0  0  0  0  0  0  0  0  0
   68.6887   72.1678   90.9281 C   0  0  0  0  0  0  0  0  0  0  0  0
   68.0710   73.1062   90.0908 C   0  0  0  0  0  0  0  0  0  0  0  0
   67.1956   72.6835   89.0779 C   0  0  0  0  0  0  0  0  0  0  0  0
   66.5796   73.6198   88.2451 C   0  0  0  0  0  0  0  0  0  0  0  0
   66.8307   74.9825   88.4154 C   0  0  0  0  0  0  0  0  0  0  0  0
   67.6999   75.4191   89.4185 C   0  0  0  0  0  0  0  0  0  0  0  0
   68.3312   74.4900   90.2675 C   0  0  0  0  0  0  0  0  0  0  0  0
  1  2  1  0  0  0  0
  1  4  1  0  0  0  0
  2  3  2  0  0  0  0
  2 20  1  0  0  0  0
  5  6  2  0  0  0  0
  6  1  1  0  0  0  0
  7  8  2  0  0  0  0
  8  9  1  0  0  0  0
  9  5  1  0  0  0  0
  9 10  2  0  0  0  0
 10 11  1  0  0  0  0
 11 12  2  0  0  0  0
 12 13  1  0  0  0  0
 12  7  1  0  0  0  0
 13 14  1  0  0  0  0
 15 16  1  0  0  0  0
 15 18  1  0  0  0  0
 15 19  1  0  0  0  0
 16 17  2  0  0  0  0
 16  7  1  0  0  0  0
 20 21  1  0  0  0  0
 21 22  1  0  0  0  0
 22 23  2  0  0  0  0
 23 24  1  0  0  0  0
 24 25  2  0  0  0  0
 25 26  1  0  0  0  0
 26 27  2  0  0  0  0
 27 28  1  0  0  0  0
 28 29  2  0  0  0  0
 29 30  1  0  0  0  0
 30 31  2  0  0  0  0
 31 22  1  0  0  0  0
 31 26  1  0  0  0  0
M  END
>  <Activity>
398.5

>  <minimizedAffinity>
-8.44543

>  <RFScoreVS_v2>
5.99481752441

$$$$
HIPS7112
 OpenBabel05252300073D

 31 33  0  0  0  0  0  0  0  0999 V2000
   67.1220   78.5165   89.7949 N   0  0  0  0  0  0  0  0  0  0  0  0
   68.1079   79.4996   89.4706 C   0  0  0  0  0  0  0  0  0  0  0  0
   69.2869   79.3779   89.8989 O   0  0  0  0  0  0  0  0  0  0  0  0
   66.1920   78.6375   89.4954 H   0  0  0  0  0  0  0  0  0  0  0  0
   67.7381   76.2455   89.9671 C   0  0  0  0  0  0  0  0  0  0  0  0
   67.4745   77.3793   90.5384 N   0  0  0  0  0  0  0  0  0  0  0  0
   68.6714   74.0850   92.9354 C   0  0  0  0  0  0  0  0  0  0  0  0
   68.3123   75.1921   92.1455 C   0  0  0  0  0  0  0  0  0  0  0  0
   68.1186   75.0604   90.7625 C   0  0  0  0  0  0  0  0  0  0  0  0
   68.2865   73.8018   90.1641 C   0  0  0  0  0  0  0  0  0  0  0  0
   68.6291   72.6935   90.9394 C   0  0  0  0  0  0  0  0  0  0  0  0
   68.8106   72.8168   92.3206 C   0  0  0  0  0  0  0  0  0  0  0  0
   69.0958   71.6589   93.0475 O   0  0  0  0  0  0  0  0  0  0  0  0
   69.1805   70.8371   92.6053 H   0  0  0  0  0  0  0  0  0  0  0  0
   68.2425   73.5027   95.3565 N   0  0  0  0  0  0  0  0  0  0  0  0
   68.9237   74.2908   94.3785 C   0  0  0  0  0  0  0  0  0  0  0  0
   69.7189   75.1914   94.7587 O   0  0  0  0  0  0  0  0  0  0  0  0
   68.4177   73.6477   96.3144 H   0  0  0  0  0  0  0  0  0  0  0  0
   67.5981   72.8148   95.0726 H   0  0  0  0  0  0  0  0  0  0  0  0
   67.7423   80.6757   88.6175 C   0  0  0  0  0  0  0  0  0  0  0  0
   68.3244   81.8692   89.1417 O   0  0  0  0  0  0  0  0  0  0  0  0
   69.0717   82.8084   88.4065 C   0  0  0  0  0  0  0  0  0  0  0  0
   68.5053   83.5429   87.3454 C   0  0  0  0  0  0  0  0  0  0  0  0
   69.2678   84.4721   86.6364 C   0  0  0  0  0  0  0  0  0  0  0  0
   70.6046   84.6862   86.9670 C   0  0  0  0  0  0  0  0  0  0  0  0
   71.1943   83.9668   88.0148 C   0  0  0  0  0  0  0  0  0  0  0  0
   72.5412   84.1787   88.3491 C   0  0  0  0  0  0  0  0  0  0  0  0
   73.1273   83.4622   89.3944 C   0  0  0  0  0  0  0  0  0  0  0  0
   72.3765   82.5305   90.1136 C   0  0  0  0  0  0  0  0  0  0  0  0
   71.0350   82.3077   89.7928 C   0  0  0  0  0  0  0  0  0  0  0  0
   70.4266   83.0199   88.7415 C   0  0  0  0  0  0  0  0  0  0  0  0
  1  2  1  0  0  0  0
  1  4  1  0  0  0  0
  2  3  2  0  0  0  0
  2 20  1  0  0  0  0
  5  6  2  0  0  0  0
  6  1  1  0  0  0  0
  7  8  2  0  0  0  0
  8  9  1  0  0  0  0
  9  5  1  0  0  0  0
  9 10  2  0  0  0  0
 10 11  1  0  0  0  0
 11 12  2  0  0  0  0
 12 13  1  0  0  0  0
 12  7  1  0  0  0  0
 13 14  1  0  0  0  0
 15 16  1  0  0  0  0
 15 18  1  0  0  0  0
 15 19  1  0  0  0  0
 16 17  2  0  0  0  0
 16  7  1  0  0  0  0
 20 21  1  0  0  0  0
 21 22  1  0  0  0  0
 22 23  2  0  0  0  0
 23 24  1  0  0  0  0
 24 25  2  0  0  0  0
 25 26  1  0  0  0  0
 26 27  2  0  0  0  0
 27 28  1  0  0  0  0
 28 29  2  0  0  0  0
 29 30  1  0  0  0  0
 30 31  2  0  0  0  0
 31 22  1  0  0  0  0
 31 26  1  0  0  0  0
M  END
>  <Activity>
398.5

>  <minimizedAffinity>
-8.42537

>  <RFScoreVS_v2>
5.95837784843

$$$$
HIPS7112
 OpenBabel05252300073D

 31 33  0  0  0  0  0  0  0  0999 V2000
   70.1446   78.9008   90.5835 N   0  0  0  0  0  0  0  0  0  0  0  0
   71.0419   77.7904   90.6574 C   0  0  0  0  0  0  0  0  0  0  0  0
   72.1427   77.8252   90.0448 O   0  0  0  0  0  0  0  0  0  0  0  0
   69.2670   78.8523   91.0271 H   0  0  0  0  0  0  0  0  0  0  0  0
   70.9704   81.1089   90.4885 C   0  0  0  0  0  0  0  0  0  0  0  0
   70.5095   80.0600   89.8811 N   0  0  0  0  0  0  0  0  0  0  0  0
   70.7338   84.1473   88.2388 C   0  0  0  0  0  0  0  0  0  0  0  0
   70.3993   82.9913   88.9669 C   0  0  0  0  0  0  0  0  0  0  0  0
   71.3609   82.3175   89.7343 C   0  0  0  0  0  0  0  0  0  0  0  0
   72.6748   82.8099   89.7724 C   0  0  0  0  0  0  0  0  0  0  0  0
   73.0153   83.9636   89.0654 C   0  0  0  0  0  0  0  0  0  0  0  0
   72.0573   84.6466   88.3093 C   0  0  0  0  0  0  0  0  0  0  0  0
   72.4482   85.8262   87.6721 O   0  0  0  0  0  0  0  0  0  0  0  0
   73.3336   86.1251   87.7417 H   0  0  0  0  0  0  0  0  0  0  0  0
   70.0087   85.2406   86.0791 N   0  0  0  0  0  0  0  0  0  0  0  0
   69.6975   84.7843   87.3969 C   0  0  0  0  0  0  0  0  0  0  0  0
   68.5356   84.9619   87.8514 O   0  0  0  0  0  0  0  0  0  0  0  0
   69.3117   85.6631   85.5270 H   0  0  0  0  0  0  0  0  0  0  0  0
   70.9203   85.1324   85.7232 H   0  0  0  0  0  0  0  0  0  0  0  0
   70.6769   76.5835   91.4666 C   0  0  0  0  0  0  0  0  0  0  0  0
   69.2740   76.3333   91.3796 O   0  0  0  0  0  0  0  0  0  0  0  0
   68.6480   75.0907   91.5925 C   0  0  0  0  0  0  0  0  0  0  0  0
   68.9267   73.9698   90.7850 C   0  0  0  0  0  0  0  0  0  0  0  0
   68.2955   72.7477   91.0216 C   0  0  0  0  0  0  0  0  0  0  0  0
   67.3765   72.6185   92.0613 C   0  0  0  0  0  0  0  0  0  0  0  0
   67.0776   73.7179   92.8770 C   0  0  0  0  0  0  0  0  0  0  0  0
   66.1509   73.5916   93.9239 C   0  0  0  0  0  0  0  0  0  0  0  0
   65.8550   74.6876   94.7369 C   0  0  0  0  0  0  0  0  0  0  0  0
   66.4797   75.9158   94.5132 C   0  0  0  0  0  0  0  0  0  0  0  0
   67.4040   76.0578   93.4750 C   0  0  0  0  0  0  0  0  0  0  0  0
   67.7147   74.9644   92.6440 C   0  0  0  0  0  0  0  0  0  0  0  0
  1  2  1  0  0  0  0
  1  4  1  0  0  0  0
  2  3  2  0  0  0  0
  2 20  1  0  0  0  0
  5  6  2  0  0  0  0
  6  1  1  0  0  0  0
  7  8  2  0  0  0  0
  8  9  1  0  0  0  0
  9  5  1  0  0  0  0
  9 10  2  0  0  0  0
 10 11  1  0  0  0  0
 11 12  2  0  0  0  0
 12 13  1  0  0  0  0
 12  7  1  0  0  0  0
 13 14  1  0  0  0  0
 15 16  1  0  0  0  0
 15 18  1  0  0  0  0
 15 19  1  0  0  0  0
 16 17  2  0  0  0  0
 16  7  1  0  0  0  0
 20 21  1  0  0  0  0
 21 22  1  0  0  0  0
 22 23  2  0  0  0  0
 23 24  1  0  0  0  0
 24 25  2  0  0  0  0
 25 26  1  0  0  0  0
 26 27  2  0  0  0  0
 27 28  1  0  0  0  0
 28 29  2  0  0  0  0
 29 30  1  0  0  0  0
 30 31  2  0  0  0  0
 31 22  1  0  0  0  0
 31 26  1  0  0  0  0
M  END
>  <Activity>
398.5

>  <minimizedAffinity>
-8.25429

>  <RFScoreVS_v2>
5.96168022888

$$$$
HIPS7112
 OpenBabel05252300073D

 31 33  0  0  0  0  0  0  0  0999 V2000
   68.6002   79.0043   90.3256 N   0  0  0  0  0  0  0  0  0  0  0  0
   67.8290   80.0779   90.8699 C   0  0  0  0  0  0  0  0  0  0  0  0
   67.1203   79.8910   91.8952 O   0  0  0  0  0  0  0  0  0  0  0  0
   69.1179   79.1422   89.4996 H   0  0  0  0  0  0  0  0  0  0  0  0
   68.5569   76.6455   90.2948 C   0  0  0  0  0  0  0  0  0  0  0  0
   68.6224   77.7544   90.9639 N   0  0  0  0  0  0  0  0  0  0  0  0
   68.7559   74.0675   93.0632 C   0  0  0  0  0  0  0  0  0  0  0  0
   68.7219   75.2945   92.3763 C   0  0  0  0  0  0  0  0  0  0  0  0
   68.5928   75.3376   90.9802 C   0  0  0  0  0  0  0  0  0  0  0  0
   68.4959   74.1343   90.2638 C   0  0  0  0  0  0  0  0  0  0  0  0
   68.5146   72.9114   90.9354 C   0  0  0  0  0  0  0  0  0  0  0  0
   68.6299   72.8634   92.3284 C   0  0  0  0  0  0  0  0  0  0  0  0
   68.5843   71.6108   92.9444 O   0  0  0  0  0  0  0  0  0  0  0  0
   68.5003   70.8358   92.4245 H   0  0  0  0  0  0  0  0  0  0  0  0
   67.9473   73.5671   95.4043 N   0  0  0  0  0  0  0  0  0  0  0  0
   68.9553   74.0765   94.5290 C   0  0  0  0  0  0  0  0  0  0  0  0
   70.0062   74.5684   95.0207 O   0  0  0  0  0  0  0  0  0  0  0  0
   68.0900   73.5777   96.3783 H   0  0  0  0  0  0  0  0  0  0  0  0
   67.1101   73.2056   95.0333 H   0  0  0  0  0  0  0  0  0  0  0  0
   67.8643   81.4295   90.2243 C   0  0  0  0  0  0  0  0  0  0  0  0
   68.8286   81.4518   89.1719 O   0  0  0  0  0  0  0  0  0  0  0  0
   70.0273   82.1896   89.1736 C   0  0  0  0  0  0  0  0  0  0  0  0
   71.1178   81.8345   89.9927 C   0  0  0  0  0  0  0  0  0  0  0  0
   72.2970   82.5806   89.9707 C   0  0  0  0  0  0  0  0  0  0  0  0
   72.4127   83.6918   89.1377 C   0  0  0  0  0  0  0  0  0  0  0  0
   71.3426   84.0698   88.3159 C   0  0  0  0  0  0  0  0  0  0  0  0
   71.4553   85.1898   87.4771 C   0  0  0  0  0  0  0  0  0  0  0  0
   70.3886   85.5646   86.6576 C   0  0  0  0  0  0  0  0  0  0  0  0
   69.2034   84.8269   86.6678 C   0  0  0  0  0  0  0  0  0  0  0  0
   69.0755   83.7100   87.4975 C   0  0  0  0  0  0  0  0  0  0  0  0
   70.1397   83.3170   88.3316 C   0  0  0  0  0  0  0  0  0  0  0  0
  1  2  1  0  0  0  0
  1  4  1  0  0  0  0
  2  3  2  0  0  0  0
  2 20  1  0  0  0  0
  5  6  2  0  0  0  0
  6  1  1  0  0  0  0
  7  8  2  0  0  0  0
  8  9  1  0  0  0  0
  9  5  1  0  0  0  0
  9 10  2  0  0  0  0
 10 11  1  0  0  0  0
 11 12  2  0  0  0  0
 12 13  1  0  0  0  0
 12  7  1  0  0  0  0
 13 14  1  0  0  0  0
 15 16  1  0  0  0  0
 15 18  1  0  0  0  0
 15 19  1  0  0  0  0
 16 17  2  0  0  0  0
 16  7  1  0  0  0  0
 20 21  1  0  0  0  0
 21 22  1  0  0  0  0
 22 23  2  0  0  0  0
 23 24  1  0  0  0  0
 24 25  2  0  0  0  0
 25 26  1  0  0  0  0
 26 27  2  0  0  0  0
 27 28  1  0  0  0  0
 28 29  2  0  0  0  0
 29 30  1  0  0  0  0
 30 31  2  0  0  0  0
 31 22  1  0  0  0  0
 31 26  1  0  0  0  0
M  END
>  <Activity>
398.5

>  <minimizedAffinity>
-8.23799

>  <RFScoreVS_v2>
5.96444709871

$$$$
HIPS7112
 OpenBabel05252300073D

 31 33  0  0  0  0  0  0  0  0999 V2000
   68.7325   79.5130   90.1052 N   0  0  0  0  0  0  0  0  0  0  0  0
   67.5964   79.7742   89.2777 C   0  0  0  0  0  0  0  0  0  0  0  0
   66.5613   79.0629   89.3820 O   0  0  0  0  0  0  0  0  0  0  0  0
   69.5546   80.0423   89.9904 H   0  0  0  0  0  0  0  0  0  0  0  0
   69.3823   77.4192   90.9773 C   0  0  0  0  0  0  0  0  0  0  0  0
   68.6807   78.5049   91.0805 N   0  0  0  0  0  0  0  0  0  0  0  0
   69.6465   74.0341   92.6566 C   0  0  0  0  0  0  0  0  0  0  0  0
   69.6846   75.0562   91.6911 C   0  0  0  0  0  0  0  0  0  0  0  0
   69.3256   76.3723   92.0177 C   0  0  0  0  0  0  0  0  0  0  0  0
   68.9239   76.6670   93.3300 C   0  0  0  0  0  0  0  0  0  0  0  0
   68.8953   75.6644   94.2998 C   0  0  0  0  0  0  0  0  0  0  0  0
   69.2648   74.3533   93.9826 C   0  0  0  0  0  0  0  0  0  0  0  0
   69.2698   73.4093   95.0118 O   0  0  0  0  0  0  0  0  0  0  0  0
   69.0104   73.6582   95.8771 H   0  0  0  0  0  0  0  0  0  0  0  0
   69.3078   72.0428   91.1382 N   0  0  0  0  0  0  0  0  0  0  0  0
   69.9757   72.6518   92.2448 C   0  0  0  0  0  0  0  0  0  0  0  0
   70.8270   71.9855   92.8926 O   0  0  0  0  0  0  0  0  0  0  0  0
   69.5344   71.1224   90.8724 H   0  0  0  0  0  0  0  0  0  0  0  0
   68.6209   72.5437   90.6416 H   0  0  0  0  0  0  0  0  0  0  0  0
   67.6325   80.8972   88.2866 C   0  0  0  0  0  0  0  0  0  0  0  0
   68.2208   82.0582   88.8732 O   0  0  0  0  0  0  0  0  0  0  0  0
   68.9741   83.0306   88.1889 C   0  0  0  0  0  0  0  0  0  0  0  0
   68.4122   83.8243   87.1689 C   0  0  0  0  0  0  0  0  0  0  0  0
   69.1805   84.7853   86.5101 C   0  0  0  0  0  0  0  0  0  0  0  0
   70.5187   84.9728   86.8510 C   0  0  0  0  0  0  0  0  0  0  0  0
   71.1040   84.1946   87.8585 C   0  0  0  0  0  0  0  0  0  0  0  0
   72.4523   84.3797   88.2028 C   0  0  0  0  0  0  0  0  0  0  0  0
   73.0340   83.6045   89.2080 C   0  0  0  0  0  0  0  0  0  0  0  0
   72.2774   82.6406   89.8768 C   0  0  0  0  0  0  0  0  0  0  0  0
   70.9344   82.4439   89.5453 C   0  0  0  0  0  0  0  0  0  0  0  0
   70.3304   83.2152   88.5339 C   0  0  0  0  0  0  0  0  0  0  0  0
  1  2  1  0  0  0  0
  1  4  1  0  0  0  0
  2  3  2  0  0  0  0
  2 20  1  0  0  0  0
  5  6  2  0  0  0  0
  6  1  1  0  0  0  0
  7  8  2  0  0  0  0
  8  9  1  0  0  0  0
  9  5  1  0  0  0  0
  9 10  2  0  0  0  0
 10 11  1  0  0  0  0
 11 12  2  0  0  0  0
 12 13  1  0  0  0  0
 12  7  1  0  0  0  0
 13 14  1  0  0  0  0
 15 16  1  0  0  0  0
 15 18  1  0  0  0  0
 15 19  1  0  0  0  0
 16 17  2  0  0  0  0
 16  7  1  0  0  0  0
 20 21  1  0  0  0  0
 21 22  1  0  0  0  0
 22 23  2  0  0  0  0
 23 24  1  0  0  0  0
 24 25  2  0  0  0  0
 25 26  1  0  0  0  0
 26 27  2  0  0  0  0
 27 28  1  0  0  0  0
 28 29  2  0  0  0  0
 29 30  1  0  0  0  0
 30 31  2  0  0  0  0
 31 22  1  0  0  0  0
 31 26  1  0  0  0  0
M  END
>  <Activity>
398.5

>  <minimizedAffinity>
-8.16938

>  <RFScoreVS_v2>
5.97543708708

$$$$
HIPS7112
 OpenBabel05252300073D

 31 33  0  0  0  0  0  0  0  0999 V2000
   68.3119   78.7377   90.4057 N   0  0  0  0  0  0  0  0  0  0  0  0
   69.3286   79.7222   90.2038 C   0  0  0  0  0  0  0  0  0  0  0  0
   70.5403   79.3789   90.1547 O   0  0  0  0  0  0  0  0  0  0  0  0
   67.3707   79.0147   90.4875 H   0  0  0  0  0  0  0  0  0  0  0  0
   68.1394   76.6015   91.3923 C   0  0  0  0  0  0  0  0  0  0  0  0
   68.6499   77.3779   90.4878 N   0  0  0  0  0  0  0  0  0  0  0  0
   69.4203   73.2980   92.7322 C   0  0  0  0  0  0  0  0  0  0  0  0
   69.0709   74.6567   92.6313 C   0  0  0  0  0  0  0  0  0  0  0  0
   68.4964   75.1697   91.4589 C   0  0  0  0  0  0  0  0  0  0  0  0
   68.2689   74.3086   90.3740 C   0  0  0  0  0  0  0  0  0  0  0  0
   68.5985   72.9560   90.4672 C   0  0  0  0  0  0  0  0  0  0  0  0
   69.1594   72.4368   91.6385 C   0  0  0  0  0  0  0  0  0  0  0  0
   69.4128   71.0643   91.6882 O   0  0  0  0  0  0  0  0  0  0  0  0
   69.2271   70.5264   90.9438 H   0  0  0  0  0  0  0  0  0  0  0  0
   69.4846   73.0522   95.2463 N   0  0  0  0  0  0  0  0  0  0  0  0
   70.0794   72.8213   93.9678 C   0  0  0  0  0  0  0  0  0  0  0  0
   71.1938   72.2362   93.9041 O   0  0  0  0  0  0  0  0  0  0  0  0
   69.9315   72.7308   96.0625 H   0  0  0  0  0  0  0  0  0  0  0  0
   68.6277   73.5327   95.3110 H   0  0  0  0  0  0  0  0  0  0  0  0
   68.9556   81.1646   90.0467 C   0  0  0  0  0  0  0  0  0  0  0  0
   69.1831   81.5927   88.7039 O   0  0  0  0  0  0  0  0  0  0  0  0
   69.0878   82.9176   88.2383 C   0  0  0  0  0  0  0  0  0  0  0  0
   67.8720   83.4561   87.7716 C   0  0  0  0  0  0  0  0  0  0  0  0
   67.8044   84.7751   87.3205 C   0  0  0  0  0  0  0  0  0  0  0  0
   68.9419   85.5802   87.3232 C   0  0  0  0  0  0  0  0  0  0  0  0
   70.1647   85.0692   87.7780 C   0  0  0  0  0  0  0  0  0  0  0  0
   71.3129   85.8770   87.7801 C   0  0  0  0  0  0  0  0  0  0  0  0
   72.5305   85.3669   88.2349 C   0  0  0  0  0  0  0  0  0  0  0  0
   72.6130   84.0499   88.6906 C   0  0  0  0  0  0  0  0  0  0  0  0
   71.4794   83.2330   88.6943 C   0  0  0  0  0  0  0  0  0  0  0  0
   70.2429   83.7291   88.2387 C   0  0  0  0  0  0  0  0  0  0  0  0
  1  2  1  0  0  0  0
  1  4  1  0  0  0  0
  2  3  2  0  0  0  0
  2 20  1  0  0  0  0
  5  6  2  0  0  0  0
  6  1  1  0  0  0  0
  7  8  2  0  0  0  0
  8  9  1  0  0  0  0
  9  5  1  0  0  0  0
  9 10  2  0  0  0  0
 10 11  1  0  0  0  0
 11 12  2  0  0  0  0
 12 13  1  0  0  0  0
 12  7  1  0  0  0  0
 13 14  1  0  0  0  0
 15 16  1  0  0  0  0
 15 18  1  0  0  0  0
 15 19  1  0  0  0  0
 16 17  2  0  0  0  0
 16  7  1  0  0  0  0
 20 21  1  0  0  0  0
 21 22  1  0  0  0  0
 22 23  2  0  0  0  0
 23 24  1  0  0  0  0
 24 25  2  0  0  0  0
 25 26  1  0  0  0  0
 26 27  2  0  0  0  0
 27 28  1  0  0  0  0
 28 29  2  0  0  0  0
 29 30  1  0  0  0  0
 30 31  2  0  0  0  0
 31 22  1  0  0  0  0
 31 26  1  0  0  0  0
M  END
>  <Activity>
398.5

>  <minimizedAffinity>
-8.09409

>  <RFScoreVS_v2>
5.96674864457

$$$$
