HIPS314


 19 20  0  0  0  0  0  0  0  0999 V2000
   69.1586   74.9651   91.7529 C   0  0  0  0  0  0  0  0  0  0  0  0
   68.6375   74.2386   90.6712 C   0  0  0  0  0  0  0  0  0  0  0  0
   67.7895   73.1520   90.8959 C   0  0  0  0  0  0  0  0  0  0  0  0
   67.4530   72.7794   92.1994 C   0  0  0  0  0  0  0  0  0  0  0  0
   67.9670   73.4973   93.2965 C   0  0  0  0  0  0  0  0  0  0  0  0
   68.8170   74.5861   93.0627 C   0  0  0  0  0  0  0  0  0  0  0  0
   70.9637   79.1174   90.0631 N   0  0  0  0  0  0  0  0  0  0  0  0
   70.8253   77.8960   90.7831 C   0  0  0  0  0  0  0  0  0  0  0  0
   71.7547   77.4130   91.6261 N   0  0  0  0  0  0  0  0  0  0  0  0
   71.2627   76.2749   92.0908 N   0  0  0  0  0  0  0  0  0  0  0  0
   70.0546   76.1131   91.5111 C   0  0  0  0  0  0  0  0  0  0  0  0
   69.7802   77.1110   90.7030 O   0  0  0  0  0  0  0  0  0  0  0  0
   71.7771   79.6618   90.1690 H   0  0  0  0  0  0  0  0  0  0  0  0
   70.2458   79.4172   89.4597 H   0  0  0  0  0  0  0  0  0  0  0  0
   67.6633   73.1685   94.6277 O   0  0  0  0  0  0  0  0  0  0  0  0
   66.7266   73.8570   95.4536 C   0  0  0  0  0  0  0  0  0  0  0  0
   67.0891   75.1860   95.5803 F   0  0  0  0  0  0  0  0  0  0  0  0
   65.4562   73.7636   94.9139 F   0  0  0  0  0  0  0  0  0  0  0  0
   66.7217   73.2754   96.7066 F   0  0  0  0  0  0  0  0  0  0  0  0
  7  8  1  0  0  0
  8  9  2  0  0  0
  9 10  1  0  0  0
 10 11  2  0  0  0
 11  1  1  0  0  0
  1  2  2  0  0  0
  2  3  1  0  0  0
  3  4  2  0  0  0
  4  5  1  0  0  0
  5 15  1  0  0  0
 15 16  1  0  0  0
 16 17  1  0  0  0
 16 18  1  0  0  0
 16 19  1  0  0  0
  5  6  2  0  0  0
 11 12  1  0  0  0
 12  8  1  0  0  0
  6  1  1  0  0  0
  7 13  1  0  0  0
  7 14  1  0  0  0
M  END
> <score>
0.493686

> <minimizedAffinity>
-6.79467

$$$$
HIPS314


 19 20  0  0  0  0  0  0  0  0999 V2000
   68.0221   73.9707   90.4371 C   0  0  0  0  0  0  0  0  0  0  0  0
   67.6261   72.8082   89.7581 C   0  0  0  0  0  0  0  0  0  0  0  0
   66.9312   72.9004   88.5503 C   0  0  0  0  0  0  0  0  0  0  0  0
   66.6245   74.1507   88.0082 C   0  0  0  0  0  0  0  0  0  0  0  0
   67.0142   75.3274   88.6763 C   0  0  0  0  0  0  0  0  0  0  0  0
   67.7111   75.2264   89.8875 C   0  0  0  0  0  0  0  0  0  0  0  0
   69.1387   73.0070   95.0393 N   0  0  0  0  0  0  0  0  0  0  0  0
   69.2313   73.4534   93.6897 C   0  0  0  0  0  0  0  0  0  0  0  0
   70.3231   74.0382   93.1664 N   0  0  0  0  0  0  0  0  0  0  0  0
   70.0199   74.3035   91.9051 N   0  0  0  0  0  0  0  0  0  0  0  0
   68.7566   73.8689   91.7137 C   0  0  0  0  0  0  0  0  0  0  0  0
   68.2654   73.3435   92.8123 O   0  0  0  0  0  0  0  0  0  0  0  0
   69.9037   73.1200   95.6487 H   0  0  0  0  0  0  0  0  0  0  0  0
   68.3098   72.5856   95.3626 H   0  0  0  0  0  0  0  0  0  0  0  0
   66.7335   76.6105   88.1791 O   0  0  0  0  0  0  0  0  0  0  0  0
   67.5571   77.3418   87.2733 C   0  0  0  0  0  0  0  0  0  0  0  0
   68.7941   77.5847   87.8431 F   0  0  0  0  0  0  0  0  0  0  0  0
   67.7113   76.6363   86.0933 F   0  0  0  0  0  0  0  0  0  0  0  0
   66.9509   78.5510   86.9928 F   0  0  0  0  0  0  0  0  0  0  0  0
  7  8  1  0  0  0
  8  9  2  0  0  0
  9 10  1  0  0  0
 10 11  2  0  0  0
 11  1  1  0  0  0
  1  2  2  0  0  0
  2  3  1  0  0  0
  3  4  2  0  0  0
  4  5  1  0  0  0
  5 15  1  0  0  0
 15 16  1  0  0  0
 16 17  1  0  0  0
 16 18  1  0  0  0
 16 19  1  0  0  0
  5  6  2  0  0  0
 11 12  1  0  0  0
 12  8  1  0  0  0
  6  1  1  0  0  0
  7 13  1  0  0  0
  7 14  1  0  0  0
M  END
> <score>
0.493686

> <minimizedAffinity>
-6.68997

$$$$
HIPS314


 19 20  0  0  0  0  0  0  0  0999 V2000
   68.1909   73.3841   91.3952 C   0  0  0  0  0  0  0  0  0  0  0  0
   69.5640   73.1188   91.5116 C   0  0  0  0  0  0  0  0  0  0  0  0
   70.1396   72.9247   92.7691 C   0  0  0  0  0  0  0  0  0  0  0  0
   69.3531   72.9932   93.9214 C   0  0  0  0  0  0  0  0  0  0  0  0
   67.9737   73.2586   93.8230 C   0  0  0  0  0  0  0  0  0  0  0  0
   67.4038   73.4520   92.5578 C   0  0  0  0  0  0  0  0  0  0  0  0
   66.0042   72.5780   87.1616 N   0  0  0  0  0  0  0  0  0  0  0  0
   66.6474   73.2377   88.2480 C   0  0  0  0  0  0  0  0  0  0  0  0
   66.9017   74.5575   88.2793 N   0  0  0  0  0  0  0  0  0  0  0  0
   67.5011   74.7814   89.4386 N   0  0  0  0  0  0  0  0  0  0  0  0
   67.5863   73.5885   90.0641 C   0  0  0  0  0  0  0  0  0  0  0  0
   67.0608   72.6325   89.3332 O   0  0  0  0  0  0  0  0  0  0  0  0
   65.7175   73.0931   86.3731 H   0  0  0  0  0  0  0  0  0  0  0  0
   65.8464   71.6069   87.1992 H   0  0  0  0  0  0  0  0  0  0  0  0
   67.1345   73.3389   94.9462 O   0  0  0  0  0  0  0  0  0  0  0  0
   66.6580   74.5475   95.5343 C   0  0  0  0  0  0  0  0  0  0  0  0
   66.6895   74.4513   96.9140 F   0  0  0  0  0  0  0  0  0  0  0  0
   67.4301   75.6172   95.1179 F   0  0  0  0  0  0  0  0  0  0  0  0
   65.3531   74.7573   95.1324 F   0  0  0  0  0  0  0  0  0  0  0  0
  7  8  1  0  0  0
  8  9  2  0  0  0
  9 10  1  0  0  0
 10 11  2  0  0  0
 11  1  1  0  0  0
  1  2  2  0  0  0
  2  3  1  0  0  0
  3  4  2  0  0  0
  4  5  1  0  0  0
  5 15  1  0  0  0
 15 16  1  0  0  0
 16 17  1  0  0  0
 16 18  1  0  0  0
 16 19  1  0  0  0
  5  6  2  0  0  0
 11 12  1  0  0  0
 12  8  1  0  0  0
  6  1  1  0  0  0
  7 13  1  0  0  0
  7 14  1  0  0  0
M  END
> <score>
0.493686

> <minimizedAffinity>
-6.66493

$$$$
HIPS341


 31 33  0  0  0  0  0  0  0  0999 V2000
   68.8227   80.6311   89.7205 C   0  0  0  0  0  0  0  0  0  0  0  0
   69.8429   81.6011   89.7187 C   0  0  0  0  0  0  0  0  0  0  0  0
   69.5740   82.6993   88.9011 C   0  0  0  0  0  0  0  0  0  0  0  0
   68.0573   82.4620   88.2057 S   0  0  0  0  0  0  0  0  0  0  0  0
   67.7282   80.9764   88.9195 C   0  0  0  0  0  0  0  0  0  0  0  0
   70.4442   83.8842   88.6893 C   0  0  0  0  0  0  0  0  0  0  0  0
   71.8284   83.7230   88.4979 C   0  0  0  0  0  0  0  0  0  0  0  0
   72.6527   84.8333   88.2989 C   0  0  0  0  0  0  0  0  0  0  0  0
   72.1123   86.1220   88.2908 C   0  0  0  0  0  0  0  0  0  0  0  0
   73.1830   87.4937   88.0375 Cl  0  0  0  0  0  0  0  0  0  0  0  0
   70.7337   86.2993   88.4862 C   0  0  0  0  0  0  0  0  0  0  0  0
   70.0147   87.9044   88.4926 Cl  0  0  0  0  0  0  0  0  0  0  0  0
   69.9079   85.1861   88.6850 C   0  0  0  0  0  0  0  0  0  0  0  0
   69.7140   77.1733   91.1357 N   0  0  0  0  0  0  0  0  0  0  0  0
   69.7393   78.3368   90.2851 C   0  0  0  0  0  0  0  0  0  0  0  0
   70.5410   78.3720   89.3127 O   0  0  0  0  0  0  0  0  0  0  0  0
   68.8645   79.4505   90.5392 N   0  0  0  0  0  0  0  0  0  0  0  0
   68.2618   79.4012   91.3160 H   0  0  0  0  0  0  0  0  0  0  0  0
   71.9444   77.5294   92.1386 C   0  0  0  0  0  0  0  0  0  0  0  0
   70.9833   76.5297   91.5020 C   0  0  0  0  0  0  0  0  0  0  0  0
   68.4379   76.5806   91.5686 C   0  0  0  0  0  0  0  0  0  0  0  0
   68.0179   75.4739   90.6346 C   0  0  0  0  0  0  0  0  0  0  0  0
   68.2679   74.1310   90.9649 C   0  0  0  0  0  0  0  0  0  0  0  0
   67.8614   73.1049   90.1067 C   0  0  0  0  0  0  0  0  0  0  0  0
   67.2035   73.4100   88.9126 C   0  0  0  0  0  0  0  0  0  0  0  0
   66.9527   74.7421   88.5740 C   0  0  0  0  0  0  0  0  0  0  0  0
   67.3578   75.7712   89.4297 C   0  0  0  0  0  0  0  0  0  0  0  0
   66.4958   80.2066   88.6758 C   0  0  0  0  0  0  0  0  0  0  0  0
   66.3472   79.5383   87.6190 O   0  0  0  0  0  0  0  0  0  0  0  0
   65.4756   80.2276   89.6219 O   0  0  0  0  0  0  0  0  0  0  0  0
   65.5784   80.7225   90.4108 H   0  0  0  0  0  0  0  0  0  0  0  0
 19 20  1  0  0  0
 20 14  1  0  0  0
 14 21  1  0  0  0
 21 22  1  0  0  0
 22 23  2  0  0  0
 23 24  1  0  0  0
 24 25  2  0  0  0
 25 26  1  0  0  0
 26 27  2  0  0  0
 14 15  1  0  0  0
 15 16  2  0  0  0
 15 17  1  0  0  0
 17  1  1  0  0  0
  1  2  1  0  0  0
  2  3  2  0  0  0
  3  6  1  0  0  0
  6  7  2  0  0  0
  7  8  1  0  0  0
  8  9  2  0  0  0
  9 10  1  0  0  0
  9 11  1  0  0  0
 11 12  1  0  0  0
 11 13  2  0  0  0
  3  4  1  0  0  0
  4  5  1  0  0  0
  5 28  1  0  0  0
 28 29  2  0  0  0
 28 30  1  0  0  0
 27 22  1  0  0  0
  5  1  2  0  0  0
 13  6  1  0  0  0
 17 18  1  0  0  0
 30 31  1  0  0  0
M  END
> <score>
-0.265965

> <minimizedAffinity>
-8.07241

$$$$
HIPS341


 31 33  0  0  0  0  0  0  0  0999 V2000
   67.9541   78.8059   90.0118 C   0  0  0  0  0  0  0  0  0  0  0  0
   67.9414   78.3011   91.3259 C   0  0  0  0  0  0  0  0  0  0  0  0
   67.4648   76.9933   91.4219 C   0  0  0  0  0  0  0  0  0  0  0  0
   67.0849   76.4701   89.8656 S   0  0  0  0  0  0  0  0  0  0  0  0
   67.5091   77.8822   89.0591 C   0  0  0  0  0  0  0  0  0  0  0  0
   67.3327   76.1839   92.6603 C   0  0  0  0  0  0  0  0  0  0  0  0
   66.1706   76.2758   93.4476 C   0  0  0  0  0  0  0  0  0  0  0  0
   66.0403   75.5178   94.6139 C   0  0  0  0  0  0  0  0  0  0  0  0
   67.0664   74.6590   95.0168 C   0  0  0  0  0  0  0  0  0  0  0  0
   66.8643   73.7221   96.4911 Cl  0  0  0  0  0  0  0  0  0  0  0  0
   68.2344   74.5608   94.2447 C   0  0  0  0  0  0  0  0  0  0  0  0
   69.5533   73.4991   94.7210 Cl  0  0  0  0  0  0  0  0  0  0  0  0
   68.3643   75.3201   93.0755 C   0  0  0  0  0  0  0  0  0  0  0  0
   68.2301   82.5711   89.3045 N   0  0  0  0  0  0  0  0  0  0  0  0
   67.6586   81.2999   89.6722 C   0  0  0  0  0  0  0  0  0  0  0  0
   66.4411   81.2416   89.9946 O   0  0  0  0  0  0  0  0  0  0  0  0
   68.4635   80.1073   89.6766 N   0  0  0  0  0  0  0  0  0  0  0  0
   69.4151   80.1871   89.4369 H   0  0  0  0  0  0  0  0  0  0  0  0
   67.3671   84.8805   89.1330 C   0  0  0  0  0  0  0  0  0  0  0  0
   67.8489   83.7708   90.0629 C   0  0  0  0  0  0  0  0  0  0  0  0
   69.1182   82.6915   88.1366 C   0  0  0  0  0  0  0  0  0  0  0  0
   70.5208   83.0417   88.5649 C   0  0  0  0  0  0  0  0  0  0  0  0
   71.1413   82.3393   89.6121 C   0  0  0  0  0  0  0  0  0  0  0  0
   72.4486   82.6528   89.9959 C   0  0  0  0  0  0  0  0  0  0  0  0
   73.1467   83.6693   89.3392 C   0  0  0  0  0  0  0  0  0  0  0  0
   72.5375   84.3752   88.2986 C   0  0  0  0  0  0  0  0  0  0  0  0
   71.2301   84.0648   87.9119 C   0  0  0  0  0  0  0  0  0  0  0  0
   67.3791   78.0634   87.6027 C   0  0  0  0  0  0  0  0  0  0  0  0
   67.3633   79.2139   87.0913 O   0  0  0  0  0  0  0  0  0  0  0  0
   67.2601   76.9470   86.7805 O   0  0  0  0  0  0  0  0  0  0  0  0
   67.2710   76.0874   87.1532 H   0  0  0  0  0  0  0  0  0  0  0  0
 19 20  1  0  0  0
 20 14  1  0  0  0
 14 21  1  0  0  0
 21 22  1  0  0  0
 22 23  2  0  0  0
 23 24  1  0  0  0
 24 25  2  0  0  0
 25 26  1  0  0  0
 26 27  2  0  0  0
 14 15  1  0  0  0
 15 16  2  0  0  0
 15 17  1  0  0  0
 17  1  1  0  0  0
  1  2  1  0  0  0
  2  3  2  0  0  0
  3  6  1  0  0  0
  6  7  2  0  0  0
  7  8  1  0  0  0
  8  9  2  0  0  0
  9 10  1  0  0  0
  9 11  1  0  0  0
 11 12  1  0  0  0
 11 13  2  0  0  0
  3  4  1  0  0  0
  4  5  1  0  0  0
  5 28  1  0  0  0
 28 29  2  0  0  0
 28 30  1  0  0  0
 27 22  1  0  0  0
  5  1  2  0  0  0
 13  6  1  0  0  0
 17 18  1  0  0  0
 30 31  1  0  0  0
M  END
> <score>
-0.265965

> <minimizedAffinity>
-8.06954

$$$$
HIPS341


 31 33  0  0  0  0  0  0  0  0999 V2000
   68.6939   80.9490   89.7730 C   0  0  0  0  0  0  0  0  0  0  0  0
   69.7328   81.8990   89.7683 C   0  0  0  0  0  0  0  0  0  0  0  0
   69.5301   82.9505   88.8739 C   0  0  0  0  0  0  0  0  0  0  0  0
   68.0474   82.6985   88.1133 S   0  0  0  0  0  0  0  0  0  0  0  0
   67.6504   81.2647   88.8953 C   0  0  0  0  0  0  0  0  0  0  0  0
   70.4346   84.1049   88.6392 C   0  0  0  0  0  0  0  0  0  0  0  0
   71.7984   83.8939   88.3663 C   0  0  0  0  0  0  0  0  0  0  0  0
   72.6548   84.9754   88.1453 C   0  0  0  0  0  0  0  0  0  0  0  0
   72.1677   86.2842   88.1961 C   0  0  0  0  0  0  0  0  0  0  0  0
   73.2777   87.6184   87.9128 Cl  0  0  0  0  0  0  0  0  0  0  0  0
   70.8106   86.5110   88.4730 C   0  0  0  0  0  0  0  0  0  0  0  0
   70.1590   88.1425   88.5553 Cl  0  0  0  0  0  0  0  0  0  0  0  0
   69.9525   85.4267   88.6938 C   0  0  0  0  0  0  0  0  0  0  0  0
   69.0356   77.4083   91.2219 N   0  0  0  0  0  0  0  0  0  0  0  0
   69.1092   78.5022   90.2862 C   0  0  0  0  0  0  0  0  0  0  0  0
   69.5688   78.2949   89.1305 O   0  0  0  0  0  0  0  0  0  0  0  0
   68.6681   79.8194   90.6612 N   0  0  0  0  0  0  0  0  0  0  0  0
   68.3303   79.9543   91.5760 H   0  0  0  0  0  0  0  0  0  0  0  0
   71.4468   77.1303   91.6869 C   0  0  0  0  0  0  0  0  0  0  0  0
   70.1444   76.4457   91.2828 C   0  0  0  0  0  0  0  0  0  0  0  0
   67.8361   77.2007   92.0498 C   0  0  0  0  0  0  0  0  0  0  0  0
   68.0806   76.1355   93.0885 C   0  0  0  0  0  0  0  0  0  0  0  0
   68.8743   76.4094   94.2154 C   0  0  0  0  0  0  0  0  0  0  0  0
   69.0850   75.4264   95.1870 C   0  0  0  0  0  0  0  0  0  0  0  0
   68.5068   74.1629   95.0419 C   0  0  0  0  0  0  0  0  0  0  0  0
   67.7183   73.8800   93.9237 C   0  0  0  0  0  0  0  0  0  0  0  0
   67.5053   74.8604   92.9497 C   0  0  0  0  0  0  0  0  0  0  0  0
   66.4168   80.5034   88.6319 C   0  0  0  0  0  0  0  0  0  0  0  0
   65.8283   80.5864   87.5218 O   0  0  0  0  0  0  0  0  0  0  0  0
   65.8870   79.6896   89.6285 O   0  0  0  0  0  0  0  0  0  0  0  0
   66.3188   79.6224   90.4573 H   0  0  0  0  0  0  0  0  0  0  0  0
 19 20  1  0  0  0
 20 14  1  0  0  0
 14 21  1  0  0  0
 21 22  1  0  0  0
 22 23  2  0  0  0
 23 24  1  0  0  0
 24 25  2  0  0  0
 25 26  1  0  0  0
 26 27  2  0  0  0
 14 15  1  0  0  0
 15 16  2  0  0  0
 15 17  1  0  0  0
 17  1  1  0  0  0
  1  2  1  0  0  0
  2  3  2  0  0  0
  3  6  1  0  0  0
  6  7  2  0  0  0
  7  8  1  0  0  0
  8  9  2  0  0  0
  9 10  1  0  0  0
  9 11  1  0  0  0
 11 12  1  0  0  0
 11 13  2  0  0  0
  3  4  1  0  0  0
  4  5  1  0  0  0
  5 28  1  0  0  0
 28 29  2  0  0  0
 28 30  1  0  0  0
 27 22  1  0  0  0
  5  1  2  0  0  0
 13  6  1  0  0  0
 17 18  1  0  0  0
 30 31  1  0  0  0
M  END
> <score>
-0.265965

> <minimizedAffinity>
-7.77134

$$$$
HIPS342


 29 30  0  0  0  0  0  0  0  0999 V2000
   68.6823   80.0257   89.7701 C   0  0  0  0  0  0  0  0  0  0  0  0
   69.0075   78.7886   90.3563 C   0  0  0  0  0  0  0  0  0  0  0  0
   68.3453   77.7023   89.7833 C   0  0  0  0  0  0  0  0  0  0  0  0
   67.3693   78.2952   88.5427 S   0  0  0  0  0  0  0  0  0  0  0  0
   67.7672   79.9195   88.7190 C   0  0  0  0  0  0  0  0  0  0  0  0
   68.4860   76.2729   90.1638 C   0  0  0  0  0  0  0  0  0  0  0  0
   69.3825   75.8940   91.1799 C   0  0  0  0  0  0  0  0  0  0  0  0
   69.5183   74.5523   91.5446 C   0  0  0  0  0  0  0  0  0  0  0  0
   68.7658   73.5657   90.9021 C   0  0  0  0  0  0  0  0  0  0  0  0
   68.9651   71.8882   91.3904 Cl  0  0  0  0  0  0  0  0  0  0  0  0
   67.8708   73.9270   89.8831 C   0  0  0  0  0  0  0  0  0  0  0  0
   66.9103   72.7160   89.0440 Cl  0  0  0  0  0  0  0  0  0  0  0  0
   67.7350   75.2718   89.5177 C   0  0  0  0  0  0  0  0  0  0  0  0
   71.2848   82.7648   90.0395 N   0  0  0  0  0  0  0  0  0  0  0  0
   70.7441   81.4385   90.1020 C   0  0  0  0  0  0  0  0  0  0  0  0
   71.5128   80.4385   90.1237 O   0  0  0  0  0  0  0  0  0  0  0  0
   69.3231   81.2550   90.1445 N   0  0  0  0  0  0  0  0  0  0  0  0
   70.6668   83.5258   90.1292 H   0  0  0  0  0  0  0  0  0  0  0  0
   68.7610   82.0057   90.4439 H   0  0  0  0  0  0  0  0  0  0  0  0
   72.7087   83.0452   89.8491 C   0  0  0  0  0  0  0  0  0  0  0  0
   72.9246   84.0004   88.6626 C   0  0  0  0  0  0  0  0  0  0  0  0
   71.6448   84.7213   88.1948 C   0  0  0  0  0  0  0  0  0  0  0  0
   71.0063   84.1678   86.9094 C   0  0  0  0  0  0  0  0  0  0  0  0
   69.4942   86.1263   87.4039 C   0  0  0  0  0  0  0  0  0  0  0  0
   69.7841   84.9735   86.4470 C   0  0  0  0  0  0  0  0  0  0  0  0
   67.1867   81.0061   87.9119 C   0  0  0  0  0  0  0  0  0  0  0  0
   65.9984   80.9139   87.5031 O   0  0  0  0  0  0  0  0  0  0  0  0
   67.9259   82.1467   87.6155 O   0  0  0  0  0  0  0  0  0  0  0  0
   68.8102   82.2231   87.9158 H   0  0  0  0  0  0  0  0  0  0  0  0
 24 25  1  0  0  0
 25 23  1  0  0  0
 23 22  1  0  0  0
 22 21  1  0  0  0
 21 20  1  0  0  0
 20 14  1  0  0  0
 14 15  1  0  0  0
 15 16  2  0  0  0
 15 17  1  0  0  0
 17  1  1  0  0  0
  1  2  1  0  0  0
  2  3  2  0  0  0
  3  6  1  0  0  0
  6  7  2  0  0  0
  7  8  1  0  0  0
  8  9  2  0  0  0
  9 10  1  0  0  0
  9 11  1  0  0  0
 11 12  1  0  0  0
 11 13  2  0  0  0
  3  4  1  0  0  0
  4  5  1  0  0  0
  5 26  1  0  0  0
 26 27  2  0  0  0
 26 28  1  0  0  0
  5  1  2  0  0  0
 13  6  1  0  0  0
 14 18  1  0  0  0
 17 19  1  0  0  0
 28 29  1  0  0  0
M  END
> <score>
-0.371074

> <minimizedAffinity>
-7.34250

$$$$
HIPS342


 29 30  0  0  0  0  0  0  0  0999 V2000
   69.7464   78.1916   90.5264 C   0  0  0  0  0  0  0  0  0  0  0  0
   70.6230   79.2148   90.1209 C   0  0  0  0  0  0  0  0  0  0  0  0
   70.0123   80.4631   89.9956 C   0  0  0  0  0  0  0  0  0  0  0  0
   68.3865   80.2799   90.4036 S   0  0  0  0  0  0  0  0  0  0  0  0
   68.4367   78.6321   90.7357 C   0  0  0  0  0  0  0  0  0  0  0  0
   70.6666   81.7386   89.6049 C   0  0  0  0  0  0  0  0  0  0  0  0
   71.9561   82.0479   90.0753 C   0  0  0  0  0  0  0  0  0  0  0  0
   72.5784   83.2441   89.7103 C   0  0  0  0  0  0  0  0  0  0  0  0
   71.9263   84.1531   88.8731 C   0  0  0  0  0  0  0  0  0  0  0  0
   72.7437   85.6475   88.4362 Cl  0  0  0  0  0  0  0  0  0  0  0  0
   70.6377   83.8615   88.3995 C   0  0  0  0  0  0  0  0  0  0  0  0
   69.7789   84.9814   87.3499 Cl  0  0  0  0  0  0  0  0  0  0  0  0
   70.0142   82.6625   88.7656 C   0  0  0  0  0  0  0  0  0  0  0  0
   70.0509   74.7997   92.1848 N   0  0  0  0  0  0  0  0  0  0  0  0
   70.0168   76.2295   92.0866 C   0  0  0  0  0  0  0  0  0  0  0  0
   69.8399   76.9340   93.1181 O   0  0  0  0  0  0  0  0  0  0  0  0
   70.1899   76.8554   90.8086 N   0  0  0  0  0  0  0  0  0  0  0  0
   70.2940   74.2822   91.3833 H   0  0  0  0  0  0  0  0  0  0  0  0
   70.6329   76.3460   90.0920 H   0  0  0  0  0  0  0  0  0  0  0  0
   69.7428   74.0699   93.4156 C   0  0  0  0  0  0  0  0  0  0  0  0
   69.3591   72.6126   93.1064 C   0  0  0  0  0  0  0  0  0  0  0  0
   69.2798   72.2890   91.6013 C   0  0  0  0  0  0  0  0  0  0  0  0
   67.8829   72.4173   90.9699 C   0  0  0  0  0  0  0  0  0  0  0  0
   66.7767   72.9918   88.7761 C   0  0  0  0  0  0  0  0  0  0  0  0
   67.8411   73.3995   89.7908 C   0  0  0  0  0  0  0  0  0  0  0  0
   67.2648   77.8310   91.1284 C   0  0  0  0  0  0  0  0  0  0  0  0
   66.5556   78.1984   92.1030 O   0  0  0  0  0  0  0  0  0  0  0  0
   66.9151   76.6856   90.4208 O   0  0  0  0  0  0  0  0  0  0  0  0
   67.4372   76.4057   89.6948 H   0  0  0  0  0  0  0  0  0  0  0  0
 24 25  1  0  0  0
 25 23  1  0  0  0
 23 22  1  0  0  0
 22 21  1  0  0  0
 21 20  1  0  0  0
 20 14  1  0  0  0
 14 15  1  0  0  0
 15 16  2  0  0  0
 15 17  1  0  0  0
 17  1  1  0  0  0
  1  2  1  0  0  0
  2  3  2  0  0  0
  3  6  1  0  0  0
  6  7  2  0  0  0
  7  8  1  0  0  0
  8  9  2  0  0  0
  9 10  1  0  0  0
  9 11  1  0  0  0
 11 12  1  0  0  0
 11 13  2  0  0  0
  3  4  1  0  0  0
  4  5  1  0  0  0
  5 26  1  0  0  0
 26 27  2  0  0  0
 26 28  1  0  0  0
  5  1  2  0  0  0
 13  6  1  0  0  0
 14 18  1  0  0  0
 17 19  1  0  0  0
 28 29  1  0  0  0
M  END
> <score>
-0.371074

> <minimizedAffinity>
-6.86342

$$$$
HIPS342


 29 30  0  0  0  0  0  0  0  0999 V2000
   68.3947   80.0266   90.0031 C   0  0  0  0  0  0  0  0  0  0  0  0
   68.8843   78.7123   89.8901 C   0  0  0  0  0  0  0  0  0  0  0  0
   68.2057   77.7881   90.6852 C   0  0  0  0  0  0  0  0  0  0  0  0
   66.9935   78.6183   91.5126 S   0  0  0  0  0  0  0  0  0  0  0  0
   67.3148   80.1440   90.8825 C   0  0  0  0  0  0  0  0  0  0  0  0
   68.4695   76.3286   90.7754 C   0  0  0  0  0  0  0  0  0  0  0  0
   69.4517   75.8381   91.6551 C   0  0  0  0  0  0  0  0  0  0  0  0
   69.7035   74.4670   91.7470 C   0  0  0  0  0  0  0  0  0  0  0  0
   68.9834   73.5622   90.9627 C   0  0  0  0  0  0  0  0  0  0  0  0
   69.3296   71.8443   91.1078 Cl  0  0  0  0  0  0  0  0  0  0  0  0
   68.0036   74.0362   90.0766 C   0  0  0  0  0  0  0  0  0  0  0  0
   67.0797   72.9322   89.0663 Cl  0  0  0  0  0  0  0  0  0  0  0  0
   67.7515   75.4104   89.9847 C   0  0  0  0  0  0  0  0  0  0  0  0
   70.6610   82.7633   88.6906 N   0  0  0  0  0  0  0  0  0  0  0  0
   69.9016   82.0172   89.6507 C   0  0  0  0  0  0  0  0  0  0  0  0
   70.1209   82.1597   90.8848 O   0  0  0  0  0  0  0  0  0  0  0  0
   68.8868   81.1105   89.2001 N   0  0  0  0  0  0  0  0  0  0  0  0
   70.3977   82.7098   87.7434 H   0  0  0  0  0  0  0  0  0  0  0  0
   68.5102   81.2366   88.2992 H   0  0  0  0  0  0  0  0  0  0  0  0
   71.8077   83.6003   89.0464 C   0  0  0  0  0  0  0  0  0  0  0  0
   71.8761   84.8463   88.1466 C   0  0  0  0  0  0  0  0  0  0  0  0
   70.9503   84.7844   86.9156 C   0  0  0  0  0  0  0  0  0  0  0  0
   69.6641   85.6226   87.0127 C   0  0  0  0  0  0  0  0  0  0  0  0
   67.5288   84.7871   88.0659 C   0  0  0  0  0  0  0  0  0  0  0  0
   68.3874   84.7958   86.8044 C   0  0  0  0  0  0  0  0  0  0  0  0
   66.5860   81.3663   91.2618 C   0  0  0  0  0  0  0  0  0  0  0  0
   65.3319   81.4068   91.1459 O   0  0  0  0  0  0  0  0  0  0  0  0
   67.2622   82.4702   91.7712 O   0  0  0  0  0  0  0  0  0  0  0  0
   68.1946   82.4481   91.8605 H   0  0  0  0  0  0  0  0  0  0  0  0
 24 25  1  0  0  0
 25 23  1  0  0  0
 23 22  1  0  0  0
 22 21  1  0  0  0
 21 20  1  0  0  0
 20 14  1  0  0  0
 14 15  1  0  0  0
 15 16  2  0  0  0
 15 17  1  0  0  0
 17  1  1  0  0  0
  1  2  1  0  0  0
  2  3  2  0  0  0
  3  6  1  0  0  0
  6  7  2  0  0  0
  7  8  1  0  0  0
  8  9  2  0  0  0
  9 10  1  0  0  0
  9 11  1  0  0  0
 11 12  1  0  0  0
 11 13  2  0  0  0
  3  4  1  0  0  0
  4  5  1  0  0  0
  5 26  1  0  0  0
 26 27  2  0  0  0
 26 28  1  0  0  0
  5  1  2  0  0  0
 13  6  1  0  0  0
 14 18  1  0  0  0
 17 19  1  0  0  0
 28 29  1  0  0  0
M  END
> <score>
-0.371074

> <minimizedAffinity>
-6.84724

$$$$
HIPS343


 30 32  0  0  0  0  0  0  0  0999 V2000
   68.7004   80.7710   89.5001 C   0  0  0  0  0  0  0  0  0  0  0  0
   69.6750   81.7760   89.6444 C   0  0  0  0  0  0  0  0  0  0  0  0
   69.5945   82.7814   88.6790 C   0  0  0  0  0  0  0  0  0  0  0  0
   68.3030   82.4089   87.6607 S   0  0  0  0  0  0  0  0  0  0  0  0
   67.8342   80.9870   88.4236 C   0  0  0  0  0  0  0  0  0  0  0  0
   70.4705   83.9761   88.5575 C   0  0  0  0  0  0  0  0  0  0  0  0
   71.8623   83.8227   88.4187 C   0  0  0  0  0  0  0  0  0  0  0  0
   72.6938   84.9396   88.3050 C   0  0  0  0  0  0  0  0  0  0  0  0
   72.1533   86.2278   88.3252 C   0  0  0  0  0  0  0  0  0  0  0  0
   73.2332   87.6079   88.1792 Cl  0  0  0  0  0  0  0  0  0  0  0  0
   70.7666   86.3979   88.4591 C   0  0  0  0  0  0  0  0  0  0  0  0
   70.0450   88.0017   88.4822 Cl  0  0  0  0  0  0  0  0  0  0  0  0
   69.9335   85.2783   88.5735 C   0  0  0  0  0  0  0  0  0  0  0  0
   70.3037   78.3896   89.5407 O   0  0  0  0  0  0  0  0  0  0  0  0
   69.4555   78.5574   90.4592 C   0  0  0  0  0  0  0  0  0  0  0  0
   69.3589   77.6078   91.5291 N   0  0  0  0  0  0  0  0  0  0  0  0
   68.5622   79.6796   90.4239 N   0  0  0  0  0  0  0  0  0  0  0  0
   68.7041   77.7682   92.2465 H   0  0  0  0  0  0  0  0  0  0  0  0
   67.8161   79.7028   91.0658 H   0  0  0  0  0  0  0  0  0  0  0  0
   70.1948   76.4112   91.5961 C   0  0  0  0  0  0  0  0  0  0  0  0
   69.4134   75.2042   91.1533 C   0  0  0  0  0  0  0  0  0  0  0  0
   69.7014   73.9327   91.6775 C   0  0  0  0  0  0  0  0  0  0  0  0
   68.9838   72.8135   91.2437 C   0  0  0  0  0  0  0  0  0  0  0  0
   67.9785   72.9548   90.2831 C   0  0  0  0  0  0  0  0  0  0  0  0
   67.6898   74.2156   89.7534 C   0  0  0  0  0  0  0  0  0  0  0  0
   68.4051   75.3372   90.1843 C   0  0  0  0  0  0  0  0  0  0  0  0
   66.7313   80.1299   87.9563 C   0  0  0  0  0  0  0  0  0  0  0  0
   65.6477   80.6315   87.5558 O   0  0  0  0  0  0  0  0  0  0  0  0
   66.8801   78.7465   87.9781 O   0  0  0  0  0  0  0  0  0  0  0  0
   67.6834   78.3663   88.2748 H   0  0  0  0  0  0  0  0  0  0  0  0
 14 15  2  0  0  0
 15 16  1  0  0  0
 16 20  1  0  0  0
 20 21  1  0  0  0
 21 22  2  0  0  0
 22 23  1  0  0  0
 23 24  2  0  0  0
 24 25  1  0  0  0
 25 26  2  0  0  0
 15 17  1  0  0  0
 17  1  1  0  0  0
  1  2  1  0  0  0
  2  3  2  0  0  0
  3  6  1  0  0  0
  6  7  2  0  0  0
  7  8  1  0  0  0
  8  9  2  0  0  0
  9 10  1  0  0  0
  9 11  1  0  0  0
 11 12  1  0  0  0
 11 13  2  0  0  0
  3  4  1  0  0  0
  4  5  1  0  0  0
  5 27  1  0  0  0
 27 28  2  0  0  0
 27 29  1  0  0  0
 26 21  1  0  0  0
  5  1  2  0  0  0
 13  6  1  0  0  0
 16 18  1  0  0  0
 17 19  1  0  0  0
 29 30  1  0  0  0
M  END
> <score>
-0.357913

> <minimizedAffinity>
-8.10143

$$$$
HIPS343


 30 32  0  0  0  0  0  0  0  0999 V2000
   68.3459   77.7946   90.2020 C   0  0  0  0  0  0  0  0  0  0  0  0
   68.8557   76.7518   90.9978 C   0  0  0  0  0  0  0  0  0  0  0  0
   68.4403   75.4813   90.5949 C   0  0  0  0  0  0  0  0  0  0  0  0
   67.4475   75.6729   89.2453 S   0  0  0  0  0  0  0  0  0  0  0  0
   67.5334   77.3487   89.1548 C   0  0  0  0  0  0  0  0  0  0  0  0
   68.8022   74.1823   91.2206 C   0  0  0  0  0  0  0  0  0  0  0  0
   68.6821   72.9861   90.4894 C   0  0  0  0  0  0  0  0  0  0  0  0
   69.0187   71.7605   91.0692 C   0  0  0  0  0  0  0  0  0  0  0  0
   69.4829   71.7056   92.3859 C   0  0  0  0  0  0  0  0  0  0  0  0
   69.8964   70.1435   93.0796 Cl  0  0  0  0  0  0  0  0  0  0  0  0
   69.6121   72.8900   93.1275 C   0  0  0  0  0  0  0  0  0  0  0  0
   70.1989   72.8658   94.7853 Cl  0  0  0  0  0  0  0  0  0  0  0  0
   69.2742   74.1183   92.5463 C   0  0  0  0  0  0  0  0  0  0  0  0
   70.9882   78.8980   89.9924 O   0  0  0  0  0  0  0  0  0  0  0  0
   70.0227   79.6862   90.1869 C   0  0  0  0  0  0  0  0  0  0  0  0
   70.2486   81.1016   90.2264 N   0  0  0  0  0  0  0  0  0  0  0  0
   68.7002   79.1726   90.4007 N   0  0  0  0  0  0  0  0  0  0  0  0
   69.4783   81.7001   90.3592 H   0  0  0  0  0  0  0  0  0  0  0  0
   67.9995   79.7966   90.6987 H   0  0  0  0  0  0  0  0  0  0  0  0
   71.5777   81.6901   90.0774 C   0  0  0  0  0  0  0  0  0  0  0  0
   71.5192   82.8850   89.1651 C   0  0  0  0  0  0  0  0  0  0  0  0
   70.3935   83.1137   88.3558 C   0  0  0  0  0  0  0  0  0  0  0  0
   70.3575   84.2155   87.4953 C   0  0  0  0  0  0  0  0  0  0  0  0
   71.4439   85.0927   87.4341 C   0  0  0  0  0  0  0  0  0  0  0  0
   72.5690   84.8688   88.2324 C   0  0  0  0  0  0  0  0  0  0  0  0
   72.6092   83.7682   89.0940 C   0  0  0  0  0  0  0  0  0  0  0  0
   66.8080   78.1551   88.1584 C   0  0  0  0  0  0  0  0  0  0  0  0
   66.4225   77.6472   87.0722 O   0  0  0  0  0  0  0  0  0  0  0  0
   66.5644   79.5017   88.4104 O   0  0  0  0  0  0  0  0  0  0  0  0
   66.8483   79.8863   89.2163 H   0  0  0  0  0  0  0  0  0  0  0  0
 14 15  2  0  0  0
 15 16  1  0  0  0
 16 20  1  0  0  0
 20 21  1  0  0  0
 21 22  2  0  0  0
 22 23  1  0  0  0
 23 24  2  0  0  0
 24 25  1  0  0  0
 25 26  2  0  0  0
 15 17  1  0  0  0
 17  1  1  0  0  0
  1  2  1  0  0  0
  2  3  2  0  0  0
  3  6  1  0  0  0
  6  7  2  0  0  0
  7  8  1  0  0  0
  8  9  2  0  0  0
  9 10  1  0  0  0
  9 11  1  0  0  0
 11 12  1  0  0  0
 11 13  2  0  0  0
  3  4  1  0  0  0
  4  5  1  0  0  0
  5 27  1  0  0  0
 27 28  2  0  0  0
 27 29  1  0  0  0
 26 21  1  0  0  0
  5  1  2  0  0  0
 13  6  1  0  0  0
 16 18  1  0  0  0
 17 19  1  0  0  0
 29 30  1  0  0  0
M  END
> <score>
-0.357913

> <minimizedAffinity>
-7.97814

$$$$
HIPS343


 30 32  0  0  0  0  0  0  0  0999 V2000
   67.9108   73.9216   92.4824 C   0  0  0  0  0  0  0  0  0  0  0  0
   68.0570   74.7293   91.3392 C   0  0  0  0  0  0  0  0  0  0  0  0
   67.4222   75.9687   91.4404 C   0  0  0  0  0  0  0  0  0  0  0  0
   66.6922   76.0457   92.9585 S   0  0  0  0  0  0  0  0  0  0  0  0
   67.1683   74.5282   93.5005 C   0  0  0  0  0  0  0  0  0  0  0  0
   67.3907   77.0433   90.4138 C   0  0  0  0  0  0  0  0  0  0  0  0
   67.0770   78.3648   90.7813 C   0  0  0  0  0  0  0  0  0  0  0  0
   67.0438   79.3812   89.8234 C   0  0  0  0  0  0  0  0  0  0  0  0
   67.3248   79.0994   88.4841 C   0  0  0  0  0  0  0  0  0  0  0  0
   67.2727   80.4063   87.3087 Cl  0  0  0  0  0  0  0  0  0  0  0  0
   67.6432   77.7871   88.1019 C   0  0  0  0  0  0  0  0  0  0  0  0
   68.0099   77.3909   86.4279 Cl  0  0  0  0  0  0  0  0  0  0  0  0
   67.6760   76.7684   89.0620 C   0  0  0  0  0  0  0  0  0  0  0  0
   70.3700   73.3872   93.8643 O   0  0  0  0  0  0  0  0  0  0  0  0
   69.7181   72.4117   93.4011 C   0  0  0  0  0  0  0  0  0  0  0  0
   70.1714   71.0712   93.6320 N   0  0  0  0  0  0  0  0  0  0  0  0
   68.5388   72.6364   92.6154 N   0  0  0  0  0  0  0  0  0  0  0  0
   69.6369   70.3235   93.2790 H   0  0  0  0  0  0  0  0  0  0  0  0
   68.1395   71.8704   92.1431 H   0  0  0  0  0  0  0  0  0  0  0  0
   71.3958   70.7716   94.3710 C   0  0  0  0  0  0  0  0  0  0  0  0
   72.4634   70.2785   93.4326 C   0  0  0  0  0  0  0  0  0  0  0  0
   73.7960   70.6994   93.5794 C   0  0  0  0  0  0  0  0  0  0  0  0
   74.7773   70.2523   92.6890 C   0  0  0  0  0  0  0  0  0  0  0  0
   74.4355   69.3868   91.6461 C   0  0  0  0  0  0  0  0  0  0  0  0
   73.1112   68.9679   91.4908 C   0  0  0  0  0  0  0  0  0  0  0  0
   72.1268   69.4128   92.3788 C   0  0  0  0  0  0  0  0  0  0  0  0
   66.7878   73.9668   94.8080 C   0  0  0  0  0  0  0  0  0  0  0  0
   65.5870   73.9691   95.1878 O   0  0  0  0  0  0  0  0  0  0  0  0
   67.7707   73.4468   95.6445 O   0  0  0  0  0  0  0  0  0  0  0  0
   68.6662   73.4419   95.3685 H   0  0  0  0  0  0  0  0  0  0  0  0
 14 15  2  0  0  0
 15 16  1  0  0  0
 16 20  1  0  0  0
 20 21  1  0  0  0
 21 22  2  0  0  0
 22 23  1  0  0  0
 23 24  2  0  0  0
 24 25  1  0  0  0
 25 26  2  0  0  0
 15 17  1  0  0  0
 17  1  1  0  0  0
  1  2  1  0  0  0
  2  3  2  0  0  0
  3  6  1  0  0  0
  6  7  2  0  0  0
  7  8  1  0  0  0
  8  9  2  0  0  0
  9 10  1  0  0  0
  9 11  1  0  0  0
 11 12  1  0  0  0
 11 13  2  0  0  0
  3  4  1  0  0  0
  4  5  1  0  0  0
  5 27  1  0  0  0
 27 28  2  0  0  0
 27 29  1  0  0  0
 26 21  1  0  0  0
  5  1  2  0  0  0
 13  6  1  0  0  0
 16 18  1  0  0  0
 17 19  1  0  0  0
 29 30  1  0  0  0
M  END
> <score>
-0.357913

> <minimizedAffinity>
-7.84667

$$$$
HIPS345


 30 32  0  0  0  0  0  0  0  0999 V2000
   68.6714   78.6411   90.0452 C   0  0  0  0  0  0  0  0  0  0  0  0
   69.1263   77.4452   90.6394 C   0  0  0  0  0  0  0  0  0  0  0  0
   68.3354   76.3334   90.3571 C   0  0  0  0  0  0  0  0  0  0  0  0
   67.0777   76.8438   89.3569 S   0  0  0  0  0  0  0  0  0  0  0  0
   67.5139   78.4671   89.2788 C   0  0  0  0  0  0  0  0  0  0  0  0
   68.5404   74.9472   90.8555 C   0  0  0  0  0  0  0  0  0  0  0  0
   68.2021   73.8467   90.0499 C   0  0  0  0  0  0  0  0  0  0  0  0
   68.4251   72.5398   90.4986 C   0  0  0  0  0  0  0  0  0  0  0  0
   68.9872   72.3099   91.7577 C   0  0  0  0  0  0  0  0  0  0  0  0
   69.2752   70.6513   92.2763 Cl  0  0  0  0  0  0  0  0  0  0  0  0
   69.3172   73.3970   92.5788 C   0  0  0  0  0  0  0  0  0  0  0  0
   70.0294   73.1575   94.1692 Cl  0  0  0  0  0  0  0  0  0  0  0  0
   69.0920   74.7046   92.1294 C   0  0  0  0  0  0  0  0  0  0  0  0
   67.9618   83.5052   90.4542 C   0  0  0  0  0  0  0  0  0  0  0  0
   68.5645   82.2809   89.9195 N   0  0  0  0  0  0  0  0  0  0  0  0
   68.4461   81.0531   90.6697 C   0  0  0  0  0  0  0  0  0  0  0  0
   67.5951   80.9589   91.5974 O   0  0  0  0  0  0  0  0  0  0  0  0
   69.2520   79.9166   90.3426 N   0  0  0  0  0  0  0  0  0  0  0  0
   70.2314   80.0139   90.3215 H   0  0  0  0  0  0  0  0  0  0  0  0
   69.1870   82.2855   88.5835 C   0  0  0  0  0  0  0  0  0  0  0  0
   70.5557   82.9216   88.6397 C   0  0  0  0  0  0  0  0  0  0  0  0
   70.9117   83.9433   87.7411 C   0  0  0  0  0  0  0  0  0  0  0  0
   72.1539   84.5865   87.8533 C   0  0  0  0  0  0  0  0  0  0  0  0
   73.0503   84.2064   88.8507 C   0  0  0  0  0  0  0  0  0  0  0  0
   72.7213   83.1688   89.7293 C   0  0  0  0  0  0  0  0  0  0  0  0
   71.4847   82.5204   89.6199 C   0  0  0  0  0  0  0  0  0  0  0  0
   66.7926   79.4793   88.4865 C   0  0  0  0  0  0  0  0  0  0  0  0
   67.0562   79.6560   87.2658 O   0  0  0  0  0  0  0  0  0  0  0  0
   65.7895   80.2337   89.0844 O   0  0  0  0  0  0  0  0  0  0  0  0
   65.5868   80.1092   89.9907 H   0  0  0  0  0  0  0  0  0  0  0  0
 14 15  1  0  0  0
 15 20  1  0  0  0
 20 21  1  0  0  0
 21 22  2  0  0  0
 22 23  1  0  0  0
 23 24  2  0  0  0
 24 25  1  0  0  0
 25 26  2  0  0  0
 15 16  1  0  0  0
 16 17  2  0  0  0
 16 18  1  0  0  0
 18  1  1  0  0  0
  1  2  1  0  0  0
  2  3  2  0  0  0
  3  6  1  0  0  0
  6  7  2  0  0  0
  7  8  1  0  0  0
  8  9  2  0  0  0
  9 10  1  0  0  0
  9 11  1  0  0  0
 11 12  1  0  0  0
 11 13  2  0  0  0
  3  4  1  0  0  0
  4  5  1  0  0  0
  5 27  1  0  0  0
 27 28  2  0  0  0
 27 29  1  0  0  0
 26 21  1  0  0  0
  5  1  2  0  0  0
 13  6  1  0  0  0
 18 19  1  0  0  0
 29 30  1  0  0  0
M  END
> <score>
-0.550434

> <minimizedAffinity>
-8.04016

$$$$
HIPS345


 30 32  0  0  0  0  0  0  0  0999 V2000
   67.2873   79.5140   90.9943 C   0  0  0  0  0  0  0  0  0  0  0  0
   68.4641   80.0377   90.4189 C   0  0  0  0  0  0  0  0  0  0  0  0
   68.3590   81.3691   90.0219 C   0  0  0  0  0  0  0  0  0  0  0  0
   66.8017   81.8923   90.4013 S   0  0  0  0  0  0  0  0  0  0  0  0
   66.2464   80.4465   91.0593 C   0  0  0  0  0  0  0  0  0  0  0  0
   69.4135   82.1865   89.3649 C   0  0  0  0  0  0  0  0  0  0  0  0
   69.1058   82.9686   88.2387 C   0  0  0  0  0  0  0  0  0  0  0  0
   70.0849   83.7675   87.6369 C   0  0  0  0  0  0  0  0  0  0  0  0
   71.3858   83.7980   88.1474 C   0  0  0  0  0  0  0  0  0  0  0  0
   72.5833   84.8351   87.3771 Cl  0  0  0  0  0  0  0  0  0  0  0  0
   71.7120   83.0128   89.2619 C   0  0  0  0  0  0  0  0  0  0  0  0
   73.3343   83.0207   89.9417 Cl  0  0  0  0  0  0  0  0  0  0  0  0
   70.7318   82.2122   89.8625 C   0  0  0  0  0  0  0  0  0  0  0  0
   68.8045   75.7483   93.7957 C   0  0  0  0  0  0  0  0  0  0  0  0
   68.5543   76.4699   92.5448 N   0  0  0  0  0  0  0  0  0  0  0  0
   67.6358   77.5838   92.5473 C   0  0  0  0  0  0  0  0  0  0  0  0
   67.2935   78.1183   93.6385 O   0  0  0  0  0  0  0  0  0  0  0  0
   67.1419   78.1260   91.3185 N   0  0  0  0  0  0  0  0  0  0  0  0
   66.6901   77.5294   90.6788 H   0  0  0  0  0  0  0  0  0  0  0  0
   69.3141   76.1281   91.3290 C   0  0  0  0  0  0  0  0  0  0  0  0
   68.6446   74.9953   90.5878 C   0  0  0  0  0  0  0  0  0  0  0  0
   68.8881   73.6573   90.9466 C   0  0  0  0  0  0  0  0  0  0  0  0
   68.1989   72.6144   90.3088 C   0  0  0  0  0  0  0  0  0  0  0  0
   67.2759   72.8985   89.3037 C   0  0  0  0  0  0  0  0  0  0  0  0
   67.0499   74.2231   88.9149 C   0  0  0  0  0  0  0  0  0  0  0  0
   67.7374   75.2680   89.5449 C   0  0  0  0  0  0  0  0  0  0  0  0
   64.9016   80.2629   91.6340 C   0  0  0  0  0  0  0  0  0  0  0  0
   63.8776   80.6986   91.0404 O   0  0  0  0  0  0  0  0  0  0  0  0
   64.7547   79.5777   92.8347 O   0  0  0  0  0  0  0  0  0  0  0  0
   65.5098   79.2504   93.2827 H   0  0  0  0  0  0  0  0  0  0  0  0
 14 15  1  0  0  0
 15 20  1  0  0  0
 20 21  1  0  0  0
 21 22  2  0  0  0
 22 23  1  0  0  0
 23 24  2  0  0  0
 24 25  1  0  0  0
 25 26  2  0  0  0
 15 16  1  0  0  0
 16 17  2  0  0  0
 16 18  1  0  0  0
 18  1  1  0  0  0
  1  2  1  0  0  0
  2  3  2  0  0  0
  3  6  1  0  0  0
  6  7  2  0  0  0
  7  8  1  0  0  0
  8  9  2  0  0  0
  9 10  1  0  0  0
  9 11  1  0  0  0
 11 12  1  0  0  0
 11 13  2  0  0  0
  3  4  1  0  0  0
  4  5  1  0  0  0
  5 27  1  0  0  0
 27 28  2  0  0  0
 27 29  1  0  0  0
 26 21  1  0  0  0
  5  1  2  0  0  0
 13  6  1  0  0  0
 18 19  1  0  0  0
 29 30  1  0  0  0
M  END
> <score>
-0.550434

> <minimizedAffinity>
-8.01010

$$$$
HIPS345


 30 32  0  0  0  0  0  0  0  0999 V2000
   69.3868   79.7879   89.8725 C   0  0  0  0  0  0  0  0  0  0  0  0
   69.0337   81.1158   89.5524 C   0  0  0  0  0  0  0  0  0  0  0  0
   70.0831   82.0255   89.6635 C   0  0  0  0  0  0  0  0  0  0  0  0
   71.4513   81.1683   90.1493 S   0  0  0  0  0  0  0  0  0  0  0  0
   70.7319   79.6493   90.2313 C   0  0  0  0  0  0  0  0  0  0  0  0
   70.0182   83.4912   89.4198 C   0  0  0  0  0  0  0  0  0  0  0  0
   68.9209   84.2388   89.8800 C   0  0  0  0  0  0  0  0  0  0  0  0
   68.8703   85.6239   89.6850 C   0  0  0  0  0  0  0  0  0  0  0  0
   69.9116   86.2848   89.0270 C   0  0  0  0  0  0  0  0  0  0  0  0
   69.8226   88.0322   88.8231 Cl  0  0  0  0  0  0  0  0  0  0  0  0
   71.0065   85.5510   88.5498 C   0  0  0  0  0  0  0  0  0  0  0  0
   72.3419   86.3389   87.7189 Cl  0  0  0  0  0  0  0  0  0  0  0  0
   71.0555   84.1645   88.7439 C   0  0  0  0  0  0  0  0  0  0  0  0
   67.1327   76.5195   92.7994 C   0  0  0  0  0  0  0  0  0  0  0  0
   67.9509   76.9600   91.6661 N   0  0  0  0  0  0  0  0  0  0  0  0
   67.8721   78.3354   91.2344 C   0  0  0  0  0  0  0  0  0  0  0  0
   67.3569   79.2062   91.9894 O   0  0  0  0  0  0  0  0  0  0  0  0
   68.4174   78.7379   89.9740 N   0  0  0  0  0  0  0  0  0  0  0  0
   68.1185   78.2810   89.1548 H   0  0  0  0  0  0  0  0  0  0  0  0
   68.9189   76.0355   91.0491 C   0  0  0  0  0  0  0  0  0  0  0  0
   68.2001   74.9537   90.2785 C   0  0  0  0  0  0  0  0  0  0  0  0
   67.3949   75.2735   89.1705 C   0  0  0  0  0  0  0  0  0  0  0  0
   66.7979   74.2567   88.4096 C   0  0  0  0  0  0  0  0  0  0  0  0
   66.9892   72.9202   88.7562 C   0  0  0  0  0  0  0  0  0  0  0  0
   67.7605   72.5909   89.8758 C   0  0  0  0  0  0  0  0  0  0  0  0
   68.3556   73.6013   90.6415 C   0  0  0  0  0  0  0  0  0  0  0  0
   71.4523   78.4117   90.5807 C   0  0  0  0  0  0  0  0  0  0  0  0
   72.1307   77.7906   89.7177 O   0  0  0  0  0  0  0  0  0  0  0  0
   71.4057   77.9341   91.8854 O   0  0  0  0  0  0  0  0  0  0  0  0
   70.9042   78.3889   92.5332 H   0  0  0  0  0  0  0  0  0  0  0  0
 14 15  1  0  0  0
 15 20  1  0  0  0
 20 21  1  0  0  0
 21 22  2  0  0  0
 22 23  1  0  0  0
 23 24  2  0  0  0
 24 25  1  0  0  0
 25 26  2  0  0  0
 15 16  1  0  0  0
 16 17  2  0  0  0
 16 18  1  0  0  0
 18  1  1  0  0  0
  1  2  1  0  0  0
  2  3  2  0  0  0
  3  6  1  0  0  0
  6  7  2  0  0  0
  7  8  1  0  0  0
  8  9  2  0  0  0
  9 10  1  0  0  0
  9 11  1  0  0  0
 11 12  1  0  0  0
 11 13  2  0  0  0
  3  4  1  0  0  0
  4  5  1  0  0  0
  5 27  1  0  0  0
 27 28  2  0  0  0
 27 29  1  0  0  0
 26 21  1  0  0  0
  5  1  2  0  0  0
 13  6  1  0  0  0
 18 19  1  0  0  0
 29 30  1  0  0  0
M  END
> <score>
-0.550434

> <minimizedAffinity>
-7.91060

$$$$
HIPS346


 32 34  0  0  0  0  0  0  0  0999 V2000
   68.8839   80.9581   89.7732 C   0  0  0  0  0  0  0  0  0  0  0  0
   69.8602   81.8061   89.2185 C   0  0  0  0  0  0  0  0  0  0  0  0
   69.6611   83.1575   89.5015 C   0  0  0  0  0  0  0  0  0  0  0  0
   68.2740   83.2792   90.4537 S   0  0  0  0  0  0  0  0  0  0  0  0
   67.9122   81.6380   90.5134 C   0  0  0  0  0  0  0  0  0  0  0  0
   70.5220   84.2915   89.0744 C   0  0  0  0  0  0  0  0  0  0  0  0
   71.8636   84.0678   88.7144 C   0  0  0  0  0  0  0  0  0  0  0  0
   72.6772   85.1280   88.3072 C   0  0  0  0  0  0  0  0  0  0  0  0
   72.1693   86.4287   88.2536 C   0  0  0  0  0  0  0  0  0  0  0  0
   73.2249   87.7356   87.7345 Cl  0  0  0  0  0  0  0  0  0  0  0  0
   70.8344   86.6692   88.6140 C   0  0  0  0  0  0  0  0  0  0  0  0
   70.1564   88.2914   88.5658 Cl  0  0  0  0  0  0  0  0  0  0  0  0
   70.0196   85.6069   89.0230 C   0  0  0  0  0  0  0  0  0  0  0  0
   69.7803   77.4132   90.6590 N   0  0  0  0  0  0  0  0  0  0  0  0
   70.0141   78.7645   90.2429 C   0  0  0  0  0  0  0  0  0  0  0  0
   71.1538   79.2842   90.3924 O   0  0  0  0  0  0  0  0  0  0  0  0
   68.9492   79.5275   89.6630 N   0  0  0  0  0  0  0  0  0  0  0  0
   68.9751   76.9473   90.3367 H   0  0  0  0  0  0  0  0  0  0  0  0
   68.2382   79.0553   89.1724 H   0  0  0  0  0  0  0  0  0  0  0  0
   70.7005   76.7053   91.5469 C   0  0  0  0  0  0  0  0  0  0  0  0
   68.6275   74.1798   94.3758 C   0  0  0  0  0  0  0  0  0  0  0  0
   69.0485   73.6600   93.1369 C   0  0  0  0  0  0  0  0  0  0  0  0
   69.6933   74.4836   92.2095 C   0  0  0  0  0  0  0  0  0  0  0  0
   69.9272   75.8360   92.5033 C   0  0  0  0  0  0  0  0  0  0  0  0
   69.5042   76.3536   93.7365 C   0  0  0  0  0  0  0  0  0  0  0  0
   68.8553   75.5309   94.6617 C   0  0  0  0  0  0  0  0  0  0  0  0
   66.8771   73.8202   96.1238 C   0  0  0  0  0  0  0  0  0  0  0  0
   67.9889   73.3913   95.3444 O   0  0  0  0  0  0  0  0  0  0  0  0
   66.7377   81.0783   91.2028 C   0  0  0  0  0  0  0  0  0  0  0  0
   66.8165   79.9915   91.8345 O   0  0  0  0  0  0  0  0  0  0  0  0
   65.5196   81.7482   91.1392 O   0  0  0  0  0  0  0  0  0  0  0  0
   65.4537   82.5572   90.6710 H   0  0  0  0  0  0  0  0  0  0  0  0
 27 28  1  0  0  0
 28 21  1  0  0  0
 21 22  2  0  0  0
 22 23  1  0  0  0
 23 24  2  0  0  0
 24 20  1  0  0  0
 20 14  1  0  0  0
 14 15  1  0  0  0
 15 16  2  0  0  0
 15 17  1  0  0  0
 17  1  1  0  0  0
  1  2  1  0  0  0
  2  3  2  0  0  0
  3  6  1  0  0  0
  6  7  2  0  0  0
  7  8  1  0  0  0
  8  9  2  0  0  0
  9 10  1  0  0  0
  9 11  1  0  0  0
 11 12  1  0  0  0
 11 13  2  0  0  0
  3  4  1  0  0  0
  4  5  1  0  0  0
  5 29  1  0  0  0
 29 30  2  0  0  0
 29 31  1  0  0  0
 24 25  1  0  0  0
 25 26  2  0  0  0
 26 21  1  0  0  0
  5  1  2  0  0  0
 13  6  1  0  0  0
 14 18  1  0  0  0
 17 19  1  0  0  0
 31 32  1  0  0  0
M  END
> <score>
-0.461449

> <minimizedAffinity>
-7.89613

$$$$
HIPS346


 32 34  0  0  0  0  0  0  0  0999 V2000
   66.8862   80.1959   90.1443 C   0  0  0  0  0  0  0  0  0  0  0  0
   67.7140   80.9808   89.3206 C   0  0  0  0  0  0  0  0  0  0  0  0
   68.3701   82.0101   89.9960 C   0  0  0  0  0  0  0  0  0  0  0  0
   67.9200   81.9216   91.6193 S   0  0  0  0  0  0  0  0  0  0  0  0
   66.8962   80.5944   91.4842 C   0  0  0  0  0  0  0  0  0  0  0  0
   69.3187   82.9940   89.4114 C   0  0  0  0  0  0  0  0  0  0  0  0
   68.8460   84.0344   88.5907 C   0  0  0  0  0  0  0  0  0  0  0  0
   69.7311   84.9656   88.0419 C   0  0  0  0  0  0  0  0  0  0  0  0
   71.1016   84.8753   88.2995 C   0  0  0  0  0  0  0  0  0  0  0  0
   72.1827   86.0677   87.5914 Cl  0  0  0  0  0  0  0  0  0  0  0  0
   71.5895   83.8405   89.1123 C   0  0  0  0  0  0  0  0  0  0  0  0
   73.3073   83.6871   89.4579 Cl  0  0  0  0  0  0  0  0  0  0  0  0
   70.7026   82.9069   89.6613 C   0  0  0  0  0  0  0  0  0  0  0  0
   66.3322   76.6505   89.0138 N   0  0  0  0  0  0  0  0  0  0  0  0
   66.8446   77.9872   88.9484 C   0  0  0  0  0  0  0  0  0  0  0  0
   67.8799   78.2355   88.2716 O   0  0  0  0  0  0  0  0  0  0  0  0
   66.1835   79.0411   89.6589 N   0  0  0  0  0  0  0  0  0  0  0  0
   65.4163   76.5063   89.3448 H   0  0  0  0  0  0  0  0  0  0  0  0
   65.2148   78.9713   89.8198 H   0  0  0  0  0  0  0  0  0  0  0  0
   67.1274   75.4946   88.6042 C   0  0  0  0  0  0  0  0  0  0  0  0
   69.5487   74.0108   91.8621 C   0  0  0  0  0  0  0  0  0  0  0  0
   68.8306   73.1151   91.0472 C   0  0  0  0  0  0  0  0  0  0  0  0
   68.0242   73.5960   90.0114 C   0  0  0  0  0  0  0  0  0  0  0  0
   67.9220   74.9755   89.7735 C   0  0  0  0  0  0  0  0  0  0  0  0
   68.6354   75.8672   90.5882 C   0  0  0  0  0  0  0  0  0  0  0  0
   69.4379   75.3862   91.6267 C   0  0  0  0  0  0  0  0  0  0  0  0
   70.0001   72.6277   93.8948 C   0  0  0  0  0  0  0  0  0  0  0  0
   70.3811   73.5773   92.9046 O   0  0  0  0  0  0  0  0  0  0  0  0
   66.1348   80.0242   92.6081 C   0  0  0  0  0  0  0  0  0  0  0  0
   64.9050   79.7763   92.4956 O   0  0  0  0  0  0  0  0  0  0  0  0
   66.7773   79.7745   93.8170 O   0  0  0  0  0  0  0  0  0  0  0  0
   67.6919   79.9565   93.9079 H   0  0  0  0  0  0  0  0  0  0  0  0
 27 28  1  0  0  0
 28 21  1  0  0  0
 21 22  2  0  0  0
 22 23  1  0  0  0
 23 24  2  0  0  0
 24 20  1  0  0  0
 20 14  1  0  0  0
 14 15  1  0  0  0
 15 16  2  0  0  0
 15 17  1  0  0  0
 17  1  1  0  0  0
  1  2  1  0  0  0
  2  3  2  0  0  0
  3  6  1  0  0  0
  6  7  2  0  0  0
  7  8  1  0  0  0
  8  9  2  0  0  0
  9 10  1  0  0  0
  9 11  1  0  0  0
 11 12  1  0  0  0
 11 13  2  0  0  0
  3  4  1  0  0  0
  4  5  1  0  0  0
  5 29  1  0  0  0
 29 30  2  0  0  0
 29 31  1  0  0  0
 24 25  1  0  0  0
 25 26  2  0  0  0
 26 21  1  0  0  0
  5  1  2  0  0  0
 13  6  1  0  0  0
 14 18  1  0  0  0
 17 19  1  0  0  0
 31 32  1  0  0  0
M  END
> <score>
-0.461449

> <minimizedAffinity>
-7.89490

$$$$
HIPS346


 32 34  0  0  0  0  0  0  0  0999 V2000
   68.5324   77.5227   91.2644 C   0  0  0  0  0  0  0  0  0  0  0  0
   67.9379   78.6081   90.5947 C   0  0  0  0  0  0  0  0  0  0  0  0
   68.8542   79.4702   89.9920 C   0  0  0  0  0  0  0  0  0  0  0  0
   70.3986   78.8609   90.2903 S   0  0  0  0  0  0  0  0  0  0  0  0
   69.9279   77.5144   91.1808 C   0  0  0  0  0  0  0  0  0  0  0  0
   68.5407   80.6900   89.2024 C   0  0  0  0  0  0  0  0  0  0  0  0
   67.4957   80.6767   88.2605 C   0  0  0  0  0  0  0  0  0  0  0  0
   67.1922   81.8208   87.5184 C   0  0  0  0  0  0  0  0  0  0  0  0
   67.9252   82.9965   87.7004 C   0  0  0  0  0  0  0  0  0  0  0  0
   67.5111   84.4156   86.7482 Cl  0  0  0  0  0  0  0  0  0  0  0  0
   68.9738   83.0247   88.6328 C   0  0  0  0  0  0  0  0  0  0  0  0
   69.9249   84.4818   88.8896 Cl  0  0  0  0  0  0  0  0  0  0  0  0
   69.2785   81.8779   89.3755 C   0  0  0  0  0  0  0  0  0  0  0  0
   67.4750   74.0389   92.2127 N   0  0  0  0  0  0  0  0  0  0  0  0
   67.6935   75.1563   91.3424 C   0  0  0  0  0  0  0  0  0  0  0  0
   67.8315   74.9743   90.1017 O   0  0  0  0  0  0  0  0  0  0  0  0
   67.7623   76.4807   91.8842 N   0  0  0  0  0  0  0  0  0  0  0  0
   67.1450   74.2026   93.1257 H   0  0  0  0  0  0  0  0  0  0  0  0
   67.2649   76.6835   92.7092 H   0  0  0  0  0  0  0  0  0  0  0  0
   67.7270   72.6636   91.7867 C   0  0  0  0  0  0  0  0  0  0  0  0
   71.3543   71.2665   93.6759 C   0  0  0  0  0  0  0  0  0  0  0  0
   70.9406   70.7218   92.4453 C   0  0  0  0  0  0  0  0  0  0  0  0
   69.7523   71.1524   91.8479 C   0  0  0  0  0  0  0  0  0  0  0  0
   68.9601   72.1311   92.4681 C   0  0  0  0  0  0  0  0  0  0  0  0
   69.3717   72.6707   93.6957 C   0  0  0  0  0  0  0  0  0  0  0  0
   70.5575   72.2364   94.2951 C   0  0  0  0  0  0  0  0  0  0  0  0
   73.7913   70.7108   93.6416 C   0  0  0  0  0  0  0  0  0  0  0  0
   72.5443   70.8774   94.3085 O   0  0  0  0  0  0  0  0  0  0  0  0
   70.8689   76.5540   91.7810 C   0  0  0  0  0  0  0  0  0  0  0  0
   71.9437   76.9461   92.3080 O   0  0  0  0  0  0  0  0  0  0  0  0
   70.5771   75.1938   91.7481 O   0  0  0  0  0  0  0  0  0  0  0  0
   69.7795   74.8950   91.3576 H   0  0  0  0  0  0  0  0  0  0  0  0
 27 28  1  0  0  0
 28 21  1  0  0  0
 21 22  2  0  0  0
 22 23  1  0  0  0
 23 24  2  0  0  0
 24 20  1  0  0  0
 20 14  1  0  0  0
 14 15  1  0  0  0
 15 16  2  0  0  0
 15 17  1  0  0  0
 17  1  1  0  0  0
  1  2  1  0  0  0
  2  3  2  0  0  0
  3  6  1  0  0  0
  6  7  2  0  0  0
  7  8  1  0  0  0
  8  9  2  0  0  0
  9 10  1  0  0  0
  9 11  1  0  0  0
 11 12  1  0  0  0
 11 13  2  0  0  0
  3  4  1  0  0  0
  4  5  1  0  0  0
  5 29  1  0  0  0
 29 30  2  0  0  0
 29 31  1  0  0  0
 24 25  1  0  0  0
 25 26  2  0  0  0
 26 21  1  0  0  0
  5  1  2  0  0  0
 13  6  1  0  0  0
 14 18  1  0  0  0
 17 19  1  0  0  0
 31 32  1  0  0  0
M  END
> <score>
-0.461449

> <minimizedAffinity>
-7.63120

$$$$
HIPS347


 30 31  0  0  0  0  0  0  0  0999 V2000
   66.9118   74.0900   88.7244 C   0  0  0  0  0  0  0  0  0  0  0  0
   66.8150   75.4020   88.2247 C   0  0  0  0  0  0  0  0  0  0  0  0
   67.3977   76.3636   89.0510 C   0  0  0  0  0  0  0  0  0  0  0  0
   68.0406   75.5663   90.3903 S   0  0  0  0  0  0  0  0  0  0  0  0
   67.5879   74.0099   89.9463 C   0  0  0  0  0  0  0  0  0  0  0  0
   67.4688   77.8262   88.8007 C   0  0  0  0  0  0  0  0  0  0  0  0
   66.6363   78.4397   87.8456 C   0  0  0  0  0  0  0  0  0  0  0  0
   66.7105   79.8162   87.6187 C   0  0  0  0  0  0  0  0  0  0  0  0
   67.6121   80.6043   88.3391 C   0  0  0  0  0  0  0  0  0  0  0  0
   67.6745   82.3331   88.0236 Cl  0  0  0  0  0  0  0  0  0  0  0  0
   68.4455   80.0075   89.2977 C   0  0  0  0  0  0  0  0  0  0  0  0
   69.5935   80.9625   90.2267 Cl  0  0  0  0  0  0  0  0  0  0  0  0
   68.3705   78.6282   89.5254 C   0  0  0  0  0  0  0  0  0  0  0  0
   66.4518   71.4585   86.0083 N   0  0  0  0  0  0  0  0  0  0  0  0
   66.6974   72.7439   86.5957 C   0  0  0  0  0  0  0  0  0  0  0  0
   67.1102   73.6992   85.8831 O   0  0  0  0  0  0  0  0  0  0  0  0
   66.4505   72.9412   87.9950 N   0  0  0  0  0  0  0  0  0  0  0  0
   66.0824   70.7462   86.5787 H   0  0  0  0  0  0  0  0  0  0  0  0
   65.9388   72.2543   88.4804 H   0  0  0  0  0  0  0  0  0  0  0  0
   66.7232   71.1538   84.6033 C   0  0  0  0  0  0  0  0  0  0  0  0
   66.2850   69.7239   84.2564 C   0  0  0  0  0  0  0  0  0  0  0  0
   65.2081   69.6675   83.1605 C   0  0  0  0  0  0  0  0  0  0  0  0
   63.3764   70.9752   83.9763 O   0  0  0  0  0  0  0  0  0  0  0  0
   64.3293   70.8812   83.1570 C   0  0  0  0  0  0  0  0  0  0  0  0
   64.5733   71.9116   82.2546 O   0  0  0  0  0  0  0  0  0  0  0  0
   65.2816   71.8426   81.6451 H   0  0  0  0  0  0  0  0  0  0  0  0
   67.8439   72.8149   90.7684 C   0  0  0  0  0  0  0  0  0  0  0  0
   69.0202   72.4289   90.9993 O   0  0  0  0  0  0  0  0  0  0  0  0
   66.7714   72.0895   91.2781 O   0  0  0  0  0  0  0  0  0  0  0  0
   65.8935   72.3707   91.1103 H   0  0  0  0  0  0  0  0  0  0  0  0
 23 24  2  0  0  0
 24 25  1  0  0  0
 24 22  1  0  0  0
 22 21  1  0  0  0
 21 20  1  0  0  0
 20 14  1  0  0  0
 14 15  1  0  0  0
 15 16  2  0  0  0
 15 17  1  0  0  0
 17  1  1  0  0  0
  1  2  1  0  0  0
  2  3  2  0  0  0
  3  6  1  0  0  0
  6  7  2  0  0  0
  7  8  1  0  0  0
  8  9  2  0  0  0
  9 10  1  0  0  0
  9 11  1  0  0  0
 11 12  1  0  0  0
 11 13  2  0  0  0
  3  4  1  0  0  0
  4  5  1  0  0  0
  5 27  1  0  0  0
 27 28  2  0  0  0
 27 29  1  0  0  0
  5  1  2  0  0  0
 13  6  1  0  0  0
 25 26  1  0  0  0
 14 18  1  0  0  0
 17 19  1  0  0  0
 29 30  1  0  0  0
M  END
> <score>
0.284964

> <minimizedAffinity>
-7.67966

$$$$
HIPS347


 30 31  0  0  0  0  0  0  0  0999 V2000
   67.9315   73.7434   92.5826 C   0  0  0  0  0  0  0  0  0  0  0  0
   68.0539   74.5384   91.4279 C   0  0  0  0  0  0  0  0  0  0  0  0
   67.4437   75.7884   91.5377 C   0  0  0  0  0  0  0  0  0  0  0  0
   66.7694   75.8955   93.0792 S   0  0  0  0  0  0  0  0  0  0  0  0
   67.2331   74.3727   93.6183 C   0  0  0  0  0  0  0  0  0  0  0  0
   67.4053   76.8534   90.5026 C   0  0  0  0  0  0  0  0  0  0  0  0
   67.2843   78.2092   90.8614 C   0  0  0  0  0  0  0  0  0  0  0  0
   67.2501   79.2030   89.8800 C   0  0  0  0  0  0  0  0  0  0  0  0
   67.3377   78.8643   88.5271 C   0  0  0  0  0  0  0  0  0  0  0  0
   67.2910   80.1450   87.3229 Cl  0  0  0  0  0  0  0  0  0  0  0  0
   67.4631   77.5171   88.1542 C   0  0  0  0  0  0  0  0  0  0  0  0
   67.5770   77.0475   86.4632 Cl  0  0  0  0  0  0  0  0  0  0  0  0
   67.4979   76.5215   89.1378 C   0  0  0  0  0  0  0  0  0  0  0  0
   70.1813   70.9004   93.7527 N   0  0  0  0  0  0  0  0  0  0  0  0
   69.7756   72.2388   93.4339 C   0  0  0  0  0  0  0  0  0  0  0  0
   70.4968   73.2178   93.7693 O   0  0  0  0  0  0  0  0  0  0  0  0
   68.5546   72.4552   92.7127 N   0  0  0  0  0  0  0  0  0  0  0  0
   69.6238   70.1540   93.4343 H   0  0  0  0  0  0  0  0  0  0  0  0
   68.1213   71.6815   92.2851 H   0  0  0  0  0  0  0  0  0  0  0  0
   71.3828   70.5897   94.5277 C   0  0  0  0  0  0  0  0  0  0  0  0
   71.9396   69.2100   94.1490 C   0  0  0  0  0  0  0  0  0  0  0  0
   73.4701   69.1915   94.0036 C   0  0  0  0  0  0  0  0  0  0  0  0
   74.5879   71.1711   94.7537 O   0  0  0  0  0  0  0  0  0  0  0  0
   74.0429   70.5604   93.7955 C   0  0  0  0  0  0  0  0  0  0  0  0
   73.9831   71.1536   92.5385 O   0  0  0  0  0  0  0  0  0  0  0  0
   73.5781   70.7004   91.8253 H   0  0  0  0  0  0  0  0  0  0  0  0
   66.8901   73.8323   94.9448 C   0  0  0  0  0  0  0  0  0  0  0  0
   67.7904   73.4774   95.7508 O   0  0  0  0  0  0  0  0  0  0  0  0
   65.5532   73.6906   95.3038 O   0  0  0  0  0  0  0  0  0  0  0  0
   64.8781   73.9525   94.7092 H   0  0  0  0  0  0  0  0  0  0  0  0
 23 24  2  0  0  0
 24 25  1  0  0  0
 24 22  1  0  0  0
 22 21  1  0  0  0
 21 20  1  0  0  0
 20 14  1  0  0  0
 14 15  1  0  0  0
 15 16  2  0  0  0
 15 17  1  0  0  0
 17  1  1  0  0  0
  1  2  1  0  0  0
  2  3  2  0  0  0
  3  6  1  0  0  0
  6  7  2  0  0  0
  7  8  1  0  0  0
  8  9  2  0  0  0
  9 10  1  0  0  0
  9 11  1  0  0  0
 11 12  1  0  0  0
 11 13  2  0  0  0
  3  4  1  0  0  0
  4  5  1  0  0  0
  5 27  1  0  0  0
 27 28  2  0  0  0
 27 29  1  0  0  0
  5  1  2  0  0  0
 13  6  1  0  0  0
 25 26  1  0  0  0
 14 18  1  0  0  0
 17 19  1  0  0  0
 29 30  1  0  0  0
M  END
> <score>
0.284964

> <minimizedAffinity>
-7.40312

$$$$
HIPS347


 30 31  0  0  0  0  0  0  0  0999 V2000
   68.8683   77.8295   90.9910 C   0  0  0  0  0  0  0  0  0  0  0  0
   68.3703   79.0021   90.3932 C   0  0  0  0  0  0  0  0  0  0  0  0
   69.3649   79.8845   89.9701 C   0  0  0  0  0  0  0  0  0  0  0  0
   70.8563   79.1873   90.3330 S   0  0  0  0  0  0  0  0  0  0  0  0
   70.2655   77.7760   91.0284 C   0  0  0  0  0  0  0  0  0  0  0  0
   69.1647   81.1946   89.2986 C   0  0  0  0  0  0  0  0  0  0  0  0
   67.9764   81.4765   88.5987 C   0  0  0  0  0  0  0  0  0  0  0  0
   67.7980   82.7122   87.9715 C   0  0  0  0  0  0  0  0  0  0  0  0
   68.7973   83.6871   88.0323 C   0  0  0  0  0  0  0  0  0  0  0  0
   68.5336   85.2293   87.2296 Cl  0  0  0  0  0  0  0  0  0  0  0  0
   69.9858   83.4220   88.7301 C   0  0  0  0  0  0  0  0  0  0  0  0
   71.2683   84.6211   88.8318 Cl  0  0  0  0  0  0  0  0  0  0  0  0
   70.1641   82.1840   89.3590 C   0  0  0  0  0  0  0  0  0  0  0  0
   66.4946   75.6835   93.0582 N   0  0  0  0  0  0  0  0  0  0  0  0
   67.5491   76.6124   92.7707 C   0  0  0  0  0  0  0  0  0  0  0  0
   68.0713   77.2875   93.6995 O   0  0  0  0  0  0  0  0  0  0  0  0
   68.0202   76.7531   91.4231 N   0  0  0  0  0  0  0  0  0  0  0  0
   66.1410   75.1342   92.3216 H   0  0  0  0  0  0  0  0  0  0  0  0
   67.7486   76.0776   90.7604 H   0  0  0  0  0  0  0  0  0  0  0  0
   65.9184   75.5120   94.3921 C   0  0  0  0  0  0  0  0  0  0  0  0
   66.1460   74.0846   94.9097 C   0  0  0  0  0  0  0  0  0  0  0  0
   67.3638   73.9628   95.8404 C   0  0  0  0  0  0  0  0  0  0  0  0
   68.9300   72.7840   94.4662 O   0  0  0  0  0  0  0  0  0  0  0  0
   68.6530   73.8459   95.0856 C   0  0  0  0  0  0  0  0  0  0  0  0
   69.5409   74.9167   95.0593 O   0  0  0  0  0  0  0  0  0  0  0  0
   69.3358   75.7067   95.5196 H   0  0  0  0  0  0  0  0  0  0  0  0
   71.1210   76.7247   91.6048 C   0  0  0  0  0  0  0  0  0  0  0  0
   72.3269   76.6109   91.2596 O   0  0  0  0  0  0  0  0  0  0  0  0
   70.5841   75.8310   92.5263 O   0  0  0  0  0  0  0  0  0  0  0  0
   69.6878   75.9096   92.7878 H   0  0  0  0  0  0  0  0  0  0  0  0
 23 24  2  0  0  0
 24 25  1  0  0  0
 24 22  1  0  0  0
 22 21  1  0  0  0
 21 20  1  0  0  0
 20 14  1  0  0  0
 14 15  1  0  0  0
 15 16  2  0  0  0
 15 17  1  0  0  0
 17  1  1  0  0  0
  1  2  1  0  0  0
  2  3  2  0  0  0
  3  6  1  0  0  0
  6  7  2  0  0  0
  7  8  1  0  0  0
  8  9  2  0  0  0
  9 10  1  0  0  0
  9 11  1  0  0  0
 11 12  1  0  0  0
 11 13  2  0  0  0
  3  4  1  0  0  0
  4  5  1  0  0  0
  5 27  1  0  0  0
 27 28  2  0  0  0
 27 29  1  0  0  0
  5  1  2  0  0  0
 13  6  1  0  0  0
 25 26  1  0  0  0
 14 18  1  0  0  0
 17 19  1  0  0  0
 29 30  1  0  0  0
M  END
> <score>
0.284964

> <minimizedAffinity>
-7.07590

$$$$
HIPS352


 27 28  0  0  0  0  0  0  0  0999 V2000
   68.4961   79.2043   90.3766 C   0  0  0  0  0  0  0  0  0  0  0  0
   69.6299   79.8311   89.8274 C   0  0  0  0  0  0  0  0  0  0  0  0
   69.6694   81.2106   90.0398 C   0  0  0  0  0  0  0  0  0  0  0  0
   68.2842   81.6329   90.9044 S   0  0  0  0  0  0  0  0  0  0  0  0
   67.6254   80.0904   91.0169 C   0  0  0  0  0  0  0  0  0  0  0  0
   68.6733   75.4002   90.6149 N   0  0  0  0  0  0  0  0  0  0  0  0
   68.8896   76.7768   90.9559 C   0  0  0  0  0  0  0  0  0  0  0  0
   69.6353   77.0791   91.9274 O   0  0  0  0  0  0  0  0  0  0  0  0
   68.2222   77.8046   90.2100 N   0  0  0  0  0  0  0  0  0  0  0  0
   68.1341   75.1930   89.8177 H   0  0  0  0  0  0  0  0  0  0  0  0
   67.5419   77.5367   89.5507 H   0  0  0  0  0  0  0  0  0  0  0  0
   69.2170   74.2903   91.3975 C   0  0  0  0  0  0  0  0  0  0  0  0
   68.5246   72.9734   91.0305 C   0  0  0  0  0  0  0  0  0  0  0  0
   67.3490   72.6587   91.9660 C   0  0  0  0  0  0  0  0  0  0  0  0
   67.6114   73.1935   93.3785 C   0  0  0  0  0  0  0  0  0  0  0  0
   66.3970   73.9282   95.4650 C   0  0  0  0  0  0  0  0  0  0  0  0
   66.3694   73.8951   93.9397 C   0  0  0  0  0  0  0  0  0  0  0  0
   70.7239   82.1556   89.5867 C   0  0  0  0  0  0  0  0  0  0  0  0
   71.9792   82.1783   90.2265 C   0  0  0  0  0  0  0  0  0  0  0  0
   72.9765   83.0634   89.8063 C   0  0  0  0  0  0  0  0  0  0  0  0
   72.7362   83.9379   88.7456 C   0  0  0  0  0  0  0  0  0  0  0  0
   71.4972   83.9298   88.1033 C   0  0  0  0  0  0  0  0  0  0  0  0
   70.4955   83.0467   88.5184 C   0  0  0  0  0  0  0  0  0  0  0  0
   66.3778   79.7739   91.7330 C   0  0  0  0  0  0  0  0  0  0  0  0
   65.3717   80.5198   91.5940 O   0  0  0  0  0  0  0  0  0  0  0  0
   66.3026   78.6751   92.5827 O   0  0  0  0  0  0  0  0  0  0  0  0
   67.0462   78.1154   92.6917 H   0  0  0  0  0  0  0  0  0  0  0  0
 16 17  1  0  0  0
 17 15  1  0  0  0
 15 14  1  0  0  0
 14 13  1  0  0  0
 13 12  1  0  0  0
 12  6  1  0  0  0
  6  7  1  0  0  0
  7  8  2  0  0  0
  7  9  1  0  0  0
  9  1  1  0  0  0
  1  2  1  0  0  0
  2  3  2  0  0  0
  3 18  1  0  0  0
 18 19  2  0  0  0
 19 20  1  0  0  0
 20 21  2  0  0  0
 21 22  1  0  0  0
 22 23  2  0  0  0
  3  4  1  0  0  0
  4  5  1  0  0  0
  5 24  1  0  0  0
 24 25  2  0  0  0
 24 26  1  0  0  0
  5  1  2  0  0  0
 23 18  1  0  0  0
  6 10  1  0  0  0
  9 11  1  0  0  0
 26 27  1  0  0  0
M  END
> <score>
0.247927

> <minimizedAffinity>
-6.64919

$$$$
HIPS352


 27 28  0  0  0  0  0  0  0  0999 V2000
   68.0998   79.6876   90.4456 C   0  0  0  0  0  0  0  0  0  0  0  0
   69.3430   80.1516   89.9775 C   0  0  0  0  0  0  0  0  0  0  0  0
   69.4923   81.5378   90.0544 C   0  0  0  0  0  0  0  0  0  0  0  0
   68.0672   82.1688   90.6990 S   0  0  0  0  0  0  0  0  0  0  0  0
   67.2535   80.7095   90.8844 C   0  0  0  0  0  0  0  0  0  0  0  0
   67.6033   76.0007   91.2935 N   0  0  0  0  0  0  0  0  0  0  0  0
   67.8664   77.3976   91.4870 C   0  0  0  0  0  0  0  0  0  0  0  0
   68.1985   77.8279   92.6252 O   0  0  0  0  0  0  0  0  0  0  0  0
   67.7116   78.3063   90.3877 N   0  0  0  0  0  0  0  0  0  0  0  0
   67.4026   75.6821   90.3839 H   0  0  0  0  0  0  0  0  0  0  0  0
   67.3193   77.9658   89.5514 H   0  0  0  0  0  0  0  0  0  0  0  0
   67.6194   75.0278   92.3859 C   0  0  0  0  0  0  0  0  0  0  0  0
   67.8231   73.6073   91.8483 C   0  0  0  0  0  0  0  0  0  0  0  0
   68.2861   73.6046   90.3848 C   0  0  0  0  0  0  0  0  0  0  0  0
   67.4104   72.6791   89.5324 C   0  0  0  0  0  0  0  0  0  0  0  0
   66.4718   72.5408   87.1939 C   0  0  0  0  0  0  0  0  0  0  0  0
   66.7476   73.4520   88.3864 C   0  0  0  0  0  0  0  0  0  0  0  0
   70.6773   82.3343   89.6398 C   0  0  0  0  0  0  0  0  0  0  0  0
   71.9102   82.1695   90.3020 C   0  0  0  0  0  0  0  0  0  0  0  0
   73.0295   82.9140   89.9181 C   0  0  0  0  0  0  0  0  0  0  0  0
   72.9352   83.8328   88.8719 C   0  0  0  0  0  0  0  0  0  0  0  0
   71.7204   84.0098   88.2079 C   0  0  0  0  0  0  0  0  0  0  0  0
   70.5972   83.2679   88.5867 C   0  0  0  0  0  0  0  0  0  0  0  0
   65.9092   80.5809   91.4727 C   0  0  0  0  0  0  0  0  0  0  0  0
   64.9587   81.2697   91.0145 O   0  0  0  0  0  0  0  0  0  0  0  0
   65.6797   79.7268   92.5464 O   0  0  0  0  0  0  0  0  0  0  0  0
   66.3810   79.2112   92.8932 H   0  0  0  0  0  0  0  0  0  0  0  0
 16 17  1  0  0  0
 17 15  1  0  0  0
 15 14  1  0  0  0
 14 13  1  0  0  0
 13 12  1  0  0  0
 12  6  1  0  0  0
  6  7  1  0  0  0
  7  8  2  0  0  0
  7  9  1  0  0  0
  9  1  1  0  0  0
  1  2  1  0  0  0
  2  3  2  0  0  0
  3 18  1  0  0  0
 18 19  2  0  0  0
 19 20  1  0  0  0
 20 21  2  0  0  0
 21 22  1  0  0  0
 22 23  2  0  0  0
  3  4  1  0  0  0
  4  5  1  0  0  0
  5 24  1  0  0  0
 24 25  2  0  0  0
 24 26  1  0  0  0
  5  1  2  0  0  0
 23 18  1  0  0  0
  6 10  1  0  0  0
  9 11  1  0  0  0
 26 27  1  0  0  0
M  END
> <score>
0.247927

> <minimizedAffinity>
-6.60587

$$$$
HIPS352


 27 28  0  0  0  0  0  0  0  0999 V2000
   68.3217   79.5956   90.5683 C   0  0  0  0  0  0  0  0  0  0  0  0
   69.5466   80.1007   90.0945 C   0  0  0  0  0  0  0  0  0  0  0  0
   69.5912   81.4944   90.0223 C   0  0  0  0  0  0  0  0  0  0  0  0
   68.0979   82.0797   90.5436 S   0  0  0  0  0  0  0  0  0  0  0  0
   67.3853   80.5908   90.8617 C   0  0  0  0  0  0  0  0  0  0  0  0
   67.2945   76.0256   89.6970 N   0  0  0  0  0  0  0  0  0  0  0  0
   67.7219   77.3820   89.5084 C   0  0  0  0  0  0  0  0  0  0  0  0
   67.8519   77.8490   88.3439 O   0  0  0  0  0  0  0  0  0  0  0  0
   68.0378   78.1904   90.6507 N   0  0  0  0  0  0  0  0  0  0  0  0
   67.1453   75.7036   90.6153 H   0  0  0  0  0  0  0  0  0  0  0  0
   68.0611   77.7600   91.5359 H   0  0  0  0  0  0  0  0  0  0  0  0
   67.0701   75.0990   88.5875 C   0  0  0  0  0  0  0  0  0  0  0  0
   67.1871   73.6454   89.0585 C   0  0  0  0  0  0  0  0  0  0  0  0
   67.5773   73.5481   90.5400 C   0  0  0  0  0  0  0  0  0  0  0  0
   68.8004   72.6434   90.7285 C   0  0  0  0  0  0  0  0  0  0  0  0
   69.8038   74.6760   91.8375 C   0  0  0  0  0  0  0  0  0  0  0  0
   69.6915   73.1546   91.8663 C   0  0  0  0  0  0  0  0  0  0  0  0
   70.7317   82.3302   89.5628 C   0  0  0  0  0  0  0  0  0  0  0  0
   71.9798   82.2463   90.2116 C   0  0  0  0  0  0  0  0  0  0  0  0
   73.0575   83.0284   89.7856 C   0  0  0  0  0  0  0  0  0  0  0  0
   72.9060   83.9046   88.7101 C   0  0  0  0  0  0  0  0  0  0  0  0
   71.6754   84.0015   88.0588 C   0  0  0  0  0  0  0  0  0  0  0  0
   70.5936   83.2218   88.4797 C   0  0  0  0  0  0  0  0  0  0  0  0
   66.0301   80.4234   91.4142 C   0  0  0  0  0  0  0  0  0  0  0  0
   65.0798   81.1125   90.9561 O   0  0  0  0  0  0  0  0  0  0  0  0
   65.7895   79.5317   92.4544 O   0  0  0  0  0  0  0  0  0  0  0  0
   66.4906   79.0156   92.8007 H   0  0  0  0  0  0  0  0  0  0  0  0
 16 17  1  0  0  0
 17 15  1  0  0  0
 15 14  1  0  0  0
 14 13  1  0  0  0
 13 12  1  0  0  0
 12  6  1  0  0  0
  6  7  1  0  0  0
  7  8  2  0  0  0
  7  9  1  0  0  0
  9  1  1  0  0  0
  1  2  1  0  0  0
  2  3  2  0  0  0
  3 18  1  0  0  0
 18 19  2  0  0  0
 19 20  1  0  0  0
 20 21  2  0  0  0
 21 22  1  0  0  0
 22 23  2  0  0  0
  3  4  1  0  0  0
  4  5  1  0  0  0
  5 24  1  0  0  0
 24 25  2  0  0  0
 24 26  1  0  0  0
  5  1  2  0  0  0
 23 18  1  0  0  0
  6 10  1  0  0  0
  9 11  1  0  0  0
 26 27  1  0  0  0
M  END
> <score>
0.247927

> <minimizedAffinity>
-6.60261

$$$$
HIPS356


 28 29  0  0  0  0  0  0  0  0999 V2000
   68.3462   77.9520   91.1590 C   0  0  0  0  0  0  0  0  0  0  0  0
   68.3697   79.2889   90.7354 C   0  0  0  0  0  0  0  0  0  0  0  0
   69.6191   79.7094   90.2755 C   0  0  0  0  0  0  0  0  0  0  0  0
   70.6731   78.3962   90.3861 S   0  0  0  0  0  0  0  0  0  0  0  0
   69.5709   77.2924   91.0112 C   0  0  0  0  0  0  0  0  0  0  0  0
   69.9765   81.0624   89.7759 C   0  0  0  0  0  0  0  0  0  0  0  0
   69.0035   81.8696   89.1550 C   0  0  0  0  0  0  0  0  0  0  0  0
   69.3324   83.1432   88.6824 C   0  0  0  0  0  0  0  0  0  0  0  0
   70.6326   83.6300   88.8239 C   0  0  0  0  0  0  0  0  0  0  0  0
   71.6087   82.8438   89.4410 C   0  0  0  0  0  0  0  0  0  0  0  0
   73.2411   83.4598   89.6247 Cl  0  0  0  0  0  0  0  0  0  0  0  0
   71.2847   81.5675   89.9156 C   0  0  0  0  0  0  0  0  0  0  0  0
   65.8560   76.3114   93.5295 N   0  0  0  0  0  0  0  0  0  0  0  0
   67.0764   76.8953   93.0524 C   0  0  0  0  0  0  0  0  0  0  0  0
   68.0645   77.0246   93.8264 O   0  0  0  0  0  0  0  0  0  0  0  0
   67.1598   77.3542   91.6963 N   0  0  0  0  0  0  0  0  0  0  0  0
   65.1089   76.2056   92.8971 H   0  0  0  0  0  0  0  0  0  0  0  0
   66.3730   77.2549   91.1130 H   0  0  0  0  0  0  0  0  0  0  0  0
   65.6678   75.8654   94.9106 C   0  0  0  0  0  0  0  0  0  0  0  0
   65.6995   74.3329   94.9962 C   0  0  0  0  0  0  0  0  0  0  0  0
   66.7926   73.7964   95.9462 C   0  0  0  0  0  0  0  0  0  0  0  0
   68.2170   73.9062   95.3766 C   0  0  0  0  0  0  0  0  0  0  0  0
   69.6990   72.7542   93.6888 C   0  0  0  0  0  0  0  0  0  0  0  0
   68.3291   73.3775   93.9407 C   0  0  0  0  0  0  0  0  0  0  0  0
   69.8713   75.8696   91.2399 C   0  0  0  0  0  0  0  0  0  0  0  0
   70.8832   75.5237   91.9055 O   0  0  0  0  0  0  0  0  0  0  0  0
   69.0106   74.8962   90.7423 O   0  0  0  0  0  0  0  0  0  0  0  0
   68.2561   75.1471   90.2464 H   0  0  0  0  0  0  0  0  0  0  0  0
 23 24  1  0  0  0
 24 22  1  0  0  0
 22 21  1  0  0  0
 21 20  1  0  0  0
 20 19  1  0  0  0
 19 13  1  0  0  0
 13 14  1  0  0  0
 14 15  2  0  0  0
 14 16  1  0  0  0
 16  1  1  0  0  0
  1  2  1  0  0  0
  2  3  2  0  0  0
  3  6  1  0  0  0
  6  7  2  0  0  0
  7  8  1  0  0  0
  8  9  2  0  0  0
  9 10  1  0  0  0
 10 11  1  0  0  0
 10 12  2  0  0  0
  3  4  1  0  0  0
  4  5  1  0  0  0
  5 25  1  0  0  0
 25 26  2  0  0  0
 25 27  1  0  0  0
  5  1  2  0  0  0
 12  6  1  0  0  0
 13 17  1  0  0  0
 16 18  1  0  0  0
 27 28  1  0  0  0
M  END
> <score>
-0.014699

> <minimizedAffinity>
-6.81636

$$$$
HIPS356


 28 29  0  0  0  0  0  0  0  0999 V2000
   68.5409   79.8576   90.0898 C   0  0  0  0  0  0  0  0  0  0  0  0
   68.8578   78.5205   89.8089 C   0  0  0  0  0  0  0  0  0  0  0  0
   68.2807   77.6094   90.6956 C   0  0  0  0  0  0  0  0  0  0  0  0
   67.3649   78.4881   91.8076 S   0  0  0  0  0  0  0  0  0  0  0  0
   67.6857   80.0159   91.1854 C   0  0  0  0  0  0  0  0  0  0  0  0
   68.4331   76.1314   90.6804 C   0  0  0  0  0  0  0  0  0  0  0  0
   69.3551   75.5041   91.5408 C   0  0  0  0  0  0  0  0  0  0  0  0
   69.5040   74.1143   91.5319 C   0  0  0  0  0  0  0  0  0  0  0  0
   68.7358   73.3318   90.6687 C   0  0  0  0  0  0  0  0  0  0  0  0
   67.8138   73.9378   89.8118 C   0  0  0  0  0  0  0  0  0  0  0  0
   66.8434   72.9523   88.7324 Cl  0  0  0  0  0  0  0  0  0  0  0  0
   67.6611   75.3292   89.8164 C   0  0  0  0  0  0  0  0  0  0  0  0
   70.7283   82.7257   88.8648 N   0  0  0  0  0  0  0  0  0  0  0  0
   70.2466   81.6601   89.6957 C   0  0  0  0  0  0  0  0  0  0  0  0
   70.8651   81.3465   90.7498 O   0  0  0  0  0  0  0  0  0  0  0  0
   69.0708   80.9360   89.3089 N   0  0  0  0  0  0  0  0  0  0  0  0
   70.2138   82.9605   88.0590 H   0  0  0  0  0  0  0  0  0  0  0  0
   68.6106   81.1891   88.4762 H   0  0  0  0  0  0  0  0  0  0  0  0
   71.9476   83.4806   89.1569 C   0  0  0  0  0  0  0  0  0  0  0  0
   72.4117   84.2635   87.9206 C   0  0  0  0  0  0  0  0  0  0  0  0
   71.5766   85.5349   87.6534 C   0  0  0  0  0  0  0  0  0  0  0  0
   70.4602   85.3360   86.6144 C   0  0  0  0  0  0  0  0  0  0  0  0
   68.1356   84.3649   86.7720 C   0  0  0  0  0  0  0  0  0  0  0  0
   69.0550   85.5022   87.2076 C   0  0  0  0  0  0  0  0  0  0  0  0
   67.0617   81.2536   91.6811 C   0  0  0  0  0  0  0  0  0  0  0  0
   67.1243   81.5630   92.9005 O   0  0  0  0  0  0  0  0  0  0  0  0
   66.4228   82.1076   90.7875 O   0  0  0  0  0  0  0  0  0  0  0  0
   66.3729   81.8831   89.8791 H   0  0  0  0  0  0  0  0  0  0  0  0
 23 24  1  0  0  0
 24 22  1  0  0  0
 22 21  1  0  0  0
 21 20  1  0  0  0
 20 19  1  0  0  0
 19 13  1  0  0  0
 13 14  1  0  0  0
 14 15  2  0  0  0
 14 16  1  0  0  0
 16  1  1  0  0  0
  1  2  1  0  0  0
  2  3  2  0  0  0
  3  6  1  0  0  0
  6  7  2  0  0  0
  7  8  1  0  0  0
  8  9  2  0  0  0
  9 10  1  0  0  0
 10 11  1  0  0  0
 10 12  2  0  0  0
  3  4  1  0  0  0
  4  5  1  0  0  0
  5 25  1  0  0  0
 25 26  2  0  0  0
 25 27  1  0  0  0
  5  1  2  0  0  0
 12  6  1  0  0  0
 13 17  1  0  0  0
 16 18  1  0  0  0
 27 28  1  0  0  0
M  END
> <score>
-0.014699

> <minimizedAffinity>
-6.80801

$$$$
HIPS356


 28 29  0  0  0  0  0  0  0  0999 V2000
   68.4075   79.7512   90.2460 C   0  0  0  0  0  0  0  0  0  0  0  0
   68.7502   78.4300   89.9235 C   0  0  0  0  0  0  0  0  0  0  0  0
   68.1320   77.4765   90.7349 C   0  0  0  0  0  0  0  0  0  0  0  0
   67.1488   78.2990   91.8323 S   0  0  0  0  0  0  0  0  0  0  0  0
   67.4914   79.8551   91.2981 C   0  0  0  0  0  0  0  0  0  0  0  0
   68.2969   76.0016   90.6619 C   0  0  0  0  0  0  0  0  0  0  0  0
   69.2135   75.3472   91.5077 C   0  0  0  0  0  0  0  0  0  0  0  0
   69.3740   73.9601   91.4446 C   0  0  0  0  0  0  0  0  0  0  0  0
   68.6229   73.2072   90.5410 C   0  0  0  0  0  0  0  0  0  0  0  0
   67.7064   73.8402   89.6978 C   0  0  0  0  0  0  0  0  0  0  0  0
   66.7575   72.8917   88.5674 Cl  0  0  0  0  0  0  0  0  0  0  0  0
   67.5421   75.2290   89.7567 C   0  0  0  0  0  0  0  0  0  0  0  0
   68.8544   82.7263   87.9092 N   0  0  0  0  0  0  0  0  0  0  0  0
   68.2323   81.6157   88.5706 C   0  0  0  0  0  0  0  0  0  0  0  0
   67.0351   81.3116   88.3132 O   0  0  0  0  0  0  0  0  0  0  0  0
   68.9713   80.8668   89.5451 N   0  0  0  0  0  0  0  0  0  0  0  0
   69.7957   82.9273   88.1162 H   0  0  0  0  0  0  0  0  0  0  0  0
   69.9001   81.1287   89.7398 H   0  0  0  0  0  0  0  0  0  0  0  0
   68.1576   83.5751   86.9418 C   0  0  0  0  0  0  0  0  0  0  0  0
   68.9759   84.8379   86.6377 C   0  0  0  0  0  0  0  0  0  0  0  0
   70.4992   84.5856   86.6041 C   0  0  0  0  0  0  0  0  0  0  0  0
   71.2897   85.4308   87.6171 C   0  0  0  0  0  0  0  0  0  0  0  0
   72.1586   83.6207   89.1470 C   0  0  0  0  0  0  0  0  0  0  0  0
   72.5364   84.7131   88.1508 C   0  0  0  0  0  0  0  0  0  0  0  0
   66.8310   81.0657   91.8132 C   0  0  0  0  0  0  0  0  0  0  0  0
   67.2262   81.6120   92.8771 O   0  0  0  0  0  0  0  0  0  0  0  0
   65.7785   81.6314   91.1002 O   0  0  0  0  0  0  0  0  0  0  0  0
   65.4799   81.2297   90.3081 H   0  0  0  0  0  0  0  0  0  0  0  0
 23 24  1  0  0  0
 24 22  1  0  0  0
 22 21  1  0  0  0
 21 20  1  0  0  0
 20 19  1  0  0  0
 19 13  1  0  0  0
 13 14  1  0  0  0
 14 15  2  0  0  0
 14 16  1  0  0  0
 16  1  1  0  0  0
  1  2  1  0  0  0
  2  3  2  0  0  0
  3  6  1  0  0  0
  6  7  2  0  0  0
  7  8  1  0  0  0
  8  9  2  0  0  0
  9 10  1  0  0  0
 10 11  1  0  0  0
 10 12  2  0  0  0
  3  4  1  0  0  0
  4  5  1  0  0  0
  5 25  1  0  0  0
 25 26  2  0  0  0
 25 27  1  0  0  0
  5  1  2  0  0  0
 12  6  1  0  0  0
 13 17  1  0  0  0
 16 18  1  0  0  0
 27 28  1  0  0  0
M  END
> <score>
-0.014699

> <minimizedAffinity>
-6.74009

$$$$
HIPS363


 24 25  0  0  0  0  0  0  0  0999 V2000
   69.4711   74.1032   91.7509 C   0  0  0  0  0  0  0  0  0  0  0  0
   70.0465   75.3807   91.6845 C   0  0  0  0  0  0  0  0  0  0  0  0
   69.3246   76.2812   90.8989 C   0  0  0  0  0  0  0  0  0  0  0  0
   67.9605   75.4742   90.3195 S   0  0  0  0  0  0  0  0  0  0  0  0
   68.2702   73.9886   91.0435 C   0  0  0  0  0  0  0  0  0  0  0  0
   69.6717   77.6990   90.6198 C   0  0  0  0  0  0  0  0  0  0  0  0
   71.0134   78.1091   90.5052 C   0  0  0  0  0  0  0  0  0  0  0  0
   71.3279   79.4447   90.2414 C   0  0  0  0  0  0  0  0  0  0  0  0
   70.3135   80.3928   90.0857 C   0  0  0  0  0  0  0  0  0  0  0  0
   70.7512   82.0634   89.7544 Cl  0  0  0  0  0  0  0  0  0  0  0  0
   68.9709   79.9985   90.1937 C   0  0  0  0  0  0  0  0  0  0  0  0
   67.6633   81.1593   90.0044 Cl  0  0  0  0  0  0  0  0  0  0  0  0
   68.6561   78.6602   90.4575 C   0  0  0  0  0  0  0  0  0  0  0  0
   70.3212   71.6058   94.4929 N   0  0  0  0  0  0  0  0  0  0  0  0
   69.6752   72.6801   93.8120 C   0  0  0  0  0  0  0  0  0  0  0  0
   68.7333   73.2979   94.3783 O   0  0  0  0  0  0  0  0  0  0  0  0
   70.0870   73.0383   92.4859 N   0  0  0  0  0  0  0  0  0  0  0  0
   70.0389   71.3594   95.4033 H   0  0  0  0  0  0  0  0  0  0  0  0
   71.0493   71.1107   94.0524 H   0  0  0  0  0  0  0  0  0  0  0  0
   70.8201   72.5338   92.0648 H   0  0  0  0  0  0  0  0  0  0  0  0
   67.3476   72.8420   91.0055 C   0  0  0  0  0  0  0  0  0  0  0  0
   66.8311   72.4911   89.9112 O   0  0  0  0  0  0  0  0  0  0  0  0
   67.0121   72.1617   92.1717 O   0  0  0  0  0  0  0  0  0  0  0  0
   67.3924   72.4172   92.9890 H   0  0  0  0  0  0  0  0  0  0  0  0
 14 15  1  0  0  0
 15 16  2  0  0  0
 15 17  1  0  0  0
 17  1  1  0  0  0
  1  2  1  0  0  0
  2  3  2  0  0  0
  3  6  1  0  0  0
  6  7  2  0  0  0
  7  8  1  0  0  0
  8  9  2  0  0  0
  9 10  1  0  0  0
  9 11  1  0  0  0
 11 12  1  0  0  0
 11 13  2  0  0  0
  3  4  1  0  0  0
  4  5  1  0  0  0
  5 21  1  0  0  0
 21 22  2  0  0  0
 21 23  1  0  0  0
  5  1  2  0  0  0
 13  6  1  0  0  0
 14 18  1  0  0  0
 14 19  1  0  0  0
 17 20  1  0  0  0
 23 24  1  0  0  0
M  END
> <score>
0.089678

> <minimizedAffinity>
-6.80783

$$$$
HIPS363


 24 25  0  0  0  0  0  0  0  0999 V2000
   69.6638   73.1859   93.0534 C   0  0  0  0  0  0  0  0  0  0  0  0
   69.5457   73.6642   91.7400 C   0  0  0  0  0  0  0  0  0  0  0  0
   68.3688   74.3779   91.5065 C   0  0  0  0  0  0  0  0  0  0  0  0
   67.5036   74.4245   92.9546 S   0  0  0  0  0  0  0  0  0  0  0  0
   68.5953   73.5436   93.8816 C   0  0  0  0  0  0  0  0  0  0  0  0
   67.9420   75.0000   90.2261 C   0  0  0  0  0  0  0  0  0  0  0  0
   67.3176   74.2376   89.2209 C   0  0  0  0  0  0  0  0  0  0  0  0
   66.9194   74.8335   88.0214 C   0  0  0  0  0  0  0  0  0  0  0  0
   67.1344   76.1968   87.8034 C   0  0  0  0  0  0  0  0  0  0  0  0
   66.6184   76.9085   86.2804 Cl  0  0  0  0  0  0  0  0  0  0  0  0
   67.7526   76.9708   88.7975 C   0  0  0  0  0  0  0  0  0  0  0  0
   68.0417   78.6898   88.5642 Cl  0  0  0  0  0  0  0  0  0  0  0  0
   68.1509   76.3736   89.9995 C   0  0  0  0  0  0  0  0  0  0  0  0
   71.9146   70.2473   93.9346 N   0  0  0  0  0  0  0  0  0  0  0  0
   70.7593   70.9722   93.5167 C   0  0  0  0  0  0  0  0  0  0  0  0
   69.7212   70.3437   93.1746 O   0  0  0  0  0  0  0  0  0  0  0  0
   70.7906   72.4051   93.4709 N   0  0  0  0  0  0  0  0  0  0  0  0
   71.8937   69.2635   93.9662 H   0  0  0  0  0  0  0  0  0  0  0  0
   72.7329   70.7307   94.1914 H   0  0  0  0  0  0  0  0  0  0  0  0
   71.6170   72.8698   93.7362 H   0  0  0  0  0  0  0  0  0  0  0  0
   68.4587   73.3211   95.3305 C   0  0  0  0  0  0  0  0  0  0  0  0
   69.4533   72.9340   96.0000 O   0  0  0  0  0  0  0  0  0  0  0  0
   67.2333   73.5006   95.9639 O   0  0  0  0  0  0  0  0  0  0  0  0
   66.4894   73.7883   95.4722 H   0  0  0  0  0  0  0  0  0  0  0  0
 14 15  1  0  0  0
 15 16  2  0  0  0
 15 17  1  0  0  0
 17  1  1  0  0  0
  1  2  1  0  0  0
  2  3  2  0  0  0
  3  6  1  0  0  0
  6  7  2  0  0  0
  7  8  1  0  0  0
  8  9  2  0  0  0
  9 10  1  0  0  0
  9 11  1  0  0  0
 11 12  1  0  0  0
 11 13  2  0  0  0
  3  4  1  0  0  0
  4  5  1  0  0  0
  5 21  1  0  0  0
 21 22  2  0  0  0
 21 23  1  0  0  0
  5  1  2  0  0  0
 13  6  1  0  0  0
 14 18  1  0  0  0
 14 19  1  0  0  0
 17 20  1  0  0  0
 23 24  1  0  0  0
M  END
> <score>
0.089678

> <minimizedAffinity>
-6.77350

$$$$
HIPS363


 24 25  0  0  0  0  0  0  0  0999 V2000
   68.3144   74.6791   93.7773 C   0  0  0  0  0  0  0  0  0  0  0  0
   67.7029   75.2781   92.6661 C   0  0  0  0  0  0  0  0  0  0  0  0
   68.2506   74.8841   91.4439 C   0  0  0  0  0  0  0  0  0  0  0  0
   69.4756   73.7698   91.7685 S   0  0  0  0  0  0  0  0  0  0  0  0
   69.3323   73.7800   93.4438 C   0  0  0  0  0  0  0  0  0  0  0  0
   67.8376   75.3427   90.0920 C   0  0  0  0  0  0  0  0  0  0  0  0
   67.3249   74.4379   89.1433 C   0  0  0  0  0  0  0  0  0  0  0  0
   66.9386   74.8806   87.8756 C   0  0  0  0  0  0  0  0  0  0  0  0
   67.0545   76.2300   87.5320 C   0  0  0  0  0  0  0  0  0  0  0  0
   66.5572   76.7468   85.9265 Cl  0  0  0  0  0  0  0  0  0  0  0  0
   67.5606   77.1448   88.4683 C   0  0  0  0  0  0  0  0  0  0  0  0
   67.7228   78.8518   88.0771 Cl  0  0  0  0  0  0  0  0  0  0  0  0
   67.9472   76.7010   89.7385 C   0  0  0  0  0  0  0  0  0  0  0  0
   66.3201   74.8462   97.0135 N   0  0  0  0  0  0  0  0  0  0  0  0
   66.6708   74.5145   95.6711 C   0  0  0  0  0  0  0  0  0  0  0  0
   65.8956   73.7936   94.9863 O   0  0  0  0  0  0  0  0  0  0  0  0
   67.9064   74.9857   95.1164 N   0  0  0  0  0  0  0  0  0  0  0  0
   65.4719   74.5230   97.3949 H   0  0  0  0  0  0  0  0  0  0  0  0
   66.9261   75.3984   97.5585 H   0  0  0  0  0  0  0  0  0  0  0  0
   68.4962   75.5404   95.6763 H   0  0  0  0  0  0  0  0  0  0  0  0
   70.0868   72.8921   94.3436 C   0  0  0  0  0  0  0  0  0  0  0  0
   71.0929   72.2703   93.9092 O   0  0  0  0  0  0  0  0  0  0  0  0
   69.6808   72.7048   95.6609 O   0  0  0  0  0  0  0  0  0  0  0  0
   68.9335   73.1639   95.9906 H   0  0  0  0  0  0  0  0  0  0  0  0
 14 15  1  0  0  0
 15 16  2  0  0  0
 15 17  1  0  0  0
 17  1  1  0  0  0
  1  2  1  0  0  0
  2  3  2  0  0  0
  3  6  1  0  0  0
  6  7  2  0  0  0
  7  8  1  0  0  0
  8  9  2  0  0  0
  9 10  1  0  0  0
  9 11  1  0  0  0
 11 12  1  0  0  0
 11 13  2  0  0  0
  3  4  1  0  0  0
  4  5  1  0  0  0
  5 21  1  0  0  0
 21 22  2  0  0  0
 21 23  1  0  0  0
  5  1  2  0  0  0
 13  6  1  0  0  0
 14 18  1  0  0  0
 14 19  1  0  0  0
 17 20  1  0  0  0
 23 24  1  0  0  0
M  END
> <score>
0.089678

> <minimizedAffinity>
-6.67694

$$$$
HIPS365


 27 28  0  0  0  0  0  0  0  0999 V2000
   66.6345   73.6151   88.2512 C   0  0  0  0  0  0  0  0  0  0  0  0
   66.9946   73.0656   89.4954 C   0  0  0  0  0  0  0  0  0  0  0  0
   67.6985   73.9468   90.3171 C   0  0  0  0  0  0  0  0  0  0  0  0
   67.8774   75.3978   89.4769 S   0  0  0  0  0  0  0  0  0  0  0  0
   67.0676   74.9327   88.0783 C   0  0  0  0  0  0  0  0  0  0  0  0
   68.2233   73.6666   91.6783 C   0  0  0  0  0  0  0  0  0  0  0  0
   69.5495   73.2353   91.8694 C   0  0  0  0  0  0  0  0  0  0  0  0
   70.0330   72.9735   93.1538 C   0  0  0  0  0  0  0  0  0  0  0  0
   69.2047   73.1347   94.2677 C   0  0  0  0  0  0  0  0  0  0  0  0
   69.8514   72.7947   95.8673 Cl  0  0  0  0  0  0  0  0  0  0  0  0
   67.8787   73.5599   94.0925 C   0  0  0  0  0  0  0  0  0  0  0  0
   66.8027   73.7747   95.4671 Cl  0  0  0  0  0  0  0  0  0  0  0  0
   67.3944   73.8216   92.8055 C   0  0  0  0  0  0  0  0  0  0  0  0
   66.0755   71.3384   85.2640 N   0  0  0  0  0  0  0  0  0  0  0  0
   66.6292   71.7941   86.5062 C   0  0  0  0  0  0  0  0  0  0  0  0
   67.6749   71.2617   86.9691 O   0  0  0  0  0  0  0  0  0  0  0  0
   65.9813   72.8521   87.2249 N   0  0  0  0  0  0  0  0  0  0  0  0
   65.2104   71.7066   84.9719 H   0  0  0  0  0  0  0  0  0  0  0  0
   65.0457   73.0653   87.0047 H   0  0  0  0  0  0  0  0  0  0  0  0
   66.7377   70.3522   84.4120 C   0  0  0  0  0  0  0  0  0  0  0  0
   65.7617   69.7583   83.3867 C   0  0  0  0  0  0  0  0  0  0  0  0
   63.2780   70.3507   83.2925 C   0  0  0  0  0  0  0  0  0  0  0  0
   64.6975   70.7624   82.9016 C   0  0  0  0  0  0  0  0  0  0  0  0
   66.8371   75.8167   86.9231 C   0  0  0  0  0  0  0  0  0  0  0  0
   66.9977   75.3723   85.7549 O   0  0  0  0  0  0  0  0  0  0  0  0
   66.4677   77.1455   87.1049 O   0  0  0  0  0  0  0  0  0  0  0  0
   66.3462   77.4838   87.9702 H   0  0  0  0  0  0  0  0  0  0  0  0
 22 23  1  0  0  0
 23 21  1  0  0  0
 21 20  1  0  0  0
 20 14  1  0  0  0
 14 15  1  0  0  0
 15 16  2  0  0  0
 15 17  1  0  0  0
 17  1  1  0  0  0
  1  2  1  0  0  0
  2  3  2  0  0  0
  3  6  1  0  0  0
  6  7  2  0  0  0
  7  8  1  0  0  0
  8  9  2  0  0  0
  9 10  1  0  0  0
  9 11  1  0  0  0
 11 12  1  0  0  0
 11 13  2  0  0  0
  3  4  1  0  0  0
  4  5  1  0  0  0
  5 24  1  0  0  0
 24 25  2  0  0  0
 24 26  1  0  0  0
  5  1  2  0  0  0
 13  6  1  0  0  0
 14 18  1  0  0  0
 17 19  1  0  0  0
 26 27  1  0  0  0
M  END
> <score>
-0.38507

> <minimizedAffinity>
-7.58224

$$$$
HIPS365


 27 28  0  0  0  0  0  0  0  0999 V2000
   68.2048   77.9182   91.0954 C   0  0  0  0  0  0  0  0  0  0  0  0
   68.2931   79.2655   90.6997 C   0  0  0  0  0  0  0  0  0  0  0  0
   69.5610   79.6382   90.2515 C   0  0  0  0  0  0  0  0  0  0  0  0
   70.5627   78.2868   90.3676 S   0  0  0  0  0  0  0  0  0  0  0  0
   69.4111   77.2226   90.9754 C   0  0  0  0  0  0  0  0  0  0  0  0
   69.9766   80.9832   89.7770 C   0  0  0  0  0  0  0  0  0  0  0  0
   69.0648   81.8368   89.1278 C   0  0  0  0  0  0  0  0  0  0  0  0
   69.4662   83.0994   88.6845 C   0  0  0  0  0  0  0  0  0  0  0  0
   70.7807   83.5321   88.8783 C   0  0  0  0  0  0  0  0  0  0  0  0
   71.2460   85.1283   88.3055 Cl  0  0  0  0  0  0  0  0  0  0  0  0
   71.7023   82.6905   89.5202 C   0  0  0  0  0  0  0  0  0  0  0  0
   73.3663   83.1956   89.7835 Cl  0  0  0  0  0  0  0  0  0  0  0  0
   71.3001   81.4251   89.9638 C   0  0  0  0  0  0  0  0  0  0  0  0
   65.8553   76.1554   93.5020 N   0  0  0  0  0  0  0  0  0  0  0  0
   66.8870   77.0499   93.0628 C   0  0  0  0  0  0  0  0  0  0  0  0
   67.6720   77.5743   93.8994 O   0  0  0  0  0  0  0  0  0  0  0  0
   67.0150   77.3530   91.6672 N   0  0  0  0  0  0  0  0  0  0  0  0
   65.2002   75.8331   92.8416 H   0  0  0  0  0  0  0  0  0  0  0  0
   66.2522   77.1651   91.0738 H   0  0  0  0  0  0  0  0  0  0  0  0
   65.7327   75.7008   94.8859 C   0  0  0  0  0  0  0  0  0  0  0  0
   65.9454   74.1843   94.9941 C   0  0  0  0  0  0  0  0  0  0  0  0
   68.4980   74.1111   95.0805 C   0  0  0  0  0  0  0  0  0  0  0  0
   67.1930   73.7981   95.8128 C   0  0  0  0  0  0  0  0  0  0  0  0
   69.6686   75.8014   91.2638 C   0  0  0  0  0  0  0  0  0  0  0  0
   68.9116   74.9186   90.7784 O   0  0  0  0  0  0  0  0  0  0  0  0
   70.7236   75.4209   92.0869 O   0  0  0  0  0  0  0  0  0  0  0  0
   71.2912   76.0710   92.4518 H   0  0  0  0  0  0  0  0  0  0  0  0
 22 23  1  0  0  0
 23 21  1  0  0  0
 21 20  1  0  0  0
 20 14  1  0  0  0
 14 15  1  0  0  0
 15 16  2  0  0  0
 15 17  1  0  0  0
 17  1  1  0  0  0
  1  2  1  0  0  0
  2  3  2  0  0  0
  3  6  1  0  0  0
  6  7  2  0  0  0
  7  8  1  0  0  0
  8  9  2  0  0  0
  9 10  1  0  0  0
  9 11  1  0  0  0
 11 12  1  0  0  0
 11 13  2  0  0  0
  3  4  1  0  0  0
  4  5  1  0  0  0
  5 24  1  0  0  0
 24 25  2  0  0  0
 24 26  1  0  0  0
  5  1  2  0  0  0
 13  6  1  0  0  0
 14 18  1  0  0  0
 17 19  1  0  0  0
 26 27  1  0  0  0
M  END
> <score>
-0.38507

> <minimizedAffinity>
-7.00521

$$$$
HIPS365


 27 28  0  0  0  0  0  0  0  0999 V2000
   68.2655   77.8031   91.1160 C   0  0  0  0  0  0  0  0  0  0  0  0
   68.3663   79.1533   90.7331 C   0  0  0  0  0  0  0  0  0  0  0  0
   69.6451   79.5262   90.3174 C   0  0  0  0  0  0  0  0  0  0  0  0
   70.6407   78.1714   90.4462 S   0  0  0  0  0  0  0  0  0  0  0  0
   69.4727   77.1054   91.0187 C   0  0  0  0  0  0  0  0  0  0  0  0
   70.0749   80.8738   89.8633 C   0  0  0  0  0  0  0  0  0  0  0  0
   71.3727   81.3491   90.1304 C   0  0  0  0  0  0  0  0  0  0  0  0
   71.7666   82.6185   89.6998 C   0  0  0  0  0  0  0  0  0  0  0  0
   70.8757   83.4355   88.9987 C   0  0  0  0  0  0  0  0  0  0  0  0
   71.4104   85.0266   88.4742 Cl  0  0  0  0  0  0  0  0  0  0  0  0
   69.5770   82.9770   88.7287 C   0  0  0  0  0  0  0  0  0  0  0  0
   68.4243   83.9733   87.8501 Cl  0  0  0  0  0  0  0  0  0  0  0  0
   69.1823   81.7053   89.1608 C   0  0  0  0  0  0  0  0  0  0  0  0
   65.8503   76.0529   93.4660 N   0  0  0  0  0  0  0  0  0  0  0  0
   66.8899   76.9493   93.0498 C   0  0  0  0  0  0  0  0  0  0  0  0
   67.6437   77.4890   93.9052 O   0  0  0  0  0  0  0  0  0  0  0  0
   67.0615   77.2366   91.6556 N   0  0  0  0  0  0  0  0  0  0  0  0
   65.2193   75.7182   92.7886 H   0  0  0  0  0  0  0  0  0  0  0  0
   66.3197   77.0363   91.0400 H   0  0  0  0  0  0  0  0  0  0  0  0
   65.6855   75.6140   94.8507 C   0  0  0  0  0  0  0  0  0  0  0  0
   66.0206   74.1239   95.0053 C   0  0  0  0  0  0  0  0  0  0  0  0
   68.5736   74.0384   95.0655 C   0  0  0  0  0  0  0  0  0  0  0  0
   67.2781   73.8647   95.8584 C   0  0  0  0  0  0  0  0  0  0  0  0
   69.7201   75.6814   91.3018 C   0  0  0  0  0  0  0  0  0  0  0  0
   70.6864   75.3501   92.0397 O   0  0  0  0  0  0  0  0  0  0  0  0
   68.9147   74.6935   90.7444 O   0  0  0  0  0  0  0  0  0  0  0  0
   68.1942   74.9313   90.1946 H   0  0  0  0  0  0  0  0  0  0  0  0
 22 23  1  0  0  0
 23 21  1  0  0  0
 21 20  1  0  0  0
 20 14  1  0  0  0
 14 15  1  0  0  0
 15 16  2  0  0  0
 15 17  1  0  0  0
 17  1  1  0  0  0
  1  2  1  0  0  0
  2  3  2  0  0  0
  3  6  1  0  0  0
  6  7  2  0  0  0
  7  8  1  0  0  0
  8  9  2  0  0  0
  9 10  1  0  0  0
  9 11  1  0  0  0
 11 12  1  0  0  0
 11 13  2  0  0  0
  3  4  1  0  0  0
  4  5  1  0  0  0
  5 24  1  0  0  0
 24 25  2  0  0  0
 24 26  1  0  0  0
  5  1  2  0  0  0
 13  6  1  0  0  0
 14 18  1  0  0  0
 17 19  1  0  0  0
 26 27  1  0  0  0
M  END
> <score>
-0.38507

> <minimizedAffinity>
-6.78449

$$$$
HIPS380


 29 31  0  0  0  0  0  0  0  0999 V2000
   68.1340   77.9831   90.3621 C   0  0  0  0  0  0  0  0  0  0  0  0
   68.6534   76.9651   91.1832 C   0  0  0  0  0  0  0  0  0  0  0  0
   68.3632   75.6756   90.7335 C   0  0  0  0  0  0  0  0  0  0  0  0
   67.4681   75.8203   89.3118 S   0  0  0  0  0  0  0  0  0  0  0  0
   67.4397   77.5003   89.2490 C   0  0  0  0  0  0  0  0  0  0  0  0
   68.7682   74.3947   91.3701 C   0  0  0  0  0  0  0  0  0  0  0  0
   68.7803   73.2040   90.6205 C   0  0  0  0  0  0  0  0  0  0  0  0
   69.1585   71.9953   91.2102 C   0  0  0  0  0  0  0  0  0  0  0  0
   69.5330   71.9523   92.5555 C   0  0  0  0  0  0  0  0  0  0  0  0
   70.0025   70.4114   93.2609 Cl  0  0  0  0  0  0  0  0  0  0  0  0
   69.5300   73.1318   93.3161 C   0  0  0  0  0  0  0  0  0  0  0  0
   70.0009   73.1224   95.0107 Cl  0  0  0  0  0  0  0  0  0  0  0  0
   69.1506   74.3430   92.7249 C   0  0  0  0  0  0  0  0  0  0  0  0
   70.5777   79.3818   89.8062 O   0  0  0  0  0  0  0  0  0  0  0  0
   69.5786   80.0493   90.1896 C   0  0  0  0  0  0  0  0  0  0  0  0
   69.6586   81.4795   90.2878 N   0  0  0  0  0  0  0  0  0  0  0  0
   68.3789   79.3782   90.6007 N   0  0  0  0  0  0  0  0  0  0  0  0
   68.9467   81.9485   90.7802 H   0  0  0  0  0  0  0  0  0  0  0  0
   67.6888   79.9003   91.0701 H   0  0  0  0  0  0  0  0  0  0  0  0
   70.7130   82.2701   89.7123 C   0  0  0  0  0  0  0  0  0  0  0  0
   70.4953   83.0696   88.5741 C   0  0  0  0  0  0  0  0  0  0  0  0
   71.5328   83.8473   88.0500 C   0  0  0  0  0  0  0  0  0  0  0  0
   72.7888   83.8452   88.6619 C   0  0  0  0  0  0  0  0  0  0  0  0
   73.0072   83.0722   89.8049 C   0  0  0  0  0  0  0  0  0  0  0  0
   71.9723   82.2938   90.3327 C   0  0  0  0  0  0  0  0  0  0  0  0
   66.7376   78.2768   88.2128 C   0  0  0  0  0  0  0  0  0  0  0  0
   66.4101   77.7205   87.1306 O   0  0  0  0  0  0  0  0  0  0  0  0
   66.4079   79.6117   88.4229 O   0  0  0  0  0  0  0  0  0  0  0  0
   66.6477   80.0329   89.2249 H   0  0  0  0  0  0  0  0  0  0  0  0
 14 15  2  0  0  0
 15 16  1  0  0  0
 16 20  1  0  0  0
 20 21  2  0  0  0
 21 22  1  0  0  0
 22 23  2  0  0  0
 23 24  1  0  0  0
 24 25  2  0  0  0
 15 17  1  0  0  0
 17  1  1  0  0  0
  1  2  1  0  0  0
  2  3  2  0  0  0
  3  6  1  0  0  0
  6  7  2  0  0  0
  7  8  1  0  0  0
  8  9  2  0  0  0
  9 10  1  0  0  0
  9 11  1  0  0  0
 11 12  1  0  0  0
 11 13  2  0  0  0
  3  4  1  0  0  0
  4  5  1  0  0  0
  5 26  1  0  0  0
 26 27  2  0  0  0
 26 28  1  0  0  0
 25 20  1  0  0  0
  5  1  2  0  0  0
 13  6  1  0  0  0
 16 18  1  0  0  0
 17 19  1  0  0  0
 28 29  1  0  0  0
M  END
> <score>
-0.544894

> <minimizedAffinity>
-8.03707

$$$$
HIPS380


 29 31  0  0  0  0  0  0  0  0999 V2000
   67.4430   79.2070   90.5327 C   0  0  0  0  0  0  0  0  0  0  0  0
   67.4077   78.6196   91.8109 C   0  0  0  0  0  0  0  0  0  0  0  0
   67.2259   77.2355   91.7900 C   0  0  0  0  0  0  0  0  0  0  0  0
   67.1189   76.7592   90.1759 S   0  0  0  0  0  0  0  0  0  0  0  0
   67.3017   78.2843   89.4921 C   0  0  0  0  0  0  0  0  0  0  0  0
   67.1483   76.3263   92.9636 C   0  0  0  0  0  0  0  0  0  0  0  0
   65.9551   76.2235   93.7022 C   0  0  0  0  0  0  0  0  0  0  0  0
   65.8728   75.3726   94.8071 C   0  0  0  0  0  0  0  0  0  0  0  0
   66.9765   74.6081   95.1938 C   0  0  0  0  0  0  0  0  0  0  0  0
   66.8328   73.5489   96.5901 Cl  0  0  0  0  0  0  0  0  0  0  0  0
   68.1728   74.6961   94.4653 C   0  0  0  0  0  0  0  0  0  0  0  0
   69.5831   73.7460   94.9143 Cl  0  0  0  0  0  0  0  0  0  0  0  0
   68.2551   75.5494   93.3581 C   0  0  0  0  0  0  0  0  0  0  0  0
   69.9946   80.3907   89.9619 O   0  0  0  0  0  0  0  0  0  0  0  0
   68.9701   81.1254   89.9213 C   0  0  0  0  0  0  0  0  0  0  0  0
   69.0843   82.5057   89.5429 N   0  0  0  0  0  0  0  0  0  0  0  0
   67.6949   80.6058   90.3242 N   0  0  0  0  0  0  0  0  0  0  0  0
   68.3173   83.0972   89.7191 H   0  0  0  0  0  0  0  0  0  0  0  0
   66.9551   81.2399   90.4649 H   0  0  0  0  0  0  0  0  0  0  0  0
   70.2484   83.0788   88.9227 C   0  0  0  0  0  0  0  0  0  0  0  0
   70.2282   83.5180   87.5853 C   0  0  0  0  0  0  0  0  0  0  0  0
   71.3680   84.0938   87.0151 C   0  0  0  0  0  0  0  0  0  0  0  0
   72.5302   84.2486   87.7748 C   0  0  0  0  0  0  0  0  0  0  0  0
   72.5521   83.8361   89.1093 C   0  0  0  0  0  0  0  0  0  0  0  0
   71.4143   83.2606   89.6835 C   0  0  0  0  0  0  0  0  0  0  0  0
   67.2514   78.5525   88.0446 C   0  0  0  0  0  0  0  0  0  0  0  0
   66.7238   79.6170   87.6250 O   0  0  0  0  0  0  0  0  0  0  0  0
   67.8019   77.6566   87.1339 O   0  0  0  0  0  0  0  0  0  0  0  0
   68.1962   76.8627   87.4376 H   0  0  0  0  0  0  0  0  0  0  0  0
 14 15  2  0  0  0
 15 16  1  0  0  0
 16 20  1  0  0  0
 20 21  2  0  0  0
 21 22  1  0  0  0
 22 23  2  0  0  0
 23 24  1  0  0  0
 24 25  2  0  0  0
 15 17  1  0  0  0
 17  1  1  0  0  0
  1  2  1  0  0  0
  2  3  2  0  0  0
  3  6  1  0  0  0
  6  7  2  0  0  0
  7  8  1  0  0  0
  8  9  2  0  0  0
  9 10  1  0  0  0
  9 11  1  0  0  0
 11 12  1  0  0  0
 11 13  2  0  0  0
  3  4  1  0  0  0
  4  5  1  0  0  0
  5 26  1  0  0  0
 26 27  2  0  0  0
 26 28  1  0  0  0
 25 20  1  0  0  0
  5  1  2  0  0  0
 13  6  1  0  0  0
 16 18  1  0  0  0
 17 19  1  0  0  0
 28 29  1  0  0  0
M  END
> <score>
-0.544894

> <minimizedAffinity>
-7.96059

$$$$
HIPS380


 29 31  0  0  0  0  0  0  0  0999 V2000
   68.1879   78.2830   90.3564 C   0  0  0  0  0  0  0  0  0  0  0  0
   68.7614   77.3804   91.2711 C   0  0  0  0  0  0  0  0  0  0  0  0
   68.5223   76.0395   90.9646 C   0  0  0  0  0  0  0  0  0  0  0  0
   67.6040   75.9952   89.5510 S   0  0  0  0  0  0  0  0  0  0  0  0
   67.5016   77.6563   89.3123 C   0  0  0  0  0  0  0  0  0  0  0  0
   68.9907   74.8514   91.7254 C   0  0  0  0  0  0  0  0  0  0  0  0
   69.3092   74.9653   93.0912 C   0  0  0  0  0  0  0  0  0  0  0  0
   69.7510   73.8547   93.8143 C   0  0  0  0  0  0  0  0  0  0  0  0
   69.8810   72.6114   93.1902 C   0  0  0  0  0  0  0  0  0  0  0  0
   70.4402   71.2377   94.1349 Cl  0  0  0  0  0  0  0  0  0  0  0  0
   69.5637   72.4800   91.8294 C   0  0  0  0  0  0  0  0  0  0  0  0
   69.7070   70.9317   91.0075 Cl  0  0  0  0  0  0  0  0  0  0  0  0
   69.1212   73.5935   91.1048 C   0  0  0  0  0  0  0  0  0  0  0  0
   70.6504   79.6872   89.9070 O   0  0  0  0  0  0  0  0  0  0  0  0
   69.5999   80.3615   90.0879 C   0  0  0  0  0  0  0  0  0  0  0  0
   69.6385   81.7948   90.0128 N   0  0  0  0  0  0  0  0  0  0  0  0
   68.3747   79.7046   90.4428 N   0  0  0  0  0  0  0  0  0  0  0  0
   68.8647   82.2957   90.3586 H   0  0  0  0  0  0  0  0  0  0  0  0
   67.6240   80.2561   90.7616 H   0  0  0  0  0  0  0  0  0  0  0  0
   70.7360   82.5449   89.4645 C   0  0  0  0  0  0  0  0  0  0  0  0
   70.5983   83.2882   88.2768 C   0  0  0  0  0  0  0  0  0  0  0  0
   71.6757   84.0282   87.7793 C   0  0  0  0  0  0  0  0  0  0  0  0
   72.8921   84.0443   88.4663 C   0  0  0  0  0  0  0  0  0  0  0  0
   73.0307   83.3276   89.6574 C   0  0  0  0  0  0  0  0  0  0  0  0
   71.9557   82.5872   90.1588 C   0  0  0  0  0  0  0  0  0  0  0  0
   66.7534   78.2886   88.2122 C   0  0  0  0  0  0  0  0  0  0  0  0
   66.4080   77.5995   87.2153 O   0  0  0  0  0  0  0  0  0  0  0  0
   66.4000   79.6327   88.2703 O   0  0  0  0  0  0  0  0  0  0  0  0
   66.6529   80.1522   89.0080 H   0  0  0  0  0  0  0  0  0  0  0  0
 14 15  2  0  0  0
 15 16  1  0  0  0
 16 20  1  0  0  0
 20 21  2  0  0  0
 21 22  1  0  0  0
 22 23  2  0  0  0
 23 24  1  0  0  0
 24 25  2  0  0  0
 15 17  1  0  0  0
 17  1  1  0  0  0
  1  2  1  0  0  0
  2  3  2  0  0  0
  3  6  1  0  0  0
  6  7  2  0  0  0
  7  8  1  0  0  0
  8  9  2  0  0  0
  9 10  1  0  0  0
  9 11  1  0  0  0
 11 12  1  0  0  0
 11 13  2  0  0  0
  3  4  1  0  0  0
  4  5  1  0  0  0
  5 26  1  0  0  0
 26 27  2  0  0  0
 26 28  1  0  0  0
 25 20  1  0  0  0
  5  1  2  0  0  0
 13  6  1  0  0  0
 16 18  1  0  0  0
 17 19  1  0  0  0
 28 29  1  0  0  0
M  END
> <score>
-0.544894

> <minimizedAffinity>
-7.81112

$$$$
HIPS382


 29 30  0  0  0  0  0  0  0  0999 V2000
   68.4570   74.6096   90.7773 C   0  0  0  0  0  0  0  0  0  0  0  0
   68.4880   75.9046   90.2295 C   0  0  0  0  0  0  0  0  0  0  0  0
   69.3698   76.7705   90.8762 C   0  0  0  0  0  0  0  0  0  0  0  0
   70.1101   75.9079   92.1219 S   0  0  0  0  0  0  0  0  0  0  0  0
   69.3259   74.4431   91.8592 C   0  0  0  0  0  0  0  0  0  0  0  0
   66.8227   72.4089   88.1701 N   0  0  0  0  0  0  0  0  0  0  0  0
   67.1226   73.6163   88.8834 C   0  0  0  0  0  0  0  0  0  0  0  0
   66.8823   74.7395   88.3622 O   0  0  0  0  0  0  0  0  0  0  0  0
   67.6959   73.5400   90.1952 N   0  0  0  0  0  0  0  0  0  0  0  0
   66.9530   71.5477   88.6290 H   0  0  0  0  0  0  0  0  0  0  0  0
   67.5618   72.7181   90.7202 H   0  0  0  0  0  0  0  0  0  0  0  0
   66.3325   72.3981   86.7930 C   0  0  0  0  0  0  0  0  0  0  0  0
   67.4172   71.9163   85.8178 C   0  0  0  0  0  0  0  0  0  0  0  0
   66.9692   70.7338   84.9350 C   0  0  0  0  0  0  0  0  0  0  0  0
   67.6581   69.4140   85.3237 C   0  0  0  0  0  0  0  0  0  0  0  0
   69.5272   68.3900   86.7266 C   0  0  0  0  0  0  0  0  0  0  0  0
   68.5711   69.5686   86.5506 C   0  0  0  0  0  0  0  0  0  0  0  0
   69.6464   78.1864   90.5198 C   0  0  0  0  0  0  0  0  0  0  0  0
   68.6011   79.0709   90.1925 C   0  0  0  0  0  0  0  0  0  0  0  0
   68.8718   80.3991   89.8509 C   0  0  0  0  0  0  0  0  0  0  0  0
   70.1958   80.8728   89.8330 C   0  0  0  0  0  0  0  0  0  0  0  0
   71.2354   79.9985   90.1632 C   0  0  0  0  0  0  0  0  0  0  0  0
   70.9674   78.6700   90.5044 C   0  0  0  0  0  0  0  0  0  0  0  0
   70.5181   82.1958   89.4960 O   0  0  0  0  0  0  0  0  0  0  0  0
   71.8115   82.7716   89.6479 C   0  0  0  0  0  0  0  0  0  0  0  0
   69.5231   73.2388   92.6838 C   0  0  0  0  0  0  0  0  0  0  0  0
   70.6644   72.9830   93.1526 O   0  0  0  0  0  0  0  0  0  0  0  0
   68.4584   72.3916   92.9736 O   0  0  0  0  0  0  0  0  0  0  0  0
   67.6066   72.5749   92.6289 H   0  0  0  0  0  0  0  0  0  0  0  0
 16 17  1  0  0  0
 17 15  1  0  0  0
 15 14  1  0  0  0
 14 13  1  0  0  0
 13 12  1  0  0  0
 12  6  1  0  0  0
  6  7  1  0  0  0
  7  8  2  0  0  0
  7  9  1  0  0  0
  9  1  1  0  0  0
  1  2  1  0  0  0
  2  3  2  0  0  0
  3 18  1  0  0  0
 18 19  2  0  0  0
 19 20  1  0  0  0
 20 21  2  0  0  0
 21 24  1  0  0  0
 24 25  1  0  0  0
 21 22  1  0  0  0
 22 23  2  0  0  0
  3  4  1  0  0  0
  4  5  1  0  0  0
  5 26  1  0  0  0
 26 27  2  0  0  0
 26 28  1  0  0  0
  5  1  2  0  0  0
 23 18  1  0  0  0
  6 10  1  0  0  0
  9 11  1  0  0  0
 28 29  1  0  0  0
M  END
> <score>
0.466782

> <minimizedAffinity>
-6.87628

$$$$
HIPS382


 29 30  0  0  0  0  0  0  0  0999 V2000
   68.7608   79.5145   89.9879 C   0  0  0  0  0  0  0  0  0  0  0  0
   69.0524   78.2659   90.5659 C   0  0  0  0  0  0  0  0  0  0  0  0
   68.4115   77.1932   89.9462 C   0  0  0  0  0  0  0  0  0  0  0  0
   67.4926   77.8131   88.6753 S   0  0  0  0  0  0  0  0  0  0  0  0
   67.8910   79.4323   88.8971 C   0  0  0  0  0  0  0  0  0  0  0  0
   71.2728   82.3363   90.1856 N   0  0  0  0  0  0  0  0  0  0  0  0
   70.7959   80.9843   90.2175 C   0  0  0  0  0  0  0  0  0  0  0  0
   71.6003   80.0225   90.0804 O   0  0  0  0  0  0  0  0  0  0  0  0
   69.3978   80.7308   90.4087 N   0  0  0  0  0  0  0  0  0  0  0  0
   70.6348   83.0637   90.3674 H   0  0  0  0  0  0  0  0  0  0  0  0
   68.8502   81.4212   90.8478 H   0  0  0  0  0  0  0  0  0  0  0  0
   72.6627   82.6840   89.8956 C   0  0  0  0  0  0  0  0  0  0  0  0
   72.7505   83.8433   88.8916 C   0  0  0  0  0  0  0  0  0  0  0  0
   71.3745   84.3972   88.4698 C   0  0  0  0  0  0  0  0  0  0  0  0
   71.0879   84.1864   86.9727 C   0  0  0  0  0  0  0  0  0  0  0  0
   69.5626   86.2107   87.2659 C   0  0  0  0  0  0  0  0  0  0  0  0
   69.8077   84.9032   86.5145 C   0  0  0  0  0  0  0  0  0  0  0  0
   68.5362   75.7563   90.3043 C   0  0  0  0  0  0  0  0  0  0  0  0
   67.7514   74.7775   89.6655 C   0  0  0  0  0  0  0  0  0  0  0  0
   67.8702   73.4291   90.0146 C   0  0  0  0  0  0  0  0  0  0  0  0
   68.7806   73.0299   91.0092 C   0  0  0  0  0  0  0  0  0  0  0  0
   69.5654   73.9988   91.6412 C   0  0  0  0  0  0  0  0  0  0  0  0
   69.4481   75.3476   91.2944 C   0  0  0  0  0  0  0  0  0  0  0  0
   68.9353   71.6901   91.3950 O   0  0  0  0  0  0  0  0  0  0  0  0
   69.8962   71.2318   92.3406 C   0  0  0  0  0  0  0  0  0  0  0  0
   67.3529   80.5362   88.0842 C   0  0  0  0  0  0  0  0  0  0  0  0
   66.2222   80.4180   87.5407 O   0  0  0  0  0  0  0  0  0  0  0  0
   68.0667   81.7201   87.9288 O   0  0  0  0  0  0  0  0  0  0  0  0
   68.9081   81.8160   88.3297 H   0  0  0  0  0  0  0  0  0  0  0  0
 16 17  1  0  0  0
 17 15  1  0  0  0
 15 14  1  0  0  0
 14 13  1  0  0  0
 13 12  1  0  0  0
 12  6  1  0  0  0
  6  7  1  0  0  0
  7  8  2  0  0  0
  7  9  1  0  0  0
  9  1  1  0  0  0
  1  2  1  0  0  0
  2  3  2  0  0  0
  3 18  1  0  0  0
 18 19  2  0  0  0
 19 20  1  0  0  0
 20 21  2  0  0  0
 21 24  1  0  0  0
 24 25  1  0  0  0
 21 22  1  0  0  0
 22 23  2  0  0  0
  3  4  1  0  0  0
  4  5  1  0  0  0
  5 26  1  0  0  0
 26 27  2  0  0  0
 26 28  1  0  0  0
  5  1  2  0  0  0
 23 18  1  0  0  0
  6 10  1  0  0  0
  9 11  1  0  0  0
 28 29  1  0  0  0
M  END
> <score>
0.466782

> <minimizedAffinity>
-6.87361

$$$$
HIPS382


 29 30  0  0  0  0  0  0  0  0999 V2000
   68.3806   76.2653   91.0303 C   0  0  0  0  0  0  0  0  0  0  0  0
   69.0053   75.3222   91.8660 C   0  0  0  0  0  0  0  0  0  0  0  0
   68.8891   74.0062   91.4184 C   0  0  0  0  0  0  0  0  0  0  0  0
   68.0142   74.0332   89.9770 S   0  0  0  0  0  0  0  0  0  0  0  0
   67.7731   75.6965   89.9076 C   0  0  0  0  0  0  0  0  0  0  0  0
   69.0833   79.9314   90.4160 N   0  0  0  0  0  0  0  0  0  0  0  0
   69.3652   78.5294   90.5216 C   0  0  0  0  0  0  0  0  0  0  0  0
   70.3932   78.0443   89.9748 O   0  0  0  0  0  0  0  0  0  0  0  0
   68.4724   77.6806   91.2550 N   0  0  0  0  0  0  0  0  0  0  0  0
   68.3145   80.2945   90.9125 H   0  0  0  0  0  0  0  0  0  0  0  0
   67.8968   78.0861   91.9431 H   0  0  0  0  0  0  0  0  0  0  0  0
   69.8847   80.8463   89.6052 C   0  0  0  0  0  0  0  0  0  0  0  0
   71.2392   81.1394   90.2678 C   0  0  0  0  0  0  0  0  0  0  0  0
   71.5806   82.6420   90.3312 C   0  0  0  0  0  0  0  0  0  0  0  0
   72.9984   82.9465   89.8168 C   0  0  0  0  0  0  0  0  0  0  0  0
   71.7435   84.0947   87.9149 C   0  0  0  0  0  0  0  0  0  0  0  0
   73.0122   84.0680   88.7658 C   0  0  0  0  0  0  0  0  0  0  0  0
   69.4601   72.7948   92.0624 C   0  0  0  0  0  0  0  0  0  0  0  0
   70.0095   72.8509   93.3574 C   0  0  0  0  0  0  0  0  0  0  0  0
   70.5514   71.7077   93.9520 C   0  0  0  0  0  0  0  0  0  0  0  0
   70.5520   70.4811   93.2642 C   0  0  0  0  0  0  0  0  0  0  0  0
   70.0019   70.4209   91.9805 C   0  0  0  0  0  0  0  0  0  0  0  0
   69.4601   71.5626   91.3836 C   0  0  0  0  0  0  0  0  0  0  0  0
   71.0847   69.3073   93.8177 O   0  0  0  0  0  0  0  0  0  0  0  0
   70.7669   68.8143   95.1152 C   0  0  0  0  0  0  0  0  0  0  0  0
   67.0080   76.3789   88.8501 C   0  0  0  0  0  0  0  0  0  0  0  0
   67.0111   75.9147   87.6787 O   0  0  0  0  0  0  0  0  0  0  0  0
   66.2601   77.5171   89.1335 O   0  0  0  0  0  0  0  0  0  0  0  0
   66.2525   77.8685   90.0021 H   0  0  0  0  0  0  0  0  0  0  0  0
 16 17  1  0  0  0
 17 15  1  0  0  0
 15 14  1  0  0  0
 14 13  1  0  0  0
 13 12  1  0  0  0
 12  6  1  0  0  0
  6  7  1  0  0  0
  7  8  2  0  0  0
  7  9  1  0  0  0
  9  1  1  0  0  0
  1  2  1  0  0  0
  2  3  2  0  0  0
  3 18  1  0  0  0
 18 19  2  0  0  0
 19 20  1  0  0  0
 20 21  2  0  0  0
 21 24  1  0  0  0
 24 25  1  0  0  0
 21 22  1  0  0  0
 22 23  2  0  0  0
  3  4  1  0  0  0
  4  5  1  0  0  0
  5 26  1  0  0  0
 26 27  2  0  0  0
 26 28  1  0  0  0
  5  1  2  0  0  0
 23 18  1  0  0  0
  6 10  1  0  0  0
  9 11  1  0  0  0
 28 29  1  0  0  0
M  END
> <score>
0.466782

> <minimizedAffinity>
-6.65655

$$$$
HIPS387


 29 30  0  0  0  0  0  0  0  0999 V2000
   68.2136   74.1376   90.9497 C   0  0  0  0  0  0  0  0  0  0  0  0
   68.5162   75.3519   90.3099 C   0  0  0  0  0  0  0  0  0  0  0  0
   69.1639   76.2710   91.1286 C   0  0  0  0  0  0  0  0  0  0  0  0
   69.3366   75.5771   92.6545 S   0  0  0  0  0  0  0  0  0  0  0  0
   68.6235   74.0966   92.2858 C   0  0  0  0  0  0  0  0  0  0  0  0
   69.5423   77.6489   90.7368 C   0  0  0  0  0  0  0  0  0  0  0  0
   68.5226   78.5641   90.4145 C   0  0  0  0  0  0  0  0  0  0  0  0
   68.8309   79.8758   90.0486 C   0  0  0  0  0  0  0  0  0  0  0  0
   70.1614   80.2929   89.9941 C   0  0  0  0  0  0  0  0  0  0  0  0
   70.5464   81.9407   89.5319 Cl  0  0  0  0  0  0  0  0  0  0  0  0
   71.1865   79.3937   90.2972 C   0  0  0  0  0  0  0  0  0  0  0  0
   70.8904   78.0743   90.6639 C   0  0  0  0  0  0  0  0  0  0  0  0
   72.2450   76.9822   90.9333 Cl  0  0  0  0  0  0  0  0  0  0  0  0
   66.9868   71.9905   88.0979 N   0  0  0  0  0  0  0  0  0  0  0  0
   67.0758   73.1483   88.9387 C   0  0  0  0  0  0  0  0  0  0  0  0
   66.6784   74.2697   88.5196 O   0  0  0  0  0  0  0  0  0  0  0  0
   67.6169   73.0287   90.2605 N   0  0  0  0  0  0  0  0  0  0  0  0
   67.1408   71.1038   88.4971 H   0  0  0  0  0  0  0  0  0  0  0  0
   67.5780   72.1546   90.7119 H   0  0  0  0  0  0  0  0  0  0  0  0
   66.6762   72.0735   86.6707 C   0  0  0  0  0  0  0  0  0  0  0  0
   67.4188   70.9856   85.8786 C   0  0  0  0  0  0  0  0  0  0  0  0
   67.1545   71.0128   84.3617 C   0  0  0  0  0  0  0  0  0  0  0  0
   66.2344   69.8702   83.8972 C   0  0  0  0  0  0  0  0  0  0  0  0
   63.8887   70.6999   83.3200 C   0  0  0  0  0  0  0  0  0  0  0  0
   65.2659   70.3074   82.7866 C   0  0  0  0  0  0  0  0  0  0  0  0
   68.4304   73.0063   93.2567 C   0  0  0  0  0  0  0  0  0  0  0  0
   67.8734   73.2453   94.3615 O   0  0  0  0  0  0  0  0  0  0  0  0
   68.8356   71.7089   92.9610 O   0  0  0  0  0  0  0  0  0  0  0  0
   69.2505   71.5230   92.1417 H   0  0  0  0  0  0  0  0  0  0  0  0
 24 25  1  0  0  0
 25 23  1  0  0  0
 23 22  1  0  0  0
 22 21  1  0  0  0
 21 20  1  0  0  0
 20 14  1  0  0  0
 14 15  1  0  0  0
 15 16  2  0  0  0
 15 17  1  0  0  0
 17  1  1  0  0  0
  1  2  1  0  0  0
  2  3  2  0  0  0
  3  6  1  0  0  0
  6  7  2  0  0  0
  7  8  1  0  0  0
  8  9  2  0  0  0
  9 10  1  0  0  0
  9 11  1  0  0  0
 11 12  2  0  0  0
 12 13  1  0  0  0
  3  4  1  0  0  0
  4  5  1  0  0  0
  5 26  1  0  0  0
 26 27  2  0  0  0
 26 28  1  0  0  0
  5  1  2  0  0  0
 12  6  1  0  0  0
 14 18  1  0  0  0
 17 19  1  0  0  0
 28 29  1  0  0  0
M  END
> <score>
-0.51975

> <minimizedAffinity>
-7.33634

$$$$
HIPS387


 29 30  0  0  0  0  0  0  0  0999 V2000
   68.0512   74.0974   90.5876 C   0  0  0  0  0  0  0  0  0  0  0  0
   68.5536   75.2886   90.0360 C   0  0  0  0  0  0  0  0  0  0  0  0
   68.8172   76.2760   90.9795 C   0  0  0  0  0  0  0  0  0  0  0  0
   68.4011   75.6706   92.4961 S   0  0  0  0  0  0  0  0  0  0  0  0
   67.9145   74.1438   91.9783 C   0  0  0  0  0  0  0  0  0  0  0  0
   69.2905   77.6466   90.6749 C   0  0  0  0  0  0  0  0  0  0  0  0
   70.6739   77.8701   90.5422 C   0  0  0  0  0  0  0  0  0  0  0  0
   71.1656   79.1430   90.2465 C   0  0  0  0  0  0  0  0  0  0  0  0
   70.2851   80.2132   90.0837 C   0  0  0  0  0  0  0  0  0  0  0  0
   70.9054   81.8119   89.7147 Cl  0  0  0  0  0  0  0  0  0  0  0  0
   68.9101   80.0119   90.2259 C   0  0  0  0  0  0  0  0  0  0  0  0
   68.4041   78.7399   90.5242 C   0  0  0  0  0  0  0  0  0  0  0  0
   66.6684   78.5958   90.7827 Cl  0  0  0  0  0  0  0  0  0  0  0  0
   67.0784   71.9846   87.6148 N   0  0  0  0  0  0  0  0  0  0  0  0
   66.9162   72.9542   88.6583 C   0  0  0  0  0  0  0  0  0  0  0  0
   66.0083   73.8264   88.5794 O   0  0  0  0  0  0  0  0  0  0  0  0
   67.7885   72.9296   89.7952 N   0  0  0  0  0  0  0  0  0  0  0  0
   67.6736   71.2164   87.7721 H   0  0  0  0  0  0  0  0  0  0  0  0
   68.2231   72.0812   90.0417 H   0  0  0  0  0  0  0  0  0  0  0  0
   66.3952   72.0909   86.3255 C   0  0  0  0  0  0  0  0  0  0  0  0
   67.3656   71.8325   85.1620 C   0  0  0  0  0  0  0  0  0  0  0  0
   68.2946   70.6214   85.3671 C   0  0  0  0  0  0  0  0  0  0  0  0
   67.5226   69.3011   85.5366 C   0  0  0  0  0  0  0  0  0  0  0  0
   69.3156   68.9862   87.3282 C   0  0  0  0  0  0  0  0  0  0  0  0
   68.2359   68.3176   86.4783 C   0  0  0  0  0  0  0  0  0  0  0  0
   67.3830   73.0982   92.8689 C   0  0  0  0  0  0  0  0  0  0  0  0
   67.3604   73.2908   94.1139 O   0  0  0  0  0  0  0  0  0  0  0  0
   66.8842   71.9074   92.3512 O   0  0  0  0  0  0  0  0  0  0  0  0
   66.8974   71.7565   91.4266 H   0  0  0  0  0  0  0  0  0  0  0  0
 24 25  1  0  0  0
 25 23  1  0  0  0
 23 22  1  0  0  0
 22 21  1  0  0  0
 21 20  1  0  0  0
 20 14  1  0  0  0
 14 15  1  0  0  0
 15 16  2  0  0  0
 15 17  1  0  0  0
 17  1  1  0  0  0
  1  2  1  0  0  0
  2  3  2  0  0  0
  3  6  1  0  0  0
  6  7  2  0  0  0
  7  8  1  0  0  0
  8  9  2  0  0  0
  9 10  1  0  0  0
  9 11  1  0  0  0
 11 12  2  0  0  0
 12 13  1  0  0  0
  3  4  1  0  0  0
  4  5  1  0  0  0
  5 26  1  0  0  0
 26 27  2  0  0  0
 26 28  1  0  0  0
  5  1  2  0  0  0
 12  6  1  0  0  0
 14 18  1  0  0  0
 17 19  1  0  0  0
 28 29  1  0  0  0
M  END
> <score>
-0.51975

> <minimizedAffinity>
-6.85989

$$$$
HIPS387


 29 30  0  0  0  0  0  0  0  0999 V2000
   68.2284   79.7797   90.1485 C   0  0  0  0  0  0  0  0  0  0  0  0
   68.6952   78.4634   89.9900 C   0  0  0  0  0  0  0  0  0  0  0  0
   68.0853   77.5460   90.8391 C   0  0  0  0  0  0  0  0  0  0  0  0
   66.9828   78.3813   91.8017 S   0  0  0  0  0  0  0  0  0  0  0  0
   67.2427   79.9046   91.1322 C   0  0  0  0  0  0  0  0  0  0  0  0
   68.4267   76.1072   90.9321 C   0  0  0  0  0  0  0  0  0  0  0  0
   67.8192   75.2089   90.0347 C   0  0  0  0  0  0  0  0  0  0  0  0
   68.1172   73.8456   90.0789 C   0  0  0  0  0  0  0  0  0  0  0  0
   69.0220   73.3571   91.0222 C   0  0  0  0  0  0  0  0  0  0  0  0
   69.3930   71.6435   91.0773 Cl  0  0  0  0  0  0  0  0  0  0  0  0
   69.6233   74.2326   91.9295 C   0  0  0  0  0  0  0  0  0  0  0  0
   69.3314   75.6025   91.8967 C   0  0  0  0  0  0  0  0  0  0  0  0
   70.0577   76.6181   93.1382 Cl  0  0  0  0  0  0  0  0  0  0  0  0
   70.4466   82.5076   88.7755 N   0  0  0  0  0  0  0  0  0  0  0  0
   69.6597   81.8064   89.7473 C   0  0  0  0  0  0  0  0  0  0  0  0
   69.8335   82.0189   90.9784 O   0  0  0  0  0  0  0  0  0  0  0  0
   68.6714   80.8621   89.3162 N   0  0  0  0  0  0  0  0  0  0  0  0
   70.1832   82.4565   87.8283 H   0  0  0  0  0  0  0  0  0  0  0  0
   68.2824   80.9594   88.4171 H   0  0  0  0  0  0  0  0  0  0  0  0
   71.6253   83.2963   89.1347 C   0  0  0  0  0  0  0  0  0  0  0  0
   71.9420   84.3419   88.0536 C   0  0  0  0  0  0  0  0  0  0  0  0
   71.0276   84.2728   86.8164 C   0  0  0  0  0  0  0  0  0  0  0  0
   70.1278   85.5126   86.6713 C   0  0  0  0  0  0  0  0  0  0  0  0
   67.8402   84.4678   87.1175 C   0  0  0  0  0  0  0  0  0  0  0  0
   68.8994   85.4610   87.5939 C   0  0  0  0  0  0  0  0  0  0  0  0
   66.5701   81.1337   91.5857 C   0  0  0  0  0  0  0  0  0  0  0  0
   65.3968   81.3823   91.1991 O   0  0  0  0  0  0  0  0  0  0  0  0
   67.2056   82.0146   92.4545 O   0  0  0  0  0  0  0  0  0  0  0  0
   68.0780   81.8369   92.7466 H   0  0  0  0  0  0  0  0  0  0  0  0
 24 25  1  0  0  0
 25 23  1  0  0  0
 23 22  1  0  0  0
 22 21  1  0  0  0
 21 20  1  0  0  0
 20 14  1  0  0  0
 14 15  1  0  0  0
 15 16  2  0  0  0
 15 17  1  0  0  0
 17  1  1  0  0  0
  1  2  1  0  0  0
  2  3  2  0  0  0
  3  6  1  0  0  0
  6  7  2  0  0  0
  7  8  1  0  0  0
  8  9  2  0  0  0
  9 10  1  0  0  0
  9 11  1  0  0  0
 11 12  2  0  0  0
 12 13  1  0  0  0
  3  4  1  0  0  0
  4  5  1  0  0  0
  5 26  1  0  0  0
 26 27  2  0  0  0
 26 28  1  0  0  0
  5  1  2  0  0  0
 12  6  1  0  0  0
 14 18  1  0  0  0
 17 19  1  0  0  0
 28 29  1  0  0  0
M  END
> <score>
-0.51975

> <minimizedAffinity>
-6.77338

$$$$
HIPS390


 28 29  0  0  0  0  0  0  0  0999 V2000
   68.4842   78.7996   90.3218 C   0  0  0  0  0  0  0  0  0  0  0  0
   68.9516   77.4835   90.1465 C   0  0  0  0  0  0  0  0  0  0  0  0
   68.3486   76.5508   90.9898 C   0  0  0  0  0  0  0  0  0  0  0  0
   67.2343   77.3783   91.9479 S   0  0  0  0  0  0  0  0  0  0  0  0
   67.5029   78.9114   91.3116 C   0  0  0  0  0  0  0  0  0  0  0  0
   68.6600   75.0997   91.0770 C   0  0  0  0  0  0  0  0  0  0  0  0
   68.0035   74.1629   90.2530 C   0  0  0  0  0  0  0  0  0  0  0  0
   68.3185   72.8032   90.3313 C   0  0  0  0  0  0  0  0  0  0  0  0
   69.2862   72.3572   91.2345 C   0  0  0  0  0  0  0  0  0  0  0  0
   69.6789   70.6503   91.3298 Cl  0  0  0  0  0  0  0  0  0  0  0  0
   69.9391   73.2732   92.0627 C   0  0  0  0  0  0  0  0  0  0  0  0
   69.6294   74.6345   91.9866 C   0  0  0  0  0  0  0  0  0  0  0  0
   70.5162   81.9146   89.8938 N   0  0  0  0  0  0  0  0  0  0  0  0
   70.3104   80.5023   90.0290 C   0  0  0  0  0  0  0  0  0  0  0  0
   71.2191   79.7711   90.5096 O   0  0  0  0  0  0  0  0  0  0  0  0
   69.0598   79.9243   89.6370 N   0  0  0  0  0  0  0  0  0  0  0  0
   69.9297   82.4254   89.2902 H   0  0  0  0  0  0  0  0  0  0  0  0
   68.5773   80.3114   88.8711 H   0  0  0  0  0  0  0  0  0  0  0  0
   71.5690   82.6221   90.6231 C   0  0  0  0  0  0  0  0  0  0  0  0
   72.8511   82.7226   89.7841 C   0  0  0  0  0  0  0  0  0  0  0  0
   73.0537   84.1254   89.1905 C   0  0  0  0  0  0  0  0  0  0  0  0
   72.5056   84.2123   87.7593 C   0  0  0  0  0  0  0  0  0  0  0  0
   70.1658   84.3545   86.7461 C   0  0  0  0  0  0  0  0  0  0  0  0
   71.1859   84.9982   87.6856 C   0  0  0  0  0  0  0  0  0  0  0  0
   66.7755   80.1183   91.7390 C   0  0  0  0  0  0  0  0  0  0  0  0
   65.5503   80.0662   92.0263 O   0  0  0  0  0  0  0  0  0  0  0  0
   67.4553   81.3274   91.8489 O   0  0  0  0  0  0  0  0  0  0  0  0
   68.3668   81.3734   91.6368 H   0  0  0  0  0  0  0  0  0  0  0  0
 23 24  1  0  0  0
 24 22  1  0  0  0
 22 21  1  0  0  0
 21 20  1  0  0  0
 20 19  1  0  0  0
 19 13  1  0  0  0
 13 14  1  0  0  0
 14 15  2  0  0  0
 14 16  1  0  0  0
 16  1  1  0  0  0
  1  2  1  0  0  0
  2  3  2  0  0  0
  3  6  1  0  0  0
  6  7  2  0  0  0
  7  8  1  0  0  0
  8  9  2  0  0  0
  9 10  1  0  0  0
  9 11  1  0  0  0
 11 12  2  0  0  0
  3  4  1  0  0  0
  4  5  1  0  0  0
  5 25  1  0  0  0
 25 26  2  0  0  0
 25 27  1  0  0  0
  5  1  2  0  0  0
 12  6  1  0  0  0
 13 17  1  0  0  0
 16 18  1  0  0  0
 27 28  1  0  0  0
M  END
> <score>
0.140183

> <minimizedAffinity>
-6.77379

$$$$
HIPS390


 28 29  0  0  0  0  0  0  0  0999 V2000
   68.3213   77.8958   90.9564 C   0  0  0  0  0  0  0  0  0  0  0  0
   68.4463   79.2328   90.5345 C   0  0  0  0  0  0  0  0  0  0  0  0
   69.7566   79.6183   90.2535 C   0  0  0  0  0  0  0  0  0  0  0  0
   70.7497   78.2842   90.5334 S   0  0  0  0  0  0  0  0  0  0  0  0
   69.5419   77.2157   91.0102 C   0  0  0  0  0  0  0  0  0  0  0  0
   70.2151   80.9694   89.8356 C   0  0  0  0  0  0  0  0  0  0  0  0
   71.5135   81.4252   90.1421 C   0  0  0  0  0  0  0  0  0  0  0  0
   71.9393   82.6905   89.7275 C   0  0  0  0  0  0  0  0  0  0  0  0
   71.0770   83.5209   89.0079 C   0  0  0  0  0  0  0  0  0  0  0  0
   71.6150   85.1078   88.4891 Cl  0  0  0  0  0  0  0  0  0  0  0  0
   69.7850   83.0855   88.7038 C   0  0  0  0  0  0  0  0  0  0  0  0
   69.3551   81.8200   89.1142 C   0  0  0  0  0  0  0  0  0  0  0  0
   65.9564   76.1427   93.2694 N   0  0  0  0  0  0  0  0  0  0  0  0
   66.7344   77.2500   92.7960 C   0  0  0  0  0  0  0  0  0  0  0  0
   67.1347   78.1351   93.6009 O   0  0  0  0  0  0  0  0  0  0  0  0
   67.0760   77.3385   91.4078 N   0  0  0  0  0  0  0  0  0  0  0  0
   65.4351   75.6158   92.6214 H   0  0  0  0  0  0  0  0  0  0  0  0
   66.4348   77.0056   90.7391 H   0  0  0  0  0  0  0  0  0  0  0  0
   65.9115   75.7696   94.6834 C   0  0  0  0  0  0  0  0  0  0  0  0
   66.0852   74.2543   94.8612 C   0  0  0  0  0  0  0  0  0  0  0  0
   67.3087   73.9025   95.7217 C   0  0  0  0  0  0  0  0  0  0  0  0
   68.6076   74.4158   95.0848 C   0  0  0  0  0  0  0  0  0  0  0  0
   69.5798   72.5539   93.6323 C   0  0  0  0  0  0  0  0  0  0  0  0
   69.6713   73.3127   94.9564 C   0  0  0  0  0  0  0  0  0  0  0  0
   69.7847   75.8102   91.3760 C   0  0  0  0  0  0  0  0  0  0  0  0
   70.7459   75.4948   92.1264 O   0  0  0  0  0  0  0  0  0  0  0  0
   68.9279   74.8199   90.9055 O   0  0  0  0  0  0  0  0  0  0  0  0
   68.2108   75.0475   90.3469 H   0  0  0  0  0  0  0  0  0  0  0  0
 23 24  1  0  0  0
 24 22  1  0  0  0
 22 21  1  0  0  0
 21 20  1  0  0  0
 20 19  1  0  0  0
 19 13  1  0  0  0
 13 14  1  0  0  0
 14 15  2  0  0  0
 14 16  1  0  0  0
 16  1  1  0  0  0
  1  2  1  0  0  0
  2  3  2  0  0  0
  3  6  1  0  0  0
  6  7  2  0  0  0
  7  8  1  0  0  0
  8  9  2  0  0  0
  9 10  1  0  0  0
  9 11  1  0  0  0
 11 12  2  0  0  0
  3  4  1  0  0  0
  4  5  1  0  0  0
  5 25  1  0  0  0
 25 26  2  0  0  0
 25 27  1  0  0  0
  5  1  2  0  0  0
 12  6  1  0  0  0
 13 17  1  0  0  0
 16 18  1  0  0  0
 27 28  1  0  0  0
M  END
> <score>
0.140183

> <minimizedAffinity>
-6.69841

$$$$
HIPS390


 28 29  0  0  0  0  0  0  0  0999 V2000
   68.5957   80.5233   90.0226 C   0  0  0  0  0  0  0  0  0  0  0  0
   68.1225   79.2031   90.1416 C   0  0  0  0  0  0  0  0  0  0  0  0
   69.1270   78.2569   90.3422 C   0  0  0  0  0  0  0  0  0  0  0  0
   70.5999   79.0780   90.3705 S   0  0  0  0  0  0  0  0  0  0  0  0
   69.9862   80.6249   90.1297 C   0  0  0  0  0  0  0  0  0  0  0  0
   68.9512   76.7850   90.4570 C   0  0  0  0  0  0  0  0  0  0  0  0
   67.9905   76.1034   89.6824 C   0  0  0  0  0  0  0  0  0  0  0  0
   67.8476   74.7167   89.7858 C   0  0  0  0  0  0  0  0  0  0  0  0
   68.6543   73.9910   90.6653 C   0  0  0  0  0  0  0  0  0  0  0  0
   68.4722   72.2510   90.7920 Cl  0  0  0  0  0  0  0  0  0  0  0  0
   69.6051   74.6542   91.4447 C   0  0  0  0  0  0  0  0  0  0  0  0
   69.7536   76.0407   91.3434 C   0  0  0  0  0  0  0  0  0  0  0  0
   67.4679   83.6084   88.2264 N   0  0  0  0  0  0  0  0  0  0  0  0
   67.6940   82.2012   88.3821 C   0  0  0  0  0  0  0  0  0  0  0  0
   67.8740   81.4710   87.3693 O   0  0  0  0  0  0  0  0  0  0  0  0
   67.7372   81.6279   89.6940 N   0  0  0  0  0  0  0  0  0  0  0  0
   67.0730   84.1126   88.9741 H   0  0  0  0  0  0  0  0  0  0  0  0
   67.1581   82.0041   90.3957 H   0  0  0  0  0  0  0  0  0  0  0  0
   67.8046   84.3201   86.9932 C   0  0  0  0  0  0  0  0  0  0  0  0
   68.8420   85.4213   87.2559 C   0  0  0  0  0  0  0  0  0  0  0  0
   70.1357   85.2100   86.4541 C   0  0  0  0  0  0  0  0  0  0  0  0
   70.9394   84.0178   86.9919 C   0  0  0  0  0  0  0  0  0  0  0  0
   72.3128   85.9702   87.8996 C   0  0  0  0  0  0  0  0  0  0  0  0
   72.2311   84.4563   87.7018 C   0  0  0  0  0  0  0  0  0  0  0  0
   70.8156   81.8407   90.0836 C   0  0  0  0  0  0  0  0  0  0  0  0
   70.3193   82.9712   90.3329 O   0  0  0  0  0  0  0  0  0  0  0  0
   72.1704   81.7373   89.7831 O   0  0  0  0  0  0  0  0  0  0  0  0
   72.5462   80.8995   89.5967 H   0  0  0  0  0  0  0  0  0  0  0  0
 23 24  1  0  0  0
 24 22  1  0  0  0
 22 21  1  0  0  0
 21 20  1  0  0  0
 20 19  1  0  0  0
 19 13  1  0  0  0
 13 14  1  0  0  0
 14 15  2  0  0  0
 14 16  1  0  0  0
 16  1  1  0  0  0
  1  2  1  0  0  0
  2  3  2  0  0  0
  3  6  1  0  0  0
  6  7  2  0  0  0
  7  8  1  0  0  0
  8  9  2  0  0  0
  9 10  1  0  0  0
  9 11  1  0  0  0
 11 12  2  0  0  0
  3  4  1  0  0  0
  4  5  1  0  0  0
  5 25  1  0  0  0
 25 26  2  0  0  0
 25 27  1  0  0  0
  5  1  2  0  0  0
 12  6  1  0  0  0
 13 17  1  0  0  0
 16 18  1  0  0  0
 27 28  1  0  0  0
M  END
> <score>
0.140183

> <minimizedAffinity>
-6.67303

$$$$
HIPS407


 32 33  0  0  0  0  0  0  0  0999 V2000
   68.1363   79.0409   90.4168 C   0  0  0  0  0  0  0  0  0  0  0  0
   69.0509   79.8382   89.7040 C   0  0  0  0  0  0  0  0  0  0  0  0
   68.9997   81.1919   90.0417 C   0  0  0  0  0  0  0  0  0  0  0  0
   67.8096   81.3798   91.2215 S   0  0  0  0  0  0  0  0  0  0  0  0
   67.3479   79.7657   91.3151 C   0  0  0  0  0  0  0  0  0  0  0  0
   69.8282   82.2869   89.4725 C   0  0  0  0  0  0  0  0  0  0  0  0
   71.1375   82.4934   89.9367 C   0  0  0  0  0  0  0  0  0  0  0  0
   71.9244   83.5168   89.4099 C   0  0  0  0  0  0  0  0  0  0  0  0
   71.4235   84.3567   88.4124 C   0  0  0  0  0  0  0  0  0  0  0  0
   72.4765   85.6279   87.7966 Cl  0  0  0  0  0  0  0  0  0  0  0  0
   70.1088   84.1750   87.9297 C   0  0  0  0  0  0  0  0  0  0  0  0
   69.3224   83.1371   88.4704 C   0  0  0  0  0  0  0  0  0  0  0  0
   69.5509   85.0832   86.8536 C   0  0  0  0  0  0  0  0  0  0  0  0
   69.4778   86.4000   87.2747 F   0  0  0  0  0  0  0  0  0  0  0  0
   70.3632   85.0307   85.7353 F   0  0  0  0  0  0  0  0  0  0  0  0
   68.2769   84.6678   86.5103 F   0  0  0  0  0  0  0  0  0  0  0  0
   68.5464   75.2493   90.5219 N   0  0  0  0  0  0  0  0  0  0  0  0
   68.6347   76.6188   90.9385 C   0  0  0  0  0  0  0  0  0  0  0  0
   69.2663   76.9240   91.9868 O   0  0  0  0  0  0  0  0  0  0  0  0
   67.9720   77.6351   90.1729 N   0  0  0  0  0  0  0  0  0  0  0  0
   68.0441   75.0400   89.7014 H   0  0  0  0  0  0  0  0  0  0  0  0
   67.3739   77.3545   89.4430 H   0  0  0  0  0  0  0  0  0  0  0  0
   69.1679   74.1480   91.2594 C   0  0  0  0  0  0  0  0  0  0  0  0
   68.4365   72.8279   90.9798 C   0  0  0  0  0  0  0  0  0  0  0  0
   67.3840   72.4795   92.0565 C   0  0  0  0  0  0  0  0  0  0  0  0
   67.6197   73.1863   93.4048 C   0  0  0  0  0  0  0  0  0  0  0  0
   66.4294   73.9569   95.5297 C   0  0  0  0  0  0  0  0  0  0  0  0
   66.3723   73.8545   94.0056 C   0  0  0  0  0  0  0  0  0  0  0  0
   66.3305   79.2492   92.2466 C   0  0  0  0  0  0  0  0  0  0  0  0
   65.2248   79.8436   92.3554 O   0  0  0  0  0  0  0  0  0  0  0  0
   66.5844   78.1276   93.0290 O   0  0  0  0  0  0  0  0  0  0  0  0
   67.4041   77.6799   92.9540 H   0  0  0  0  0  0  0  0  0  0  0  0
 27 28  1  0  0  0
 28 26  1  0  0  0
 26 25  1  0  0  0
 25 24  1  0  0  0
 24 23  1  0  0  0
 23 17  1  0  0  0
 17 18  1  0  0  0
 18 19  2  0  0  0
 18 20  1  0  0  0
 20  1  1  0  0  0
  1  2  1  0  0  0
  2  3  2  0  0  0
  3  6  1  0  0  0
  6  7  2  0  0  0
  7  8  1  0  0  0
  8  9  2  0  0  0
  9 10  1  0  0  0
  9 11  1  0  0  0
 11 13  1  0  0  0
 13 14  1  0  0  0
 13 15  1  0  0  0
 13 16  1  0  0  0
 11 12  2  0  0  0
  3  4  1  0  0  0
  4  5  1  0  0  0
  5 29  1  0  0  0
 29 30  2  0  0  0
 29 31  1  0  0  0
  5  1  2  0  0  0
 12  6  1  0  0  0
 17 21  1  0  0  0
 20 22  1  0  0  0
 31 32  1  0  0  0
M  END
> <score>
-0.415373

> <minimizedAffinity>
-7.35650

$$$$
HIPS407


 32 33  0  0  0  0  0  0  0  0999 V2000
   68.9037   78.1639   90.7735 C   0  0  0  0  0  0  0  0  0  0  0  0
   68.5894   79.3852   90.1490 C   0  0  0  0  0  0  0  0  0  0  0  0
   69.7017   80.1897   89.8947 C   0  0  0  0  0  0  0  0  0  0  0  0
   71.0643   79.3709   90.4573 S   0  0  0  0  0  0  0  0  0  0  0  0
   70.2690   78.0032   91.0266 C   0  0  0  0  0  0  0  0  0  0  0  0
   69.7068   81.5306   89.2531 C   0  0  0  0  0  0  0  0  0  0  0  0
   68.5257   82.0506   88.6991 C   0  0  0  0  0  0  0  0  0  0  0  0
   68.5180   83.3073   88.0953 C   0  0  0  0  0  0  0  0  0  0  0  0
   69.6860   84.0708   88.0286 C   0  0  0  0  0  0  0  0  0  0  0  0
   69.5985   85.6486   87.2496 Cl  0  0  0  0  0  0  0  0  0  0  0  0
   70.8892   83.5711   88.5734 C   0  0  0  0  0  0  0  0  0  0  0  0
   70.8847   82.2988   89.1810 C   0  0  0  0  0  0  0  0  0  0  0  0
   72.1642   84.3855   88.5013 C   0  0  0  0  0  0  0  0  0  0  0  0
   73.1075   83.9520   89.4171 F   0  0  0  0  0  0  0  0  0  0  0  0
   72.7104   84.2810   87.2348 F   0  0  0  0  0  0  0  0  0  0  0  0
   71.8823   85.7134   88.7669 F   0  0  0  0  0  0  0  0  0  0  0  0
   66.4166   76.1752   92.8746 N   0  0  0  0  0  0  0  0  0  0  0  0
   67.2795   77.2511   92.4810 C   0  0  0  0  0  0  0  0  0  0  0  0
   67.4650   78.2310   93.2531 O   0  0  0  0  0  0  0  0  0  0  0  0
   67.9037   77.2208   91.1896 N   0  0  0  0  0  0  0  0  0  0  0  0
   66.2877   75.4249   92.2504 H   0  0  0  0  0  0  0  0  0  0  0  0
   67.6327   76.5175   90.5562 H   0  0  0  0  0  0  0  0  0  0  0  0
   65.7186   76.1403   94.1610 C   0  0  0  0  0  0  0  0  0  0  0  0
   65.7663   74.7303   94.7651 C   0  0  0  0  0  0  0  0  0  0  0  0
   66.7146   74.6245   95.9809 C   0  0  0  0  0  0  0  0  0  0  0  0
   67.9922   73.8107   95.7009 C   0  0  0  0  0  0  0  0  0  0  0  0
   69.4031   75.8461   95.0745 C   0  0  0  0  0  0  0  0  0  0  0  0
   68.9441   74.4442   94.6734 C   0  0  0  0  0  0  0  0  0  0  0  0
   70.9482   76.8386   91.6199 C   0  0  0  0  0  0  0  0  0  0  0  0
   72.0884   76.9779   92.1377 O   0  0  0  0  0  0  0  0  0  0  0  0
   70.3583   75.5792   91.5923 O   0  0  0  0  0  0  0  0  0  0  0  0
   69.5106   75.4672   91.2091 H   0  0  0  0  0  0  0  0  0  0  0  0
 27 28  1  0  0  0
 28 26  1  0  0  0
 26 25  1  0  0  0
 25 24  1  0  0  0
 24 23  1  0  0  0
 23 17  1  0  0  0
 17 18  1  0  0  0
 18 19  2  0  0  0
 18 20  1  0  0  0
 20  1  1  0  0  0
  1  2  1  0  0  0
  2  3  2  0  0  0
  3  6  1  0  0  0
  6  7  2  0  0  0
  7  8  1  0  0  0
  8  9  2  0  0  0
  9 10  1  0  0  0
  9 11  1  0  0  0
 11 13  1  0  0  0
 13 14  1  0  0  0
 13 15  1  0  0  0
 13 16  1  0  0  0
 11 12  2  0  0  0
  3  4  1  0  0  0
  4  5  1  0  0  0
  5 29  1  0  0  0
 29 30  2  0  0  0
 29 31  1  0  0  0
  5  1  2  0  0  0
 12  6  1  0  0  0
 17 21  1  0  0  0
 20 22  1  0  0  0
 31 32  1  0  0  0
M  END
> <score>
-0.415373

> <minimizedAffinity>
-7.29594

$$$$
HIPS407


 32 33  0  0  0  0  0  0  0  0999 V2000
   68.7323   76.7536   90.3288 C   0  0  0  0  0  0  0  0  0  0  0  0
   69.3548   75.8963   91.2549 C   0  0  0  0  0  0  0  0  0  0  0  0
   68.9761   74.5588   91.1262 C   0  0  0  0  0  0  0  0  0  0  0  0
   67.8641   74.4615   89.8623 S   0  0  0  0  0  0  0  0  0  0  0  0
   67.8472   76.0963   89.4694 C   0  0  0  0  0  0  0  0  0  0  0  0
   69.4483   73.4133   91.9476 C   0  0  0  0  0  0  0  0  0  0  0  0
   69.7321   73.5943   93.3111 C   0  0  0  0  0  0  0  0  0  0  0  0
   70.1749   72.5274   94.0919 C   0  0  0  0  0  0  0  0  0  0  0  0
   70.3465   71.2595   93.5310 C   0  0  0  0  0  0  0  0  0  0  0  0
   70.9100   69.9611   94.5801 Cl  0  0  0  0  0  0  0  0  0  0  0  0
   70.0730   71.0495   92.1615 C   0  0  0  0  0  0  0  0  0  0  0  0
   69.6262   72.1361   91.3821 C   0  0  0  0  0  0  0  0  0  0  0  0
   70.2618   69.6816   91.5392 C   0  0  0  0  0  0  0  0  0  0  0  0
   71.5438   69.1968   91.7346 F   0  0  0  0  0  0  0  0  0  0  0  0
   69.3701   68.7878   92.1044 F   0  0  0  0  0  0  0  0  0  0  0  0
   70.0305   69.7553   90.1775 F   0  0  0  0  0  0  0  0  0  0  0  0
   70.3298   80.2181   90.3492 N   0  0  0  0  0  0  0  0  0  0  0  0
   70.2043   78.8013   90.1647 C   0  0  0  0  0  0  0  0  0  0  0  0
   71.2067   78.1137   89.8284 O   0  0  0  0  0  0  0  0  0  0  0  0
   68.9236   78.1770   90.3328 N   0  0  0  0  0  0  0  0  0  0  0  0
   69.5299   80.7301   90.6085 H   0  0  0  0  0  0  0  0  0  0  0  0
   68.1355   78.7538   90.4574 H   0  0  0  0  0  0  0  0  0  0  0  0
   71.5915   80.9386   90.1702 C   0  0  0  0  0  0  0  0  0  0  0  0
   71.3302   82.4008   89.7838 C   0  0  0  0  0  0  0  0  0  0  0  0
   72.6249   83.1847   89.4710 C   0  0  0  0  0  0  0  0  0  0  0  0
   72.3914   84.4592   88.6379 C   0  0  0  0  0  0  0  0  0  0  0  0
   70.8193   84.0971   86.6570 C   0  0  0  0  0  0  0  0  0  0  0  0
   70.9639   84.6139   88.0884 C   0  0  0  0  0  0  0  0  0  0  0  0
   67.0677   76.6722   88.3602 C   0  0  0  0  0  0  0  0  0  0  0  0
   66.4696   77.7695   88.5213 O   0  0  0  0  0  0  0  0  0  0  0  0
   66.9605   76.0066   87.1435 O   0  0  0  0  0  0  0  0  0  0  0  0
   67.4021   75.1902   87.0157 H   0  0  0  0  0  0  0  0  0  0  0  0
 27 28  1  0  0  0
 28 26  1  0  0  0
 26 25  1  0  0  0
 25 24  1  0  0  0
 24 23  1  0  0  0
 23 17  1  0  0  0
 17 18  1  0  0  0
 18 19  2  0  0  0
 18 20  1  0  0  0
 20  1  1  0  0  0
  1  2  1  0  0  0
  2  3  2  0  0  0
  3  6  1  0  0  0
  6  7  2  0  0  0
  7  8  1  0  0  0
  8  9  2  0  0  0
  9 10  1  0  0  0
  9 11  1  0  0  0
 11 13  1  0  0  0
 13 14  1  0  0  0
 13 15  1  0  0  0
 13 16  1  0  0  0
 11 12  2  0  0  0
  3  4  1  0  0  0
  4  5  1  0  0  0
  5 29  1  0  0  0
 29 30  2  0  0  0
 29 31  1  0  0  0
  5  1  2  0  0  0
 12  6  1  0  0  0
 17 21  1  0  0  0
 20 22  1  0  0  0
 31 32  1  0  0  0
M  END
> <score>
-0.415373

> <minimizedAffinity>
-7.28204

$$$$
HIPS408


 31 33  0  0  0  0  0  0  0  0999 V2000
   68.9060   80.0523   89.8524 C   0  0  0  0  0  0  0  0  0  0  0  0
   69.2936   78.8025   90.3546 C   0  0  0  0  0  0  0  0  0  0  0  0
   68.5009   77.7481   89.9002 C   0  0  0  0  0  0  0  0  0  0  0  0
   67.3436   78.3894   88.8523 S   0  0  0  0  0  0  0  0  0  0  0  0
   67.8219   79.9964   88.9730 C   0  0  0  0  0  0  0  0  0  0  0  0
   68.6277   76.3169   90.2743 C   0  0  0  0  0  0  0  0  0  0  0  0
   69.5224   75.9078   91.2806 C   0  0  0  0  0  0  0  0  0  0  0  0
   69.6291   74.5594   91.6301 C   0  0  0  0  0  0  0  0  0  0  0  0
   68.8468   73.5976   90.9850 C   0  0  0  0  0  0  0  0  0  0  0  0
   69.0107   71.9109   91.4543 Cl  0  0  0  0  0  0  0  0  0  0  0  0
   67.9474   73.9915   89.9820 C   0  0  0  0  0  0  0  0  0  0  0  0
   66.9438   72.8139   89.1459 Cl  0  0  0  0  0  0  0  0  0  0  0  0
   67.8400   75.3429   89.6329 C   0  0  0  0  0  0  0  0  0  0  0  0
   71.7066   80.4087   89.9468 O   0  0  0  0  0  0  0  0  0  0  0  0
   70.9758   81.4130   90.1692 C   0  0  0  0  0  0  0  0  0  0  0  0
   71.5607   82.7182   90.2726 N   0  0  0  0  0  0  0  0  0  0  0  0
   69.5534   81.2614   90.2627 N   0  0  0  0  0  0  0  0  0  0  0  0
   71.0566   83.4324   90.7254 H   0  0  0  0  0  0  0  0  0  0  0  0
   69.0111   82.0033   90.6159 H   0  0  0  0  0  0  0  0  0  0  0  0
   72.8835   83.0214   89.7261 C   0  0  0  0  0  0  0  0  0  0  0  0
   72.9158   84.4332   89.1264 C   0  0  0  0  0  0  0  0  0  0  0  0
   71.6888   84.7176   88.2966 C   0  0  0  0  0  0  0  0  0  0  0  0
   71.3792   83.9121   87.1866 C   0  0  0  0  0  0  0  0  0  0  0  0
   70.2788   84.2164   86.3799 C   0  0  0  0  0  0  0  0  0  0  0  0
   69.4859   85.3302   86.6675 C   0  0  0  0  0  0  0  0  0  0  0  0
   69.7877   86.1373   87.7679 C   0  0  0  0  0  0  0  0  0  0  0  0
   70.8848   85.8341   88.5807 C   0  0  0  0  0  0  0  0  0  0  0  0
   67.2202   81.1002   88.2082 C   0  0  0  0  0  0  0  0  0  0  0  0
   66.1659   80.9211   87.5423 O   0  0  0  0  0  0  0  0  0  0  0  0
   67.8084   82.3608   88.2393 O   0  0  0  0  0  0  0  0  0  0  0  0
   68.5926   82.4998   88.7330 H   0  0  0  0  0  0  0  0  0  0  0  0
 14 15  2  0  0  0
 15 16  1  0  0  0
 16 20  1  0  0  0
 20 21  1  0  0  0
 21 22  1  0  0  0
 22 23  2  0  0  0
 23 24  1  0  0  0
 24 25  2  0  0  0
 25 26  1  0  0  0
 26 27  2  0  0  0
 15 17  1  0  0  0
 17  1  1  0  0  0
  1  2  1  0  0  0
  2  3  2  0  0  0
  3  6  1  0  0  0
  6  7  2  0  0  0
  7  8  1  0  0  0
  8  9  2  0  0  0
  9 10  1  0  0  0
  9 11  1  0  0  0
 11 12  1  0  0  0
 11 13  2  0  0  0
  3  4  1  0  0  0
  4  5  1  0  0  0
  5 28  1  0  0  0
 28 29  2  0  0  0
 28 30  1  0  0  0
 27 22  1  0  0  0
  5  1  2  0  0  0
 13  6  1  0  0  0
 16 18  1  0  0  0
 17 19  1  0  0  0
 30 31  1  0  0  0
M  END
> <score>
-0.565669

> <minimizedAffinity>
-8.34746

$$$$
HIPS408


 31 33  0  0  0  0  0  0  0  0999 V2000
   69.4710   78.1047   90.5892 C   0  0  0  0  0  0  0  0  0  0  0  0
   70.4045   79.0646   90.1748 C   0  0  0  0  0  0  0  0  0  0  0  0
   69.8927   80.3620   90.1391 C   0  0  0  0  0  0  0  0  0  0  0  0
   68.2870   80.2957   90.6550 S   0  0  0  0  0  0  0  0  0  0  0  0
   68.2203   78.6360   90.9135 C   0  0  0  0  0  0  0  0  0  0  0  0
   70.6115   81.5885   89.7108 C   0  0  0  0  0  0  0  0  0  0  0  0
   71.8903   81.8915   90.2140 C   0  0  0  0  0  0  0  0  0  0  0  0
   72.5614   83.0445   89.7993 C   0  0  0  0  0  0  0  0  0  0  0  0
   71.9714   83.9128   88.8768 C   0  0  0  0  0  0  0  0  0  0  0  0
   72.8490   85.3533   88.3801 Cl  0  0  0  0  0  0  0  0  0  0  0  0
   70.6979   83.6214   88.3635 C   0  0  0  0  0  0  0  0  0  0  0  0
   69.9198   84.6867   87.2003 Cl  0  0  0  0  0  0  0  0  0  0  0  0
   70.0263   82.4654   88.7785 C   0  0  0  0  0  0  0  0  0  0  0  0
   70.3898   76.7267   92.8774 O   0  0  0  0  0  0  0  0  0  0  0  0
   70.1328   76.0497   91.8440 C   0  0  0  0  0  0  0  0  0  0  0  0
   70.1276   74.6171   91.9068 N   0  0  0  0  0  0  0  0  0  0  0  0
   69.7896   76.7094   90.6185 N   0  0  0  0  0  0  0  0  0  0  0  0
   70.2207   74.1027   91.0726 H   0  0  0  0  0  0  0  0  0  0  0  0
   69.7726   76.1928   89.7806 H   0  0  0  0  0  0  0  0  0  0  0  0
   69.9883   73.8962   93.1722 C   0  0  0  0  0  0  0  0  0  0  0  0
   68.6273   73.1923   93.2524 C   0  0  0  0  0  0  0  0  0  0  0  0
   67.6463   73.9644   94.0989 C   0  0  0  0  0  0  0  0  0  0  0  0
   67.6666   73.8428   95.4994 C   0  0  0  0  0  0  0  0  0  0  0  0
   66.7149   74.5075   96.2784 C   0  0  0  0  0  0  0  0  0  0  0  0
   65.7313   75.2890   95.6672 C   0  0  0  0  0  0  0  0  0  0  0  0
   65.7028   75.4137   94.2755 C   0  0  0  0  0  0  0  0  0  0  0  0
   66.6557   74.7545   93.4922 C   0  0  0  0  0  0  0  0  0  0  0  0
   67.0509   77.9280   91.4581 C   0  0  0  0  0  0  0  0  0  0  0  0
   66.6962   76.8150   90.9864 O   0  0  0  0  0  0  0  0  0  0  0  0
   66.3433   78.4821   92.5203 O   0  0  0  0  0  0  0  0  0  0  0  0
   66.6026   79.3096   92.8752 H   0  0  0  0  0  0  0  0  0  0  0  0
 14 15  2  0  0  0
 15 16  1  0  0  0
 16 20  1  0  0  0
 20 21  1  0  0  0
 21 22  1  0  0  0
 22 23  2  0  0  0
 23 24  1  0  0  0
 24 25  2  0  0  0
 25 26  1  0  0  0
 26 27  2  0  0  0
 15 17  1  0  0  0
 17  1  1  0  0  0
  1  2  1  0  0  0
  2  3  2  0  0  0
  3  6  1  0  0  0
  6  7  2  0  0  0
  7  8  1  0  0  0
  8  9  2  0  0  0
  9 10  1  0  0  0
  9 11  1  0  0  0
 11 12  1  0  0  0
 11 13  2  0  0  0
  3  4  1  0  0  0
  4  5  1  0  0  0
  5 28  1  0  0  0
 28 29  2  0  0  0
 28 30  1  0  0  0
 27 22  1  0  0  0
  5  1  2  0  0  0
 13  6  1  0  0  0
 16 18  1  0  0  0
 17 19  1  0  0  0
 30 31  1  0  0  0
M  END
> <score>
-0.565669

> <minimizedAffinity>
-8.07305

$$$$
HIPS408


 31 33  0  0  0  0  0  0  0  0999 V2000
   68.0926   76.3473   90.8269 C   0  0  0  0  0  0  0  0  0  0  0  0
   68.7942   75.5085   91.7036 C   0  0  0  0  0  0  0  0  0  0  0  0
   68.7800   74.1663   91.3232 C   0  0  0  0  0  0  0  0  0  0  0  0
   67.9148   74.0504   89.8787 S   0  0  0  0  0  0  0  0  0  0  0  0
   67.5412   75.6824   89.7289 C   0  0  0  0  0  0  0  0  0  0  0  0
   69.3951   73.0298   92.0544 C   0  0  0  0  0  0  0  0  0  0  0  0
   69.8846   73.1910   93.3639 C   0  0  0  0  0  0  0  0  0  0  0  0
   70.4552   72.1134   94.0459 C   0  0  0  0  0  0  0  0  0  0  0  0
   70.5463   70.8591   93.4365 C   0  0  0  0  0  0  0  0  0  0  0  0
   71.2710   69.5284   94.3289 Cl  0  0  0  0  0  0  0  0  0  0  0  0
   70.0586   70.6826   92.1322 C   0  0  0  0  0  0  0  0  0  0  0  0
   70.1527   69.1209   91.3289 Cl  0  0  0  0  0  0  0  0  0  0  0  0
   69.4860   71.7623   91.4495 C   0  0  0  0  0  0  0  0  0  0  0  0
   69.9753   78.3279   90.1114 O   0  0  0  0  0  0  0  0  0  0  0  0
   68.8712   78.7081   90.5896 C   0  0  0  0  0  0  0  0  0  0  0  0
   68.5265   80.1000   90.5823 N   0  0  0  0  0  0  0  0  0  0  0  0
   67.9338   77.7455   91.0894 N   0  0  0  0  0  0  0  0  0  0  0  0
   67.8299   80.4221   91.1989 H   0  0  0  0  0  0  0  0  0  0  0  0
   67.1658   78.0521   91.6236 H   0  0  0  0  0  0  0  0  0  0  0  0
   69.1779   81.0563   89.6870 C   0  0  0  0  0  0  0  0  0  0  0  0
   70.4090   81.6801   90.3573 C   0  0  0  0  0  0  0  0  0  0  0  0
   71.1303   82.6284   89.4323 C   0  0  0  0  0  0  0  0  0  0  0  0
   72.4155   83.0974   89.7566 C   0  0  0  0  0  0  0  0  0  0  0  0
   73.0554   84.0270   88.9315 C   0  0  0  0  0  0  0  0  0  0  0  0
   72.4157   84.5027   87.7842 C   0  0  0  0  0  0  0  0  0  0  0  0
   71.1374   84.0432   87.4555 C   0  0  0  0  0  0  0  0  0  0  0  0
   70.4951   83.1095   88.2753 C   0  0  0  0  0  0  0  0  0  0  0  0
   66.8229   76.2670   88.5853 C   0  0  0  0  0  0  0  0  0  0  0  0
   66.0798   77.2727   88.7390 O   0  0  0  0  0  0  0  0  0  0  0  0
   66.9840   75.7180   87.3170 O   0  0  0  0  0  0  0  0  0  0  0  0
   67.5355   74.9700   87.1968 H   0  0  0  0  0  0  0  0  0  0  0  0
 14 15  2  0  0  0
 15 16  1  0  0  0
 16 20  1  0  0  0
 20 21  1  0  0  0
 21 22  1  0  0  0
 22 23  2  0  0  0
 23 24  1  0  0  0
 24 25  2  0  0  0
 25 26  1  0  0  0
 26 27  2  0  0  0
 15 17  1  0  0  0
 17  1  1  0  0  0
  1  2  1  0  0  0
  2  3  2  0  0  0
  3  6  1  0  0  0
  6  7  2  0  0  0
  7  8  1  0  0  0
  8  9  2  0  0  0
  9 10  1  0  0  0
  9 11  1  0  0  0
 11 12  1  0  0  0
 11 13  2  0  0  0
  3  4  1  0  0  0
  4  5  1  0  0  0
  5 28  1  0  0  0
 28 29  2  0  0  0
 28 30  1  0  0  0
 27 22  1  0  0  0
  5  1  2  0  0  0
 13  6  1  0  0  0
 16 18  1  0  0  0
 17 19  1  0  0  0
 30 31  1  0  0  0
M  END
> <score>
-0.565669

> <minimizedAffinity>
-8.06237

$$$$
HIPS410


 30 31  0  0  0  0  0  0  0  0999 V2000
   68.6229   79.5876   89.7957 C   0  0  0  0  0  0  0  0  0  0  0  0
   68.9049   78.2928   90.2518 C   0  0  0  0  0  0  0  0  0  0  0  0
   68.1298   77.3056   89.6432 C   0  0  0  0  0  0  0  0  0  0  0  0
   67.1219   78.0621   88.5202 S   0  0  0  0  0  0  0  0  0  0  0  0
   67.6430   79.6357   88.8008 C   0  0  0  0  0  0  0  0  0  0  0  0
   71.2788   82.1833   90.5281 N   0  0  0  0  0  0  0  0  0  0  0  0
   70.6963   80.8969   90.2768 C   0  0  0  0  0  0  0  0  0  0  0  0
   71.4282   79.9220   89.9516 O   0  0  0  0  0  0  0  0  0  0  0  0
   69.2733   80.7370   90.3477 N   0  0  0  0  0  0  0  0  0  0  0  0
   70.7423   82.8619   90.9981 H   0  0  0  0  0  0  0  0  0  0  0  0
   68.7318   81.4328   90.7856 H   0  0  0  0  0  0  0  0  0  0  0  0
   72.6382   82.5262   90.1136 C   0  0  0  0  0  0  0  0  0  0  0  0
   72.6398   83.7041   89.1264 C   0  0  0  0  0  0  0  0  0  0  0  0
   71.2239   84.1747   88.7347 C   0  0  0  0  0  0  0  0  0  0  0  0
   70.8826   83.8493   87.2682 C   0  0  0  0  0  0  0  0  0  0  0  0
   69.3935   85.9194   87.2061 C   0  0  0  0  0  0  0  0  0  0  0  0
   70.4452   85.0886   86.4731 C   0  0  0  0  0  0  0  0  0  0  0  0
   68.1631   75.8496   89.9313 C   0  0  0  0  0  0  0  0  0  0  0  0
   67.4001   74.9462   89.1695 C   0  0  0  0  0  0  0  0  0  0  0  0
   67.4416   73.5782   89.4432 C   0  0  0  0  0  0  0  0  0  0  0  0
   68.2431   73.0909   90.4759 C   0  0  0  0  0  0  0  0  0  0  0  0
   69.0190   73.9708   91.2499 C   0  0  0  0  0  0  0  0  0  0  0  0
   68.9732   75.3485   90.9681 C   0  0  0  0  0  0  0  0  0  0  0  0
   69.8485   73.4723   92.3160 N   0  0  0  0  0  0  0  0  0  0  0  0
   70.2366   72.2856   92.3192 O   0  0  0  0  0  0  0  0  0  0  0  0
   70.2292   74.2961   93.3507 O   0  0  0  0  0  0  0  0  0  0  0  0
   67.1753   80.8106   88.0483 C   0  0  0  0  0  0  0  0  0  0  0  0
   67.9515   81.7746   87.8140 O   0  0  0  0  0  0  0  0  0  0  0  0
   65.8692   80.8471   87.5703 O   0  0  0  0  0  0  0  0  0  0  0  0
   65.2874   80.1327   87.7416 H   0  0  0  0  0  0  0  0  0  0  0  0
 16 17  1  0  0  0
 17 15  1  0  0  0
 15 14  1  0  0  0
 14 13  1  0  0  0
 13 12  1  0  0  0
 12  6  1  0  0  0
  6  7  1  0  0  0
  7  8  2  0  0  0
  7  9  1  0  0  0
  9  1  1  0  0  0
  1  2  1  0  0  0
  2  3  2  0  0  0
  3 18  1  0  0  0
 18 19  2  0  0  0
 19 20  1  0  0  0
 20 21  2  0  0  0
 21 22  1  0  0  0
 22 24  1  0  0  0
 24 25  2  0  0  0
 24 26  1  0  0  0
 22 23  2  0  0  0
  3  4  1  0  0  0
  4  5  1  0  0  0
  5 27  1  0  0  0
 27 28  2  0  0  0
 27 29  1  0  0  0
  5  1  2  0  0  0
 23 18  1  0  0  0
  6 10  1  0  0  0
  9 11  1  0  0  0
 29 30  1  0  0  0
M  CHG 1  24   1
M  CHG 1  26  -1
M  END
> <score>
-0.291397

> <minimizedAffinity>
-7.28344

$$$$
HIPS410


 30 31  0  0  0  0  0  0  0  0999 V2000
   68.6396   74.4358   90.9783 C   0  0  0  0  0  0  0  0  0  0  0  0
   68.7502   75.6822   90.3471 C   0  0  0  0  0  0  0  0  0  0  0  0
   69.4204   76.6374   91.1115 C   0  0  0  0  0  0  0  0  0  0  0  0
   69.8927   75.9018   92.5556 S   0  0  0  0  0  0  0  0  0  0  0  0
   69.2466   74.3830   92.2356 C   0  0  0  0  0  0  0  0  0  0  0  0
   66.8540   72.3338   88.3858 N   0  0  0  0  0  0  0  0  0  0  0  0
   67.2608   73.4990   89.1166 C   0  0  0  0  0  0  0  0  0  0  0  0
   67.0704   74.6489   88.6335 O   0  0  0  0  0  0  0  0  0  0  0  0
   67.9304   73.3485   90.3753 N   0  0  0  0  0  0  0  0  0  0  0  0
   66.7941   71.4740   88.8616 H   0  0  0  0  0  0  0  0  0  0  0  0
   67.9019   72.4784   90.8349 H   0  0  0  0  0  0  0  0  0  0  0  0
   66.5249   72.3729   86.9619 C   0  0  0  0  0  0  0  0  0  0  0  0
   67.1898   71.2131   86.2038 C   0  0  0  0  0  0  0  0  0  0  0  0
   67.0566   71.3290   84.6714 C   0  0  0  0  0  0  0  0  0  0  0  0
   66.4832   70.0491   84.0342 C   0  0  0  0  0  0  0  0  0  0  0  0
   64.0746   70.5360   83.3503 C   0  0  0  0  0  0  0  0  0  0  0  0
   65.5150   70.3452   82.8790 C   0  0  0  0  0  0  0  0  0  0  0  0
   69.6684   78.0536   90.7418 C   0  0  0  0  0  0  0  0  0  0  0  0
   70.9773   78.5275   90.5396 C   0  0  0  0  0  0  0  0  0  0  0  0
   71.2014   79.8591   90.1865 C   0  0  0  0  0  0  0  0  0  0  0  0
   70.1276   80.7356   90.0282 C   0  0  0  0  0  0  0  0  0  0  0  0
   68.8093   80.2876   90.2198 C   0  0  0  0  0  0  0  0  0  0  0  0
   68.5904   78.9438   90.5748 C   0  0  0  0  0  0  0  0  0  0  0  0
   67.6980   81.1884   90.0565 N   0  0  0  0  0  0  0  0  0  0  0  0
   66.5911   80.7687   89.6596 O   0  0  0  0  0  0  0  0  0  0  0  0
   67.8362   82.5289   90.3361 O   0  0  0  0  0  0  0  0  0  0  0  0
   69.3922   73.2168   93.1212 C   0  0  0  0  0  0  0  0  0  0  0  0
   68.4639   72.3722   93.2298 O   0  0  0  0  0  0  0  0  0  0  0  0
   70.5763   73.0324   93.8282 O   0  0  0  0  0  0  0  0  0  0  0  0
   71.2701   73.6574   93.7512 H   0  0  0  0  0  0  0  0  0  0  0  0
 16 17  1  0  0  0
 17 15  1  0  0  0
 15 14  1  0  0  0
 14 13  1  0  0  0
 13 12  1  0  0  0
 12  6  1  0  0  0
  6  7  1  0  0  0
  7  8  2  0  0  0
  7  9  1  0  0  0
  9  1  1  0  0  0
  1  2  1  0  0  0
  2  3  2  0  0  0
  3 18  1  0  0  0
 18 19  2  0  0  0
 19 20  1  0  0  0
 20 21  2  0  0  0
 21 22  1  0  0  0
 22 24  1  0  0  0
 24 25  2  0  0  0
 24 26  1  0  0  0
 22 23  2  0  0  0
  3  4  1  0  0  0
  4  5  1  0  0  0
  5 27  1  0  0  0
 27 28  2  0  0  0
 27 29  1  0  0  0
  5  1  2  0  0  0
 23 18  1  0  0  0
  6 10  1  0  0  0
  9 11  1  0  0  0
 29 30  1  0  0  0
M  CHG 1  24   1
M  CHG 1  26  -1
M  END
> <score>
-0.291397

> <minimizedAffinity>
-7.17179

$$$$
HIPS410


 30 31  0  0  0  0  0  0  0  0999 V2000
   67.6972   78.0175   90.0687 C   0  0  0  0  0  0  0  0  0  0  0  0
   68.1763   77.0709   90.9844 C   0  0  0  0  0  0  0  0  0  0  0  0
   68.0166   75.7521   90.5589 C   0  0  0  0  0  0  0  0  0  0  0  0
   67.3051   75.7878   89.0286 S   0  0  0  0  0  0  0  0  0  0  0  0
   67.1807   77.4592   88.8967 C   0  0  0  0  0  0  0  0  0  0  0  0
   68.7691   81.6477   90.0815 N   0  0  0  0  0  0  0  0  0  0  0  0
   68.8810   80.2179   90.1020 C   0  0  0  0  0  0  0  0  0  0  0  0
   69.9875   79.6649   89.8530 O   0  0  0  0  0  0  0  0  0  0  0  0
   67.7181   79.4193   90.3570 N   0  0  0  0  0  0  0  0  0  0  0  0
   67.9808   82.0665   90.4968 H   0  0  0  0  0  0  0  0  0  0  0  0
   66.9163   79.8443   90.7388 H   0  0  0  0  0  0  0  0  0  0  0  0
   69.7798   82.5075   89.4678 C   0  0  0  0  0  0  0  0  0  0  0  0
   70.9043   82.8423   90.4605 C   0  0  0  0  0  0  0  0  0  0  0  0
   72.3051   82.4403   89.9549 C   0  0  0  0  0  0  0  0  0  0  0  0
   73.1247   83.6523   89.4729 C   0  0  0  0  0  0  0  0  0  0  0  0
   72.2175   85.6249   88.1343 C   0  0  0  0  0  0  0  0  0  0  0  0
   72.6694   84.1662   88.0988 C   0  0  0  0  0  0  0  0  0  0  0  0
   68.3870   74.5270   91.3112 C   0  0  0  0  0  0  0  0  0  0  0  0
   68.5821   73.3033   90.6455 C   0  0  0  0  0  0  0  0  0  0  0  0
   68.9358   72.1575   91.3596 C   0  0  0  0  0  0  0  0  0  0  0  0
   69.1017   72.2139   92.7437 C   0  0  0  0  0  0  0  0  0  0  0  0
   68.9173   73.4244   93.4335 C   0  0  0  0  0  0  0  0  0  0  0  0
   68.5617   74.5759   92.7074 C   0  0  0  0  0  0  0  0  0  0  0  0
   69.0885   73.4876   94.8617 N   0  0  0  0  0  0  0  0  0  0  0  0
   70.1885   73.8087   95.3576 O   0  0  0  0  0  0  0  0  0  0  0  0
   68.0416   73.1958   95.7061 O   0  0  0  0  0  0  0  0  0  0  0  0
   66.6823   78.1619   87.7036 C   0  0  0  0  0  0  0  0  0  0  0  0
   66.5127   79.4101   87.7167 O   0  0  0  0  0  0  0  0  0  0  0  0
   66.4179   77.4438   86.5416 O   0  0  0  0  0  0  0  0  0  0  0  0
   66.5423   76.5152   86.5262 H   0  0  0  0  0  0  0  0  0  0  0  0
 16 17  1  0  0  0
 17 15  1  0  0  0
 15 14  1  0  0  0
 14 13  1  0  0  0
 13 12  1  0  0  0
 12  6  1  0  0  0
  6  7  1  0  0  0
  7  8  2  0  0  0
  7  9  1  0  0  0
  9  1  1  0  0  0
  1  2  1  0  0  0
  2  3  2  0  0  0
  3 18  1  0  0  0
 18 19  2  0  0  0
 19 20  1  0  0  0
 20 21  2  0  0  0
 21 22  1  0  0  0
 22 24  1  0  0  0
 24 25  2  0  0  0
 24 26  1  0  0  0
 22 23  2  0  0  0
  3  4  1  0  0  0
  4  5  1  0  0  0
  5 27  1  0  0  0
 27 28  2  0  0  0
 27 29  1  0  0  0
  5  1  2  0  0  0
 23 18  1  0  0  0
  6 10  1  0  0  0
  9 11  1  0  0  0
 29 30  1  0  0  0
M  CHG 1  24   1
M  CHG 1  26  -1
M  END
> <score>
-0.291397

> <minimizedAffinity>
-6.97230

$$$$
HIPS412


 29 30  0  0  0  0  0  0  0  0999 V2000
   68.5730   79.9554   90.2998 C   0  0  0  0  0  0  0  0  0  0  0  0
   68.9517   78.6224   90.0650 C   0  0  0  0  0  0  0  0  0  0  0  0
   68.1951   77.6919   90.7688 C   0  0  0  0  0  0  0  0  0  0  0  0
   67.0681   78.5298   91.6986 S   0  0  0  0  0  0  0  0  0  0  0  0
   67.5080   80.0777   91.1989 C   0  0  0  0  0  0  0  0  0  0  0  0
   68.4199   76.2292   90.7631 C   0  0  0  0  0  0  0  0  0  0  0  0
   67.6476   75.4314   89.8992 C   0  0  0  0  0  0  0  0  0  0  0  0
   67.8195   74.0451   89.8640 C   0  0  0  0  0  0  0  0  0  0  0  0
   66.8438   73.0684   88.7824 Cl  0  0  0  0  0  0  0  0  0  0  0  0
   68.7675   73.4386   90.6900 C   0  0  0  0  0  0  0  0  0  0  0  0
   69.5363   74.2151   91.5586 C   0  0  0  0  0  0  0  0  0  0  0  0
   69.3687   75.6051   91.6071 C   0  0  0  0  0  0  0  0  0  0  0  0
   70.3058   76.4991   92.7994 Cl  0  0  0  0  0  0  0  0  0  0  0  0
   68.9124   83.1306   88.2594 N   0  0  0  0  0  0  0  0  0  0  0  0
   68.4791   81.8042   88.5890 C   0  0  0  0  0  0  0  0  0  0  0  0
   67.5026   81.2863   87.9810 O   0  0  0  0  0  0  0  0  0  0  0  0
   69.1674   81.0639   89.6065 N   0  0  0  0  0  0  0  0  0  0  0  0
   69.7420   83.4693   88.6673 H   0  0  0  0  0  0  0  0  0  0  0  0
   70.0870   81.3269   89.8397 H   0  0  0  0  0  0  0  0  0  0  0  0
   68.1770   84.0035   87.3440 C   0  0  0  0  0  0  0  0  0  0  0  0
   69.1376   84.9061   86.5551 C   0  0  0  0  0  0  0  0  0  0  0  0
   70.6252   84.5784   86.7769 C   0  0  0  0  0  0  0  0  0  0  0  0
   71.3167   85.5799   87.7185 C   0  0  0  0  0  0  0  0  0  0  0  0
   72.4168   83.7120   89.0630 C   0  0  0  0  0  0  0  0  0  0  0  0
   72.6225   85.0261   88.3107 C   0  0  0  0  0  0  0  0  0  0  0  0
   66.8868   81.3150   91.7009 C   0  0  0  0  0  0  0  0  0  0  0  0
   65.8604   81.7735   91.1317 O   0  0  0  0  0  0  0  0  0  0  0  0
   67.4048   81.9726   92.8116 O   0  0  0  0  0  0  0  0  0  0  0  0
   68.1678   81.6381   93.2405 H   0  0  0  0  0  0  0  0  0  0  0  0
 24 25  1  0  0  0
 25 23  1  0  0  0
 23 22  1  0  0  0
 22 21  1  0  0  0
 21 20  1  0  0  0
 20 14  1  0  0  0
 14 15  1  0  0  0
 15 16  2  0  0  0
 15 17  1  0  0  0
 17  1  1  0  0  0
  1  2  1  0  0  0
  2  3  2  0  0  0
  3  6  1  0  0  0
  6  7  2  0  0  0
  7  8  1  0  0  0
  8  9  1  0  0  0
  8 10  2  0  0  0
 10 11  1  0  0  0
 11 12  2  0  0  0
 12 13  1  0  0  0
  3  4  1  0  0  0
  4  5  1  0  0  0
  5 26  1  0  0  0
 26 27  2  0  0  0
 26 28  1  0  0  0
  5  1  2  0  0  0
 12  6  1  0  0  0
 14 18  1  0  0  0
 17 19  1  0  0  0
 28 29  1  0  0  0
M  END
> <score>
-0.60433

> <minimizedAffinity>
-6.92252

$$$$
HIPS412


 29 30  0  0  0  0  0  0  0  0999 V2000
   68.2492   79.8180   90.0338 C   0  0  0  0  0  0  0  0  0  0  0  0
   68.7008   78.4991   89.8553 C   0  0  0  0  0  0  0  0  0  0  0  0
   68.0747   77.5747   90.6842 C   0  0  0  0  0  0  0  0  0  0  0  0
   66.9735   78.4025   91.6532 S   0  0  0  0  0  0  0  0  0  0  0  0
   67.2581   79.9355   91.0142 C   0  0  0  0  0  0  0  0  0  0  0  0
   68.4019   76.1333   90.7559 C   0  0  0  0  0  0  0  0  0  0  0  0
   67.6866   75.2378   89.9401 C   0  0  0  0  0  0  0  0  0  0  0  0
   67.9557   73.8671   89.9784 C   0  0  0  0  0  0  0  0  0  0  0  0
   67.0496   72.7674   88.9558 Cl  0  0  0  0  0  0  0  0  0  0  0  0
   68.9452   73.3741   90.8309 C   0  0  0  0  0  0  0  0  0  0  0  0
   69.6585   74.2484   91.6526 C   0  0  0  0  0  0  0  0  0  0  0  0
   69.3934   75.6238   91.6273 C   0  0  0  0  0  0  0  0  0  0  0  0
   70.2669   76.6443   92.7650 Cl  0  0  0  0  0  0  0  0  0  0  0  0
   70.4442   82.5845   88.6593 N   0  0  0  0  0  0  0  0  0  0  0  0
   69.7255   81.8225   89.6384 C   0  0  0  0  0  0  0  0  0  0  0  0
   69.9851   81.9603   90.8653 O   0  0  0  0  0  0  0  0  0  0  0  0
   68.7023   80.9097   89.2178 N   0  0  0  0  0  0  0  0  0  0  0  0
   70.1487   82.5424   87.7211 H   0  0  0  0  0  0  0  0  0  0  0  0
   68.2929   81.0370   88.3316 H   0  0  0  0  0  0  0  0  0  0  0  0
   71.5969   83.4219   88.9919 C   0  0  0  0  0  0  0  0  0  0  0  0
   71.9293   84.3818   87.8395 C   0  0  0  0  0  0  0  0  0  0  0  0
   70.8312   84.4694   86.7643 C   0  0  0  0  0  0  0  0  0  0  0  0
   69.9505   85.7216   86.9201 C   0  0  0  0  0  0  0  0  0  0  0  0
   67.7660   84.4088   87.0260 C   0  0  0  0  0  0  0  0  0  0  0  0
   68.6620   85.4407   87.7097 C   0  0  0  0  0  0  0  0  0  0  0  0
   66.5949   81.1628   91.4862 C   0  0  0  0  0  0  0  0  0  0  0  0
   65.3551   81.3078   91.3144 O   0  0  0  0  0  0  0  0  0  0  0  0
   67.3158   82.1554   92.1416 O   0  0  0  0  0  0  0  0  0  0  0  0
   68.2381   82.0551   92.2732 H   0  0  0  0  0  0  0  0  0  0  0  0
 24 25  1  0  0  0
 25 23  1  0  0  0
 23 22  1  0  0  0
 22 21  1  0  0  0
 21 20  1  0  0  0
 20 14  1  0  0  0
 14 15  1  0  0  0
 15 16  2  0  0  0
 15 17  1  0  0  0
 17  1  1  0  0  0
  1  2  1  0  0  0
  2  3  2  0  0  0
  3  6  1  0  0  0
  6  7  2  0  0  0
  7  8  1  0  0  0
  8  9  1  0  0  0
  8 10  2  0  0  0
 10 11  1  0  0  0
 11 12  2  0  0  0
 12 13  1  0  0  0
  3  4  1  0  0  0
  4  5  1  0  0  0
  5 26  1  0  0  0
 26 27  2  0  0  0
 26 28  1  0  0  0
  5  1  2  0  0  0
 12  6  1  0  0  0
 14 18  1  0  0  0
 17 19  1  0  0  0
 28 29  1  0  0  0
M  END
> <score>
-0.60433

> <minimizedAffinity>
-6.89749

$$$$
HIPS412


 29 30  0  0  0  0  0  0  0  0999 V2000
   68.9745   77.9072   89.8575 C   0  0  0  0  0  0  0  0  0  0  0  0
   68.8967   77.0459   90.9654 C   0  0  0  0  0  0  0  0  0  0  0  0
   67.7866   76.2089   90.9484 C   0  0  0  0  0  0  0  0  0  0  0  0
   66.8913   76.5552   89.5645 S   0  0  0  0  0  0  0  0  0  0  0  0
   67.9143   77.7491   88.9584 C   0  0  0  0  0  0  0  0  0  0  0  0
   67.4210   75.2540   92.0183 C   0  0  0  0  0  0  0  0  0  0  0  0
   66.7773   75.7444   93.1691 C   0  0  0  0  0  0  0  0  0  0  0  0
   66.4192   74.8818   94.2086 C   0  0  0  0  0  0  0  0  0  0  0  0
   65.6208   75.5143   95.6363 Cl  0  0  0  0  0  0  0  0  0  0  0  0
   66.6975   73.5174   94.1098 C   0  0  0  0  0  0  0  0  0  0  0  0
   67.3428   73.0161   92.9782 C   0  0  0  0  0  0  0  0  0  0  0  0
   67.7120   73.8720   91.9324 C   0  0  0  0  0  0  0  0  0  0  0  0
   68.6096   73.1769   90.5871 Cl  0  0  0  0  0  0  0  0  0  0  0  0
   71.3409   80.8424   90.2395 N   0  0  0  0  0  0  0  0  0  0  0  0
   70.0932   80.1558   90.0730 C   0  0  0  0  0  0  0  0  0  0  0  0
   69.0052   80.7529   90.2994 O   0  0  0  0  0  0  0  0  0  0  0  0
   70.0866   78.7892   89.6377 N   0  0  0  0  0  0  0  0  0  0  0  0
   72.1675   80.3922   89.9509 H   0  0  0  0  0  0  0  0  0  0  0  0
   70.8785   78.4406   89.1679 H   0  0  0  0  0  0  0  0  0  0  0  0
   71.4407   82.1820   90.8191 C   0  0  0  0  0  0  0  0  0  0  0  0
   71.2910   83.2615   89.7364 C   0  0  0  0  0  0  0  0  0  0  0  0
   72.6268   83.7205   89.1244 C   0  0  0  0  0  0  0  0  0  0  0  0
   72.4484   84.3865   87.7487 C   0  0  0  0  0  0  0  0  0  0  0  0
   70.3376   85.1173   86.5169 C   0  0  0  0  0  0  0  0  0  0  0  0
   71.1589   83.9402   87.0413 C   0  0  0  0  0  0  0  0  0  0  0  0
   67.6569   78.5074   87.7224 C   0  0  0  0  0  0  0  0  0  0  0  0
   67.6003   77.9017   86.6190 O   0  0  0  0  0  0  0  0  0  0  0  0
   67.4513   79.8825   87.7598 O   0  0  0  0  0  0  0  0  0  0  0  0
   67.4918   80.3402   88.5764 H   0  0  0  0  0  0  0  0  0  0  0  0
 24 25  1  0  0  0
 25 23  1  0  0  0
 23 22  1  0  0  0
 22 21  1  0  0  0
 21 20  1  0  0  0
 20 14  1  0  0  0
 14 15  1  0  0  0
 15 16  2  0  0  0
 15 17  1  0  0  0
 17  1  1  0  0  0
  1  2  1  0  0  0
  2  3  2  0  0  0
  3  6  1  0  0  0
  6  7  2  0  0  0
  7  8  1  0  0  0
  8  9  1  0  0  0
  8 10  2  0  0  0
 10 11  1  0  0  0
 11 12  2  0  0  0
 12 13  1  0  0  0
  3  4  1  0  0  0
  4  5  1  0  0  0
  5 26  1  0  0  0
 26 27  2  0  0  0
 26 28  1  0  0  0
  5  1  2  0  0  0
 12  6  1  0  0  0
 14 18  1  0  0  0
 17 19  1  0  0  0
 28 29  1  0  0  0
M  END
> <score>
-0.60433

> <minimizedAffinity>
-6.81937

$$$$
HIPS414


 31 32  0  0  0  0  0  0  0  0999 V2000
   68.7206   79.3147   90.2950 C   0  0  0  0  0  0  0  0  0  0  0  0
   69.8560   79.9789   89.7975 C   0  0  0  0  0  0  0  0  0  0  0  0
   69.8495   81.3555   90.0291 C   0  0  0  0  0  0  0  0  0  0  0  0
   68.4304   81.7275   90.8607 S   0  0  0  0  0  0  0  0  0  0  0  0
   67.8151   80.1644   90.9361 C   0  0  0  0  0  0  0  0  0  0  0  0
   68.9818   75.5716   90.9880 N   0  0  0  0  0  0  0  0  0  0  0  0
   69.3001   76.9693   91.0285 C   0  0  0  0  0  0  0  0  0  0  0  0
   70.2483   77.3804   91.7520 O   0  0  0  0  0  0  0  0  0  0  0  0
   68.5548   77.8906   90.2201 N   0  0  0  0  0  0  0  0  0  0  0  0
   68.2131   75.2780   90.4475 H   0  0  0  0  0  0  0  0  0  0  0  0
   67.8975   77.5286   89.5829 H   0  0  0  0  0  0  0  0  0  0  0  0
   69.7523   74.5644   91.7168 C   0  0  0  0  0  0  0  0  0  0  0  0
   69.2145   73.1477   91.4578 C   0  0  0  0  0  0  0  0  0  0  0  0
   67.7529   73.1171   90.9779 C   0  0  0  0  0  0  0  0  0  0  0  0
   67.6012   72.4826   89.5847 C   0  0  0  0  0  0  0  0  0  0  0  0
   66.4638   72.6588   87.3064 C   0  0  0  0  0  0  0  0  0  0  0  0
   66.7991   73.3676   88.6185 C   0  0  0  0  0  0  0  0  0  0  0  0
   70.8925   82.3333   89.6229 C   0  0  0  0  0  0  0  0  0  0  0  0
   72.2131   82.1906   90.0852 C   0  0  0  0  0  0  0  0  0  0  0  0
   73.1947   83.1163   89.7295 C   0  0  0  0  0  0  0  0  0  0  0  0
   72.8779   84.1924   88.9000 C   0  0  0  0  0  0  0  0  0  0  0  0
   71.5756   84.3392   88.3944 C   0  0  0  0  0  0  0  0  0  0  0  0
   70.5846   83.4175   88.7776 C   0  0  0  0  0  0  0  0  0  0  0  0
   71.2167   85.5203   87.5274 C   0  0  0  0  0  0  0  0  0  0  0  0
   70.2064   86.2418   88.1358 F   0  0  0  0  0  0  0  0  0  0  0  0
   70.7807   85.0942   86.2842 F   0  0  0  0  0  0  0  0  0  0  0  0
   72.3107   86.3471   87.3409 F   0  0  0  0  0  0  0  0  0  0  0  0
   66.5121   79.8155   91.5275 C   0  0  0  0  0  0  0  0  0  0  0  0
   65.5048   80.5361   91.2901 O   0  0  0  0  0  0  0  0  0  0  0  0
   66.3718   78.6842   92.3250 O   0  0  0  0  0  0  0  0  0  0  0  0
   67.1153   78.1436   92.5062 H   0  0  0  0  0  0  0  0  0  0  0  0
 16 17  1  0  0  0
 17 15  1  0  0  0
 15 14  1  0  0  0
 14 13  1  0  0  0
 13 12  1  0  0  0
 12  6  1  0  0  0
  6  7  1  0  0  0
  7  8  2  0  0  0
  7  9  1  0  0  0
  9  1  1  0  0  0
  1  2  1  0  0  0
  2  3  2  0  0  0
  3 18  1  0  0  0
 18 19  2  0  0  0
 19 20  1  0  0  0
 20 21  2  0  0  0
 21 22  1  0  0  0
 22 24  1  0  0  0
 24 25  1  0  0  0
 24 26  1  0  0  0
 24 27  1  0  0  0
 22 23  2  0  0  0
  3  4  1  0  0  0
  4  5  1  0  0  0
  5 28  1  0  0  0
 28 29  2  0  0  0
 28 30  1  0  0  0
  5  1  2  0  0  0
 23 18  1  0  0  0
  6 10  1  0  0  0
  9 11  1  0  0  0
 30 31  1  0  0  0
M  END
> <score>
-0.287427

> <minimizedAffinity>
-7.38421

$$$$
HIPS414


 31 32  0  0  0  0  0  0  0  0999 V2000
   68.4758   79.3784   90.4453 C   0  0  0  0  0  0  0  0  0  0  0  0
   69.6453   79.9729   89.9388 C   0  0  0  0  0  0  0  0  0  0  0  0
   69.6926   81.3575   90.1097 C   0  0  0  0  0  0  0  0  0  0  0  0
   68.2776   81.8238   90.8999 S   0  0  0  0  0  0  0  0  0  0  0  0
   67.5967   80.2921   91.0330 C   0  0  0  0  0  0  0  0  0  0  0  0
   67.5759   75.8404   89.3354 N   0  0  0  0  0  0  0  0  0  0  0  0
   67.6433   77.2728   89.3280 C   0  0  0  0  0  0  0  0  0  0  0  0
   67.1457   77.9235   88.3687 O   0  0  0  0  0  0  0  0  0  0  0  0
   68.2521   77.9603   90.4300 N   0  0  0  0  0  0  0  0  0  0  0  0
   68.0053   75.3514   90.0742 H   0  0  0  0  0  0  0  0  0  0  0  0
   68.5300   77.4340   91.2143 H   0  0  0  0  0  0  0  0  0  0  0  0
   66.8952   75.0761   88.2906 C   0  0  0  0  0  0  0  0  0  0  0  0
   67.0174   73.5624   88.5297 C   0  0  0  0  0  0  0  0  0  0  0  0
   66.5032   72.7061   87.3593 C   0  0  0  0  0  0  0  0  0  0  0  0
   67.2881   71.3929   87.1980 C   0  0  0  0  0  0  0  0  0  0  0  0
   67.5109   72.2456   84.8024 C   0  0  0  0  0  0  0  0  0  0  0  0
   67.5283   71.0272   85.7254 C   0  0  0  0  0  0  0  0  0  0  0  0
   70.7815   82.2728   89.6791 C   0  0  0  0  0  0  0  0  0  0  0  0
   72.0974   82.0669   90.1305 C   0  0  0  0  0  0  0  0  0  0  0  0
   73.1228   82.9343   89.7517 C   0  0  0  0  0  0  0  0  0  0  0  0
   72.8546   84.0137   88.9096 C   0  0  0  0  0  0  0  0  0  0  0  0
   71.5566   84.2220   88.4146 C   0  0  0  0  0  0  0  0  0  0  0  0
   70.5224   83.3597   88.8209 C   0  0  0  0  0  0  0  0  0  0  0  0
   71.2515   85.4081   87.5337 C   0  0  0  0  0  0  0  0  0  0  0  0
   72.4074   86.1415   87.3407 F   0  0  0  0  0  0  0  0  0  0  0  0
   70.2970   86.2181   88.1251 F   0  0  0  0  0  0  0  0  0  0  0  0
   70.7677   84.9985   86.3035 F   0  0  0  0  0  0  0  0  0  0  0  0
   66.2715   80.0233   91.6168 C   0  0  0  0  0  0  0  0  0  0  0  0
   65.2964   80.7669   91.3224 O   0  0  0  0  0  0  0  0  0  0  0  0
   66.0747   78.9420   92.4698 O   0  0  0  0  0  0  0  0  0  0  0  0
   66.7941   78.3847   92.6933 H   0  0  0  0  0  0  0  0  0  0  0  0
 16 17  1  0  0  0
 17 15  1  0  0  0
 15 14  1  0  0  0
 14 13  1  0  0  0
 13 12  1  0  0  0
 12  6  1  0  0  0
  6  7  1  0  0  0
  7  8  2  0  0  0
  7  9  1  0  0  0
  9  1  1  0  0  0
  1  2  1  0  0  0
  2  3  2  0  0  0
  3 18  1  0  0  0
 18 19  2  0  0  0
 19 20  1  0  0  0
 20 21  2  0  0  0
 21 22  1  0  0  0
 22 24  1  0  0  0
 24 25  1  0  0  0
 24 26  1  0  0  0
 24 27  1  0  0  0
 22 23  2  0  0  0
  3  4  1  0  0  0
  4  5  1  0  0  0
  5 28  1  0  0  0
 28 29  2  0  0  0
 28 30  1  0  0  0
  5  1  2  0  0  0
 23 18  1  0  0  0
  6 10  1  0  0  0
  9 11  1  0  0  0
 30 31  1  0  0  0
M  END
> <score>
-0.287427

> <minimizedAffinity>
-7.36174

$$$$
HIPS414


 31 32  0  0  0  0  0  0  0  0999 V2000
   68.5187   79.4295   90.6232 C   0  0  0  0  0  0  0  0  0  0  0  0
   69.7400   80.0185   90.2499 C   0  0  0  0  0  0  0  0  0  0  0  0
   69.6600   81.3964   90.0413 C   0  0  0  0  0  0  0  0  0  0  0  0
   68.0670   81.8663   90.3342 S   0  0  0  0  0  0  0  0  0  0  0  0
   67.4675   80.3447   90.7249 C   0  0  0  0  0  0  0  0  0  0  0  0
   68.0624   75.6506   90.3563 N   0  0  0  0  0  0  0  0  0  0  0  0
   68.0398   77.0347   89.9821 C   0  0  0  0  0  0  0  0  0  0  0  0
   67.6869   77.3686   88.8179 O   0  0  0  0  0  0  0  0  0  0  0  0
   68.3913   78.0365   90.9468 N   0  0  0  0  0  0  0  0  0  0  0  0
   68.3788   75.4102   91.2570 H   0  0  0  0  0  0  0  0  0  0  0  0
   68.5530   77.7551   91.8763 H   0  0  0  0  0  0  0  0  0  0  0  0
   67.6347   74.5814   89.4547 C   0  0  0  0  0  0  0  0  0  0  0  0
   67.9407   73.1937   90.0413 C   0  0  0  0  0  0  0  0  0  0  0  0
   68.3494   73.2236   91.5244 C   0  0  0  0  0  0  0  0  0  0  0  0
   67.1945   72.8358   92.4638 C   0  0  0  0  0  0  0  0  0  0  0  0
   65.9085   73.9898   94.3427 C   0  0  0  0  0  0  0  0  0  0  0  0
   67.2763   73.5477   93.8227 C   0  0  0  0  0  0  0  0  0  0  0  0
   70.7651   82.3025   89.6330 C   0  0  0  0  0  0  0  0  0  0  0  0
   72.0752   82.0684   90.0877 C   0  0  0  0  0  0  0  0  0  0  0  0
   73.1158   82.9266   89.7300 C   0  0  0  0  0  0  0  0  0  0  0  0
   72.8688   84.0248   88.9060 C   0  0  0  0  0  0  0  0  0  0  0  0
   71.5770   84.2619   88.4078 C   0  0  0  0  0  0  0  0  0  0  0  0
   70.5275   83.4083   88.7931 C   0  0  0  0  0  0  0  0  0  0  0  0
   71.2949   85.4679   87.5467 C   0  0  0  0  0  0  0  0  0  0  0  0
   70.8145   85.0494   86.3198 F   0  0  0  0  0  0  0  0  0  0  0  0
   72.4508   86.2045   87.3508 F   0  0  0  0  0  0  0  0  0  0  0  0
   70.3544   86.2907   88.1414 F   0  0  0  0  0  0  0  0  0  0  0  0
   66.0570   80.0683   91.0462 C   0  0  0  0  0  0  0  0  0  0  0  0
   65.7650   79.4771   92.1212 O   0  0  0  0  0  0  0  0  0  0  0  0
   65.0385   80.4751   90.1901 O   0  0  0  0  0  0  0  0  0  0  0  0
   65.2471   80.9149   89.3895 H   0  0  0  0  0  0  0  0  0  0  0  0
 16 17  1  0  0  0
 17 15  1  0  0  0
 15 14  1  0  0  0
 14 13  1  0  0  0
 13 12  1  0  0  0
 12  6  1  0  0  0
  6  7  1  0  0  0
  7  8  2  0  0  0
  7  9  1  0  0  0
  9  1  1  0  0  0
  1  2  1  0  0  0
  2  3  2  0  0  0
  3 18  1  0  0  0
 18 19  2  0  0  0
 19 20  1  0  0  0
 20 21  2  0  0  0
 21 22  1  0  0  0
 22 24  1  0  0  0
 24 25  1  0  0  0
 24 26  1  0  0  0
 24 27  1  0  0  0
 22 23  2  0  0  0
  3  4  1  0  0  0
  4  5  1  0  0  0
  5 28  1  0  0  0
 28 29  2  0  0  0
 28 30  1  0  0  0
  5  1  2  0  0  0
 23 18  1  0  0  0
  6 10  1  0  0  0
  9 11  1  0  0  0
 30 31  1  0  0  0
M  END
> <score>
-0.287427

> <minimizedAffinity>
-7.35682

$$$$
HIPS418


 30 31  0  0  0  0  0  0  0  0999 V2000
   68.5132   76.6213   90.3439 C   0  0  0  0  0  0  0  0  0  0  0  0
   69.1124   75.7611   91.2756 C   0  0  0  0  0  0  0  0  0  0  0  0
   68.8296   74.4118   91.0559 C   0  0  0  0  0  0  0  0  0  0  0  0
   67.8167   74.3145   89.7095 S   0  0  0  0  0  0  0  0  0  0  0  0
   67.7266   75.9635   89.3935 C   0  0  0  0  0  0  0  0  0  0  0  0
   70.1627   80.0529   90.2395 N   0  0  0  0  0  0  0  0  0  0  0  0
   70.0114   78.6290   90.1577 C   0  0  0  0  0  0  0  0  0  0  0  0
   71.0097   77.8978   89.9103 O   0  0  0  0  0  0  0  0  0  0  0  0
   68.7246   78.0380   90.3842 N   0  0  0  0  0  0  0  0  0  0  0  0
   69.3589   80.6036   90.3802 H   0  0  0  0  0  0  0  0  0  0  0  0
   67.9588   78.6268   90.5741 H   0  0  0  0  0  0  0  0  0  0  0  0
   71.4573   80.7238   90.1233 C   0  0  0  0  0  0  0  0  0  0  0  0
   71.2820   82.2459   90.0854 C   0  0  0  0  0  0  0  0  0  0  0  0
   72.5897   82.9701   89.7361 C   0  0  0  0  0  0  0  0  0  0  0  0
   72.3667   83.9987   88.6179 C   0  0  0  0  0  0  0  0  0  0  0  0
   70.6889   84.8937   86.9153 C   0  0  0  0  0  0  0  0  0  0  0  0
   71.0949   83.7176   87.8029 C   0  0  0  0  0  0  0  0  0  0  0  0
   69.3223   73.2562   91.8498 C   0  0  0  0  0  0  0  0  0  0  0  0
   69.3186   71.9537   91.3172 C   0  0  0  0  0  0  0  0  0  0  0  0
   69.7844   70.8736   92.0723 C   0  0  0  0  0  0  0  0  0  0  0  0
   70.2665   71.0684   93.3777 C   0  0  0  0  0  0  0  0  0  0  0  0
   70.2742   72.3675   93.9099 C   0  0  0  0  0  0  0  0  0  0  0  0
   69.8092   73.4481   93.1553 C   0  0  0  0  0  0  0  0  0  0  0  0
   70.7467   69.9581   94.1580 N   0  0  0  0  0  0  0  0  0  0  0  0
   71.2273   68.9489   93.6016 O   0  0  0  0  0  0  0  0  0  0  0  0
   70.6833   69.9899   95.5323 O   0  0  0  0  0  0  0  0  0  0  0  0
   66.8712   76.5623   88.3558 C   0  0  0  0  0  0  0  0  0  0  0  0
   65.9940   77.4070   88.6791 O   0  0  0  0  0  0  0  0  0  0  0  0
   67.0426   76.2300   87.0159 O   0  0  0  0  0  0  0  0  0  0  0  0
   67.6930   75.6026   86.7683 H   0  0  0  0  0  0  0  0  0  0  0  0
 16 17  1  0  0  0
 17 15  1  0  0  0
 15 14  1  0  0  0
 14 13  1  0  0  0
 13 12  1  0  0  0
 12  6  1  0  0  0
  6  7  1  0  0  0
  7  8  2  0  0  0
  7  9  1  0  0  0
  9  1  1  0  0  0
  1  2  1  0  0  0
  2  3  2  0  0  0
  3 18  1  0  0  0
 18 19  2  0  0  0
 19 20  1  0  0  0
 20 21  2  0  0  0
 21 24  1  0  0  0
 24 25  2  0  0  0
 24 26  1  0  0  0
 21 22  1  0  0  0
 22 23  2  0  0  0
  3  4  1  0  0  0
  4  5  1  0  0  0
  5 27  1  0  0  0
 27 28  2  0  0  0
 27 29  1  0  0  0
  5  1  2  0  0  0
 23 18  1  0  0  0
  6 10  1  0  0  0
  9 11  1  0  0  0
 29 30  1  0  0  0
M  CHG 1  24   1
M  CHG 1  26  -1
M  END
> <score>
-0.526963

> <minimizedAffinity>
-7.15012

$$$$
HIPS418


 30 31  0  0  0  0  0  0  0  0999 V2000
   68.3073   77.9961   90.0589 C   0  0  0  0  0  0  0  0  0  0  0  0
   68.8160   77.0192   90.9272 C   0  0  0  0  0  0  0  0  0  0  0  0
   68.4699   75.7151   90.5686 C   0  0  0  0  0  0  0  0  0  0  0  0
   67.5149   75.8032   89.1800 S   0  0  0  0  0  0  0  0  0  0  0  0
   67.5295   77.4769   89.0195 C   0  0  0  0  0  0  0  0  0  0  0  0
   70.1468   81.3174   90.3621 N   0  0  0  0  0  0  0  0  0  0  0  0
   69.9222   79.9185   90.1396 C   0  0  0  0  0  0  0  0  0  0  0  0
   70.8911   79.1539   89.8769 O   0  0  0  0  0  0  0  0  0  0  0  0
   68.5938   79.3879   90.2426 N   0  0  0  0  0  0  0  0  0  0  0  0
   69.3679   81.9005   90.5119 H   0  0  0  0  0  0  0  0  0  0  0  0
   67.8521   80.0022   90.4469 H   0  0  0  0  0  0  0  0  0  0  0  0
   71.4809   81.9170   90.3766 C   0  0  0  0  0  0  0  0  0  0  0  0
   71.4445   83.3440   89.8185 C   0  0  0  0  0  0  0  0  0  0  0  0
   72.7651   83.7334   89.1399 C   0  0  0  0  0  0  0  0  0  0  0  0
   72.5196   84.2485   87.7141 C   0  0  0  0  0  0  0  0  0  0  0  0
   70.4213   85.2057   86.6207 C   0  0  0  0  0  0  0  0  0  0  0  0
   71.0898   83.9712   87.2248 C   0  0  0  0  0  0  0  0  0  0  0  0
   68.8624   74.4637   91.2676 C   0  0  0  0  0  0  0  0  0  0  0  0
   69.4953   74.5006   92.5238 C   0  0  0  0  0  0  0  0  0  0  0  0
   69.8603   73.3176   93.1730 C   0  0  0  0  0  0  0  0  0  0  0  0
   69.6008   72.0688   92.5835 C   0  0  0  0  0  0  0  0  0  0  0  0
   68.9664   72.0296   91.3317 C   0  0  0  0  0  0  0  0  0  0  0  0
   68.6006   73.2119   90.6823 C   0  0  0  0  0  0  0  0  0  0  0  0
   69.9757   70.8489   93.2493 N   0  0  0  0  0  0  0  0  0  0  0  0
   70.3951   70.8677   94.4251 O   0  0  0  0  0  0  0  0  0  0  0  0
   69.8787   69.6395   92.5998 O   0  0  0  0  0  0  0  0  0  0  0  0
   66.7557   78.2189   88.0107 C   0  0  0  0  0  0  0  0  0  0  0  0
   66.5033   79.4402   88.1899 O   0  0  0  0  0  0  0  0  0  0  0  0
   66.3274   77.5939   86.8440 O   0  0  0  0  0  0  0  0  0  0  0  0
   66.5116   76.6859   86.7041 H   0  0  0  0  0  0  0  0  0  0  0  0
 16 17  1  0  0  0
 17 15  1  0  0  0
 15 14  1  0  0  0
 14 13  1  0  0  0
 13 12  1  0  0  0
 12  6  1  0  0  0
  6  7  1  0  0  0
  7  8  2  0  0  0
  7  9  1  0  0  0
  9  1  1  0  0  0
  1  2  1  0  0  0
  2  3  2  0  0  0
  3 18  1  0  0  0
 18 19  2  0  0  0
 19 20  1  0  0  0
 20 21  2  0  0  0
 21 24  1  0  0  0
 24 25  2  0  0  0
 24 26  1  0  0  0
 21 22  1  0  0  0
 22 23  2  0  0  0
  3  4  1  0  0  0
  4  5  1  0  0  0
  5 27  1  0  0  0
 27 28  2  0  0  0
 27 29  1  0  0  0
  5  1  2  0  0  0
 23 18  1  0  0  0
  6 10  1  0  0  0
  9 11  1  0  0  0
 29 30  1  0  0  0
M  CHG 1  24   1
M  CHG 1  26  -1
M  END
> <score>
-0.526963

> <minimizedAffinity>
-6.92316

$$$$
HIPS418


 30 31  0  0  0  0  0  0  0  0999 V2000
   68.0732   74.7624   90.8962 C   0  0  0  0  0  0  0  0  0  0  0  0
   68.6465   75.8723   90.2586 C   0  0  0  0  0  0  0  0  0  0  0  0
   68.7804   76.9879   91.0873 C   0  0  0  0  0  0  0  0  0  0  0  0
   68.1611   76.5764   92.6023 S   0  0  0  0  0  0  0  0  0  0  0  0
   67.7214   74.9971   92.2289 C   0  0  0  0  0  0  0  0  0  0  0  0
   67.1715   72.1475   88.2778 N   0  0  0  0  0  0  0  0  0  0  0  0
   67.3498   73.4308   88.8929 C   0  0  0  0  0  0  0  0  0  0  0  0
   67.0072   74.4805   88.2821 O   0  0  0  0  0  0  0  0  0  0  0  0
   67.8956   73.5136   90.2165 N   0  0  0  0  0  0  0  0  0  0  0  0
   67.4964   71.3491   88.7535 H   0  0  0  0  0  0  0  0  0  0  0  0
   68.1578   72.6825   90.6745 H   0  0  0  0  0  0  0  0  0  0  0  0
   66.5286   71.9712   86.9758 C   0  0  0  0  0  0  0  0  0  0  0  0
   67.2130   70.8577   86.1752 C   0  0  0  0  0  0  0  0  0  0  0  0
   67.5121   71.2839   84.7311 C   0  0  0  0  0  0  0  0  0  0  0  0
   66.2432   71.2294   83.8678 C   0  0  0  0  0  0  0  0  0  0  0  0
   65.2903   69.6490   82.1045 C   0  0  0  0  0  0  0  0  0  0  0  0
   65.8203   69.7912   83.5309 C   0  0  0  0  0  0  0  0  0  0  0  0
   69.3615   78.3059   90.7220 C   0  0  0  0  0  0  0  0  0  0  0  0
   70.7496   78.4678   90.5568 C   0  0  0  0  0  0  0  0  0  0  0  0
   71.2861   79.7119   90.2129 C   0  0  0  0  0  0  0  0  0  0  0  0
   70.4489   80.8246   90.0244 C   0  0  0  0  0  0  0  0  0  0  0  0
   69.0635   80.6645   90.1854 C   0  0  0  0  0  0  0  0  0  0  0  0
   68.5262   79.4208   90.5287 C   0  0  0  0  0  0  0  0  0  0  0  0
   70.9984   82.1071   89.6705 N   0  0  0  0  0  0  0  0  0  0  0  0
   71.9901   82.5643   90.2757 O   0  0  0  0  0  0  0  0  0  0  0  0
   70.4385   82.8524   88.6581 O   0  0  0  0  0  0  0  0  0  0  0  0
   66.9993   74.0997   93.1456 C   0  0  0  0  0  0  0  0  0  0  0  0
   66.7479   72.9163   92.7935 O   0  0  0  0  0  0  0  0  0  0  0  0
   66.6196   74.5341   94.4115 O   0  0  0  0  0  0  0  0  0  0  0  0
   66.8035   75.4128   94.6799 H   0  0  0  0  0  0  0  0  0  0  0  0
 16 17  1  0  0  0
 17 15  1  0  0  0
 15 14  1  0  0  0
 14 13  1  0  0  0
 13 12  1  0  0  0
 12  6  1  0  0  0
  6  7  1  0  0  0
  7  8  2  0  0  0
  7  9  1  0  0  0
  9  1  1  0  0  0
  1  2  1  0  0  0
  2  3  2  0  0  0
  3 18  1  0  0  0
 18 19  2  0  0  0
 19 20  1  0  0  0
 20 21  2  0  0  0
 21 24  1  0  0  0
 24 25  2  0  0  0
 24 26  1  0  0  0
 21 22  1  0  0  0
 22 23  2  0  0  0
  3  4  1  0  0  0
  4  5  1  0  0  0
  5 27  1  0  0  0
 27 28  2  0  0  0
 27 29  1  0  0  0
  5  1  2  0  0  0
 23 18  1  0  0  0
  6 10  1  0  0  0
  9 11  1  0  0  0
 29 30  1  0  0  0
M  CHG 1  24   1
M  CHG 1  26  -1
M  END
> <score>
-0.526963

> <minimizedAffinity>
-6.76671

$$$$
HIPS422


 33 35  0  0  0  0  0  0  0  0999 V2000
   69.3855   78.2838   90.2735 C   0  0  0  0  0  0  0  0  0  0  0  0
   69.0348   79.5372   89.7379 C   0  0  0  0  0  0  0  0  0  0  0  0
   70.0499   80.4897   89.8193 C   0  0  0  0  0  0  0  0  0  0  0  0
   71.3787   79.7597   90.5531 S   0  0  0  0  0  0  0  0  0  0  0  0
   70.6881   78.2420   90.7791 C   0  0  0  0  0  0  0  0  0  0  0  0
   69.9817   81.8998   89.3594 C   0  0  0  0  0  0  0  0  0  0  0  0
   71.0653   82.7692   89.5761 C   0  0  0  0  0  0  0  0  0  0  0  0
   71.0094   84.0960   89.1419 C   0  0  0  0  0  0  0  0  0  0  0  0
   69.8720   84.5790   88.4888 C   0  0  0  0  0  0  0  0  0  0  0  0
   69.8410   86.2550   87.9586 Cl  0  0  0  0  0  0  0  0  0  0  0  0
   68.7798   83.7250   88.2717 C   0  0  0  0  0  0  0  0  0  0  0  0
   67.3258   84.2935   87.4614 Cl  0  0  0  0  0  0  0  0  0  0  0  0
   68.8370   82.3954   88.7063 C   0  0  0  0  0  0  0  0  0  0  0  0
   67.7980   75.7325   92.3093 N   0  0  0  0  0  0  0  0  0  0  0  0
   67.7015   76.9802   91.5857 C   0  0  0  0  0  0  0  0  0  0  0  0
   66.9904   77.9180   92.0393 O   0  0  0  0  0  0  0  0  0  0  0  0
   68.4482   77.2011   90.3831 N   0  0  0  0  0  0  0  0  0  0  0  0
   68.3161   76.5983   89.6160 H   0  0  0  0  0  0  0  0  0  0  0  0
   67.4337   75.6855   93.7382 C   0  0  0  0  0  0  0  0  0  0  0  0
   65.9611   75.2841   93.9688 C   0  0  0  0  0  0  0  0  0  0  0  0
   66.6461   74.1770   96.1589 C   0  0  0  0  0  0  0  0  0  0  0  0
   65.7749   74.0814   94.9073 C   0  0  0  0  0  0  0  0  0  0  0  0
   68.0979   74.4717   91.6096 C   0  0  0  0  0  0  0  0  0  0  0  0
   69.0204   73.6022   92.4233 C   0  0  0  0  0  0  0  0  0  0  0  0
   69.6128   72.4653   91.8474 C   0  0  0  0  0  0  0  0  0  0  0  0
   70.4448   71.6399   92.6097 C   0  0  0  0  0  0  0  0  0  0  0  0
   70.6908   71.9416   93.9509 C   0  0  0  0  0  0  0  0  0  0  0  0
   70.1142   73.0754   94.5294 C   0  0  0  0  0  0  0  0  0  0  0  0
   69.2872   73.9071   93.7693 C   0  0  0  0  0  0  0  0  0  0  0  0
   71.3986   77.0926   91.3646 C   0  0  0  0  0  0  0  0  0  0  0  0
   70.9314   76.5275   92.3897 O   0  0  0  0  0  0  0  0  0  0  0  0
   72.5960   76.6402   90.8199 O   0  0  0  0  0  0  0  0  0  0  0  0
   72.9503   77.0548   90.0579 H   0  0  0  0  0  0  0  0  0  0  0  0
 21 22  1  0  0  0
 22 20  1  0  0  0
 20 19  1  0  0  0
 19 14  1  0  0  0
 14 23  1  0  0  0
 23 24  1  0  0  0
 24 25  2  0  0  0
 25 26  1  0  0  0
 26 27  2  0  0  0
 27 28  1  0  0  0
 28 29  2  0  0  0
 14 15  1  0  0  0
 15 16  2  0  0  0
 15 17  1  0  0  0
 17  1  1  0  0  0
  1  2  1  0  0  0
  2  3  2  0  0  0
  3  6  1  0  0  0
  6  7  2  0  0  0
  7  8  1  0  0  0
  8  9  2  0  0  0
  9 10  1  0  0  0
  9 11  1  0  0  0
 11 12  1  0  0  0
 11 13  2  0  0  0
  3  4  1  0  0  0
  4  5  1  0  0  0
  5 30  1  0  0  0
 30 31  2  0  0  0
 30 32  1  0  0  0
 29 24  1  0  0  0
  5  1  2  0  0  0
 13  6  1  0  0  0
 17 18  1  0  0  0
 32 33  1  0  0  0
M  END
> <score>
-0.001231

> <minimizedAffinity>
-7.85684

$$$$
HIPS422


 33 35  0  0  0  0  0  0  0  0999 V2000
   68.5866   80.9697   90.0591 C   0  0  0  0  0  0  0  0  0  0  0  0
   69.5943   81.9523   90.0530 C   0  0  0  0  0  0  0  0  0  0  0  0
   69.4754   82.8762   89.0157 C   0  0  0  0  0  0  0  0  0  0  0  0
   68.1113   82.4643   88.1175 S   0  0  0  0  0  0  0  0  0  0  0  0
   67.6613   81.1185   89.0219 C   0  0  0  0  0  0  0  0  0  0  0  0
   70.3863   84.0141   88.7329 C   0  0  0  0  0  0  0  0  0  0  0  0
   71.7417   83.7812   88.4400 C   0  0  0  0  0  0  0  0  0  0  0  0
   72.6032   84.8471   88.1685 C   0  0  0  0  0  0  0  0  0  0  0  0
   72.1295   86.1620   88.1886 C   0  0  0  0  0  0  0  0  0  0  0  0
   73.2459   87.4753   87.8421 Cl  0  0  0  0  0  0  0  0  0  0  0  0
   70.7808   86.4105   88.4862 C   0  0  0  0  0  0  0  0  0  0  0  0
   70.1448   88.0498   88.5303 Cl  0  0  0  0  0  0  0  0  0  0  0  0
   69.9180   85.3418   88.7572 C   0  0  0  0  0  0  0  0  0  0  0  0
   67.6008   77.5657   90.8426 N   0  0  0  0  0  0  0  0  0  0  0  0
   68.6446   78.5114   90.5179 C   0  0  0  0  0  0  0  0  0  0  0  0
   69.6007   78.1630   89.7726 O   0  0  0  0  0  0  0  0  0  0  0  0
   68.5887   79.8668   90.9790 N   0  0  0  0  0  0  0  0  0  0  0  0
   68.5511   80.0457   91.9464 H   0  0  0  0  0  0  0  0  0  0  0  0
   67.4122   76.3672   90.0030 C   0  0  0  0  0  0  0  0  0  0  0  0
   68.5165   75.3089   90.2116 C   0  0  0  0  0  0  0  0  0  0  0  0
   69.0093   73.1853   91.5303 C   0  0  0  0  0  0  0  0  0  0  0  0
   67.9965   73.9365   90.6673 C   0  0  0  0  0  0  0  0  0  0  0  0
   66.8259   77.6903   92.0890 C   0  0  0  0  0  0  0  0  0  0  0  0
   67.3080   76.7151   93.1309 C   0  0  0  0  0  0  0  0  0  0  0  0
   68.6077   76.8237   93.6547 C   0  0  0  0  0  0  0  0  0  0  0  0
   69.0677   75.9011   94.5991 C   0  0  0  0  0  0  0  0  0  0  0  0
   68.2359   74.8640   95.0267 C   0  0  0  0  0  0  0  0  0  0  0  0
   66.9387   74.7539   94.5190 C   0  0  0  0  0  0  0  0  0  0  0  0
   66.4723   75.6778   93.5798 C   0  0  0  0  0  0  0  0  0  0  0  0
   66.4613   80.3086   88.7522 C   0  0  0  0  0  0  0  0  0  0  0  0
   66.2763   79.8335   87.5995 O   0  0  0  0  0  0  0  0  0  0  0  0
   65.5122   80.0856   89.7444 O   0  0  0  0  0  0  0  0  0  0  0  0
   65.6420   80.4353   90.6040 H   0  0  0  0  0  0  0  0  0  0  0  0
 21 22  1  0  0  0
 22 20  1  0  0  0
 20 19  1  0  0  0
 19 14  1  0  0  0
 14 23  1  0  0  0
 23 24  1  0  0  0
 24 25  2  0  0  0
 25 26  1  0  0  0
 26 27  2  0  0  0
 27 28  1  0  0  0
 28 29  2  0  0  0
 14 15  1  0  0  0
 15 16  2  0  0  0
 15 17  1  0  0  0
 17  1  1  0  0  0
  1  2  1  0  0  0
  2  3  2  0  0  0
  3  6  1  0  0  0
  6  7  2  0  0  0
  7  8  1  0  0  0
  8  9  2  0  0  0
  9 10  1  0  0  0
  9 11  1  0  0  0
 11 12  1  0  0  0
 11 13  2  0  0  0
  3  4  1  0  0  0
  4  5  1  0  0  0
  5 30  1  0  0  0
 30 31  2  0  0  0
 30 32  1  0  0  0
 29 24  1  0  0  0
  5  1  2  0  0  0
 13  6  1  0  0  0
 17 18  1  0  0  0
 32 33  1  0  0  0
M  END
> <score>
-0.001231

> <minimizedAffinity>
-7.75546

$$$$
HIPS422


 33 35  0  0  0  0  0  0  0  0999 V2000
   69.8601   78.9225   90.0170 C   0  0  0  0  0  0  0  0  0  0  0  0
   69.2535   80.1913   89.9619 C   0  0  0  0  0  0  0  0  0  0  0  0
   70.1451   81.2508   90.1248 C   0  0  0  0  0  0  0  0  0  0  0  0
   71.6838   80.5974   90.3305 S   0  0  0  0  0  0  0  0  0  0  0  0
   71.2419   78.9774   90.2214 C   0  0  0  0  0  0  0  0  0  0  0  0
   69.8113   82.6976   90.1320 C   0  0  0  0  0  0  0  0  0  0  0  0
   69.3798   83.3196   91.3169 C   0  0  0  0  0  0  0  0  0  0  0  0
   69.0686   84.6816   91.3316 C   0  0  0  0  0  0  0  0  0  0  0  0
   69.1780   85.4446   90.1657 C   0  0  0  0  0  0  0  0  0  0  0  0
   68.7762   87.1551   90.2258 Cl  0  0  0  0  0  0  0  0  0  0  0  0
   69.6006   84.8361   88.9738 C   0  0  0  0  0  0  0  0  0  0  0  0
   69.7444   85.7569   87.4820 Cl  0  0  0  0  0  0  0  0  0  0  0  0
   69.9132   83.4715   88.9601 C   0  0  0  0  0  0  0  0  0  0  0  0
   68.3286   76.1495   91.7885 N   0  0  0  0  0  0  0  0  0  0  0  0
   68.1796   77.3643   91.0194 C   0  0  0  0  0  0  0  0  0  0  0  0
   67.2533   78.1749   91.2953 O   0  0  0  0  0  0  0  0  0  0  0  0
   69.1037   77.7023   89.9780 N   0  0  0  0  0  0  0  0  0  0  0  0
   69.2226   77.0854   89.2200 H   0  0  0  0  0  0  0  0  0  0  0  0
   67.7023   76.0452   93.1202 C   0  0  0  0  0  0  0  0  0  0  0  0
   68.1253   74.7722   93.8841 C   0  0  0  0  0  0  0  0  0  0  0  0
   66.0261   74.0657   95.1431 C   0  0  0  0  0  0  0  0  0  0  0  0
   67.4510   74.6061   95.2549 C   0  0  0  0  0  0  0  0  0  0  0  0
   68.9567   74.9533   91.2020 C   0  0  0  0  0  0  0  0  0  0  0  0
   68.0869   74.3504   90.1301 C   0  0  0  0  0  0  0  0  0  0  0  0
   67.9044   72.9584   90.0664 C   0  0  0  0  0  0  0  0  0  0  0  0
   67.1224   72.3945   89.0539 C   0  0  0  0  0  0  0  0  0  0  0  0
   66.5182   73.2140   88.0980 C   0  0  0  0  0  0  0  0  0  0  0  0
   66.6858   74.6000   88.1592 C   0  0  0  0  0  0  0  0  0  0  0  0
   67.4612   75.1686   89.1735 C   0  0  0  0  0  0  0  0  0  0  0  0
   72.1960   77.8574   90.2838 C   0  0  0  0  0  0  0  0  0  0  0  0
   73.0839   77.7449   89.3965 O   0  0  0  0  0  0  0  0  0  0  0  0
   72.1120   76.9029   91.2923 O   0  0  0  0  0  0  0  0  0  0  0  0
   71.4549   76.9791   91.9559 H   0  0  0  0  0  0  0  0  0  0  0  0
 21 22  1  0  0  0
 22 20  1  0  0  0
 20 19  1  0  0  0
 19 14  1  0  0  0
 14 23  1  0  0  0
 23 24  1  0  0  0
 24 25  2  0  0  0
 25 26  1  0  0  0
 26 27  2  0  0  0
 27 28  1  0  0  0
 28 29  2  0  0  0
 14 15  1  0  0  0
 15 16  2  0  0  0
 15 17  1  0  0  0
 17  1  1  0  0  0
  1  2  1  0  0  0
  2  3  2  0  0  0
  3  6  1  0  0  0
  6  7  2  0  0  0
  7  8  1  0  0  0
  8  9  2  0  0  0
  9 10  1  0  0  0
  9 11  1  0  0  0
 11 12  1  0  0  0
 11 13  2  0  0  0
  3  4  1  0  0  0
  4  5  1  0  0  0
  5 30  1  0  0  0
 30 31  2  0  0  0
 30 32  1  0  0  0
 29 24  1  0  0  0
  5  1  2  0  0  0
 13  6  1  0  0  0
 17 18  1  0  0  0
 32 33  1  0  0  0
M  END
> <score>
-0.001231

> <minimizedAffinity>
-7.66389

$$$$
HIPS424


 31 32  0  0  0  0  0  0  0  0999 V2000
   68.8183   79.7563   89.8701 C   0  0  0  0  0  0  0  0  0  0  0  0
   69.2272   78.5460   90.4485 C   0  0  0  0  0  0  0  0  0  0  0  0
   68.5096   77.4375   89.9959 C   0  0  0  0  0  0  0  0  0  0  0  0
   67.3913   77.9837   88.8558 S   0  0  0  0  0  0  0  0  0  0  0  0
   67.7938   79.6146   88.9297 C   0  0  0  0  0  0  0  0  0  0  0  0
   71.3497   82.5391   90.4338 N   0  0  0  0  0  0  0  0  0  0  0  0
   70.8280   81.2317   90.1620 C   0  0  0  0  0  0  0  0  0  0  0  0
   71.6030   80.2957   89.8216 O   0  0  0  0  0  0  0  0  0  0  0  0
   69.4144   81.0050   90.2406 N   0  0  0  0  0  0  0  0  0  0  0  0
   70.7285   83.2321   90.7549 H   0  0  0  0  0  0  0  0  0  0  0  0
   68.8334   81.7326   90.5603 H   0  0  0  0  0  0  0  0  0  0  0  0
   72.7581   82.8969   90.2586 C   0  0  0  0  0  0  0  0  0  0  0  0
   72.9368   83.8409   89.0573 C   0  0  0  0  0  0  0  0  0  0  0  0
   71.6214   84.4620   88.5468 C   0  0  0  0  0  0  0  0  0  0  0  0
   71.1514   83.9704   87.1669 C   0  0  0  0  0  0  0  0  0  0  0  0
   69.6734   86.0060   87.3473 C   0  0  0  0  0  0  0  0  0  0  0  0
   70.3447   85.0228   86.3929 C   0  0  0  0  0  0  0  0  0  0  0  0
   68.6883   76.0253   90.4225 C   0  0  0  0  0  0  0  0  0  0  0  0
   67.9467   74.9872   89.8277 C   0  0  0  0  0  0  0  0  0  0  0  0
   68.1232   73.6617   90.2352 C   0  0  0  0  0  0  0  0  0  0  0  0
   69.0321   73.3437   91.2568 C   0  0  0  0  0  0  0  0  0  0  0  0
   69.7962   74.3726   91.8304 C   0  0  0  0  0  0  0  0  0  0  0  0
   69.6207   75.6985   91.4241 C   0  0  0  0  0  0  0  0  0  0  0  0
   69.2558   71.9070   91.6568 C   0  0  0  0  0  0  0  0  0  0  0  0
   68.1562   71.4153   92.3392 F   0  0  0  0  0  0  0  0  0  0  0  0
   70.3626   71.7929   92.4807 F   0  0  0  0  0  0  0  0  0  0  0  0
   69.4591   71.1450   90.5212 F   0  0  0  0  0  0  0  0  0  0  0  0
   67.2177   80.6511   88.0574 C   0  0  0  0  0  0  0  0  0  0  0  0
   67.9083   81.6556   87.7389 O   0  0  0  0  0  0  0  0  0  0  0  0
   65.9057   80.5492   87.6056 O   0  0  0  0  0  0  0  0  0  0  0  0
   65.3864   79.8049   87.8387 H   0  0  0  0  0  0  0  0  0  0  0  0
 16 17  1  0  0  0
 17 15  1  0  0  0
 15 14  1  0  0  0
 14 13  1  0  0  0
 13 12  1  0  0  0
 12  6  1  0  0  0
  6  7  1  0  0  0
  7  8  2  0  0  0
  7  9  1  0  0  0
  9  1  1  0  0  0
  1  2  1  0  0  0
  2  3  2  0  0  0
  3 18  1  0  0  0
 18 19  2  0  0  0
 19 20  1  0  0  0
 20 21  2  0  0  0
 21 24  1  0  0  0
 24 25  1  0  0  0
 24 26  1  0  0  0
 24 27  1  0  0  0
 21 22  1  0  0  0
 22 23  2  0  0  0
  3  4  1  0  0  0
  4  5  1  0  0  0
  5 28  1  0  0  0
 28 29  2  0  0  0
 28 30  1  0  0  0
  5  1  2  0  0  0
 23 18  1  0  0  0
  6 10  1  0  0  0
  9 11  1  0  0  0
 30 31  1  0  0  0
M  END
> <score>
0.153651

> <minimizedAffinity>
-7.50568

$$$$
HIPS424


 31 32  0  0  0  0  0  0  0  0999 V2000
   68.1319   74.3637   90.8354 C   0  0  0  0  0  0  0  0  0  0  0  0
   68.6389   75.5217   90.2281 C   0  0  0  0  0  0  0  0  0  0  0  0
   68.8292   76.5827   91.1150 C   0  0  0  0  0  0  0  0  0  0  0  0
   68.3867   76.0480   92.6536 S   0  0  0  0  0  0  0  0  0  0  0  0
   67.9453   74.4858   92.2154 C   0  0  0  0  0  0  0  0  0  0  0  0
   67.0119   72.0362   88.0429 N   0  0  0  0  0  0  0  0  0  0  0  0
   67.1723   73.2387   88.8071 C   0  0  0  0  0  0  0  0  0  0  0  0
   66.7634   74.3417   88.3506 O   0  0  0  0  0  0  0  0  0  0  0  0
   67.8368   73.1853   90.0766 N   0  0  0  0  0  0  0  0  0  0  0  0
   67.2866   71.1835   88.4512 H   0  0  0  0  0  0  0  0  0  0  0  0
   68.0994   72.3084   90.4391 H   0  0  0  0  0  0  0  0  0  0  0  0
   66.4610   72.0109   86.6872 C   0  0  0  0  0  0  0  0  0  0  0  0
   67.1975   70.9780   85.8172 C   0  0  0  0  0  0  0  0  0  0  0  0
   66.9851   71.1687   84.3023 C   0  0  0  0  0  0  0  0  0  0  0  0
   66.0564   70.1419   83.6316 C   0  0  0  0  0  0  0  0  0  0  0  0
   63.5800   70.5735   83.4258 C   0  0  0  0  0  0  0  0  0  0  0  0
   64.9492   70.7890   82.7875 C   0  0  0  0  0  0  0  0  0  0  0  0
   69.3351   77.9404   90.7849 C   0  0  0  0  0  0  0  0  0  0  0  0
   70.7118   78.1824   90.6192 C   0  0  0  0  0  0  0  0  0  0  0  0
   71.1776   79.4630   90.3074 C   0  0  0  0  0  0  0  0  0  0  0  0
   70.2815   80.5348   90.1696 C   0  0  0  0  0  0  0  0  0  0  0  0
   68.9052   80.2907   90.3030 C   0  0  0  0  0  0  0  0  0  0  0  0
   68.4380   79.0108   90.6151 C   0  0  0  0  0  0  0  0  0  0  0  0
   70.7844   81.9028   89.7827 C   0  0  0  0  0  0  0  0  0  0  0  0
   72.1521   81.8759   89.5698 F   0  0  0  0  0  0  0  0  0  0  0  0
   70.5204   82.8242   90.7818 F   0  0  0  0  0  0  0  0  0  0  0  0
   70.1552   82.3068   88.6197 F   0  0  0  0  0  0  0  0  0  0  0  0
   67.5470   73.4383   93.1699 C   0  0  0  0  0  0  0  0  0  0  0  0
   67.9671   72.2603   93.0175 O   0  0  0  0  0  0  0  0  0  0  0  0
   66.6847   73.7285   94.2226 O   0  0  0  0  0  0  0  0  0  0  0  0
   66.3684   74.6024   94.3419 H   0  0  0  0  0  0  0  0  0  0  0  0
 16 17  1  0  0  0
 17 15  1  0  0  0
 15 14  1  0  0  0
 14 13  1  0  0  0
 13 12  1  0  0  0
 12  6  1  0  0  0
  6  7  1  0  0  0
  7  8  2  0  0  0
  7  9  1  0  0  0
  9  1  1  0  0  0
  1  2  1  0  0  0
  2  3  2  0  0  0
  3 18  1  0  0  0
 18 19  2  0  0  0
 19 20  1  0  0  0
 20 21  2  0  0  0
 21 24  1  0  0  0
 24 25  1  0  0  0
 24 26  1  0  0  0
 24 27  1  0  0  0
 21 22  1  0  0  0
 22 23  2  0  0  0
  3  4  1  0  0  0
  4  5  1  0  0  0
  5 28  1  0  0  0
 28 29  2  0  0  0
 28 30  1  0  0  0
  5  1  2  0  0  0
 23 18  1  0  0  0
  6 10  1  0  0  0
  9 11  1  0  0  0
 30 31  1  0  0  0
M  END
> <score>
0.153651

> <minimizedAffinity>
-7.38188

$$$$
HIPS424


 31 32  0  0  0  0  0  0  0  0999 V2000
   68.3451   76.3375   90.7936 C   0  0  0  0  0  0  0  0  0  0  0  0
   69.0245   75.4717   91.6628 C   0  0  0  0  0  0  0  0  0  0  0  0
   68.8546   74.1208   91.3548 C   0  0  0  0  0  0  0  0  0  0  0  0
   67.8787   74.0290   89.9807 S   0  0  0  0  0  0  0  0  0  0  0  0
   67.6558   75.6821   89.7692 C   0  0  0  0  0  0  0  0  0  0  0  0
   69.2018   80.0248   90.4199 N   0  0  0  0  0  0  0  0  0  0  0  0
   69.3035   78.6010   90.2850 C   0  0  0  0  0  0  0  0  0  0  0  0
   70.1838   78.0943   89.5363 O   0  0  0  0  0  0  0  0  0  0  0  0
   68.3718   77.7579   90.9759 N   0  0  0  0  0  0  0  0  0  0  0  0
   68.5448   80.3876   91.0570 H   0  0  0  0  0  0  0  0  0  0  0  0
   67.7283   78.1696   91.5969 H   0  0  0  0  0  0  0  0  0  0  0  0
   70.0244   80.9667   89.6593 C   0  0  0  0  0  0  0  0  0  0  0  0
   71.3050   81.3227   90.4334 C   0  0  0  0  0  0  0  0  0  0  0  0
   71.6819   82.8161   90.3692 C   0  0  0  0  0  0  0  0  0  0  0  0
   72.9920   83.1349   89.6285 C   0  0  0  0  0  0  0  0  0  0  0  0
   71.6030   84.0962   87.7557 C   0  0  0  0  0  0  0  0  0  0  0  0
   72.8505   84.2796   88.6152 C   0  0  0  0  0  0  0  0  0  0  0  0
   69.4267   72.9610   92.0869 C   0  0  0  0  0  0  0  0  0  0  0  0
   69.9466   73.1070   93.3868 C   0  0  0  0  0  0  0  0  0  0  0  0
   70.4813   72.0094   94.0676 C   0  0  0  0  0  0  0  0  0  0  0  0
   70.5242   70.7443   93.4605 C   0  0  0  0  0  0  0  0  0  0  0  0
   69.9780   70.5885   92.1764 C   0  0  0  0  0  0  0  0  0  0  0  0
   69.4432   71.6852   91.4943 C   0  0  0  0  0  0  0  0  0  0  0  0
   71.0550   69.5536   94.2185 C   0  0  0  0  0  0  0  0  0  0  0  0
   70.3153   68.4209   93.9247 F   0  0  0  0  0  0  0  0  0  0  0  0
   70.9888   69.7711   95.5842 F   0  0  0  0  0  0  0  0  0  0  0  0
   72.3726   69.3368   93.8603 F   0  0  0  0  0  0  0  0  0  0  0  0
   66.9462   76.2837   88.6283 C   0  0  0  0  0  0  0  0  0  0  0  0
   67.0203   75.7458   87.4913 O   0  0  0  0  0  0  0  0  0  0  0  0
   66.2188   77.4593   88.7852 O   0  0  0  0  0  0  0  0  0  0  0  0
   66.1596   77.8646   89.6279 H   0  0  0  0  0  0  0  0  0  0  0  0
 16 17  1  0  0  0
 17 15  1  0  0  0
 15 14  1  0  0  0
 14 13  1  0  0  0
 13 12  1  0  0  0
 12  6  1  0  0  0
  6  7  1  0  0  0
  7  8  2  0  0  0
  7  9  1  0  0  0
  9  1  1  0  0  0
  1  2  1  0  0  0
  2  3  2  0  0  0
  3 18  1  0  0  0
 18 19  2  0  0  0
 19 20  1  0  0  0
 20 21  2  0  0  0
 21 24  1  0  0  0
 24 25  1  0  0  0
 24 26  1  0  0  0
 24 27  1  0  0  0
 21 22  1  0  0  0
 22 23  2  0  0  0
  3  4  1  0  0  0
  4  5  1  0  0  0
  5 28  1  0  0  0
 28 29  2  0  0  0
 28 30  1  0  0  0
  5  1  2  0  0  0
 23 18  1  0  0  0
  6 10  1  0  0  0
  9 11  1  0  0  0
 30 31  1  0  0  0
M  END
> <score>
0.153651

> <minimizedAffinity>
-7.07952

$$$$
HIPS431


 36 39  0  0  0  0  0  0  0  0999 V2000
   67.9931   78.4631   90.8861 N   0  0  0  0  0  0  0  0  0  0  0  0
   69.1697   77.6606   91.0652 C   0  0  0  0  0  0  0  0  0  0  0  0
   70.0515   77.6434   90.1634 O   0  0  0  0  0  0  0  0  0  0  0  0
   69.3359   76.8428   92.2446 N   0  0  0  0  0  0  0  0  0  0  0  0
   67.2560   78.3731   91.5325 H   0  0  0  0  0  0  0  0  0  0  0  0
   67.1679   79.1291   88.6072 C   0  0  0  0  0  0  0  0  0  0  0  0
   67.2423   80.5195   87.6663 S   0  0  0  0  0  0  0  0  0  0  0  0
   68.1431   81.4612   88.7384 C   0  0  0  0  0  0  0  0  0  0  0  0
   68.4045   80.6786   89.8646 C   0  0  0  0  0  0  0  0  0  0  0  0
   67.8498   79.3910   89.8022 C   0  0  0  0  0  0  0  0  0  0  0  0
   68.5697   82.8670   88.5059 C   0  0  0  0  0  0  0  0  0  0  0  0
   67.6085   83.8806   88.3377 C   0  0  0  0  0  0  0  0  0  0  0  0
   67.9998   85.2038   88.1202 C   0  0  0  0  0  0  0  0  0  0  0  0
   69.3545   85.5411   88.0678 C   0  0  0  0  0  0  0  0  0  0  0  0
   69.8056   87.2181   87.7938 Cl  0  0  0  0  0  0  0  0  0  0  0  0
   70.3261   84.5429   88.2340 C   0  0  0  0  0  0  0  0  0  0  0  0
   72.0430   84.9255   88.1731 Cl  0  0  0  0  0  0  0  0  0  0  0  0
   69.9338   83.2170   88.4523 C   0  0  0  0  0  0  0  0  0  0  0  0
   66.1518   77.0105   88.9804 O   0  0  0  0  0  0  0  0  0  0  0  0
   66.5597   77.8669   88.1525 C   0  0  0  0  0  0  0  0  0  0  0  0
   66.4605   77.6041   86.7891 O   0  0  0  0  0  0  0  0  0  0  0  0
   66.7619   78.2365   86.1669 H   0  0  0  0  0  0  0  0  0  0  0  0
   70.1782   75.6367   92.1813 C   0  0  0  0  0  0  0  0  0  0  0  0
   69.4332   74.4942   91.5411 C   0  0  0  0  0  0  0  0  0  0  0  0
   69.7098   73.1654   91.9140 C   0  0  0  0  0  0  0  0  0  0  0  0
   69.0424   72.1059   91.2911 C   0  0  0  0  0  0  0  0  0  0  0  0
   68.1008   72.3634   90.2882 C   0  0  0  0  0  0  0  0  0  0  0  0
   67.8219   73.6804   89.9099 C   0  0  0  0  0  0  0  0  0  0  0  0
   68.4843   74.7433   90.5330 C   0  0  0  0  0  0  0  0  0  0  0  0
   68.6418   77.1677   93.5036 C   0  0  0  0  0  0  0  0  0  0  0  0
   67.8644   75.9805   94.0198 C   0  0  0  0  0  0  0  0  0  0  0  0
   66.5822   75.6873   93.5142 C   0  0  0  0  0  0  0  0  0  0  0  0
   65.8488   74.6122   94.0285 C   0  0  0  0  0  0  0  0  0  0  0  0
   66.3892   73.8177   95.0446 C   0  0  0  0  0  0  0  0  0  0  0  0
   67.6701   74.0899   95.5404 C   0  0  0  0  0  0  0  0  0  0  0  0
   68.4065   75.1627   95.0274 C   0  0  0  0  0  0  0  0  0  0  0  0
 19 20  2  0  0  0
 20 21  1  0  0  0
 20  6  1  0  0  0
  6  7  1  0  0  0
  7  8  1  0  0  0
  8 11  1  0  0  0
 11 12  2  0  0  0
 12 13  1  0  0  0
 13 14  2  0  0  0
 14 15  1  0  0  0
 14 16  1  0  0  0
 16 17  1  0  0  0
 16 18  2  0  0  0
  8  9  2  0  0  0
  9 10  1  0  0  0
 10  1  1  0  0  0
  1  2  1  0  0  0
  2  3  2  0  0  0
  2  4  1  0  0  0
  4 23  1  0  0  0
 23 24  1  0  0  0
 24 25  2  0  0  0
 25 26  1  0  0  0
 26 27  2  0  0  0
 27 28  1  0  0  0
 28 29  2  0  0  0
  4 30  1  0  0  0
 30 31  1  0  0  0
 31 32  2  0  0  0
 32 33  1  0  0  0
 33 34  2  0  0  0
 34 35  1  0  0  0
 35 36  2  0  0  0
 10  6  2  0  0  0
 29 24  1  0  0  0
 36 31  1  0  0  0
 18 11  1  0  0  0
 21 22  1  0  0  0
  1  5  1  0  0  0
M  END
> <score>
-0.154405

> <minimizedAffinity>
-9.24631

$$$$
HIPS431


 36 39  0  0  0  0  0  0  0  0999 V2000
   69.1068   79.6627   90.2401 N   0  0  0  0  0  0  0  0  0  0  0  0
   67.9942   79.2037   91.0224 C   0  0  0  0  0  0  0  0  0  0  0  0
   66.9676   79.9294   91.1255 O   0  0  0  0  0  0  0  0  0  0  0  0
   68.0527   77.9425   91.7245 N   0  0  0  0  0  0  0  0  0  0  0  0
   69.9478   79.1516   90.2681 H   0  0  0  0  0  0  0  0  0  0  0  0
   68.0545   81.0882   88.4572 C   0  0  0  0  0  0  0  0  0  0  0  0
   68.3768   82.5932   87.7828 S   0  0  0  0  0  0  0  0  0  0  0  0
   69.7648   82.9411   88.6772 C   0  0  0  0  0  0  0  0  0  0  0  0
   69.9975   81.8577   89.5265 C   0  0  0  0  0  0  0  0  0  0  0  0
   69.0407   80.8367   89.4193 C   0  0  0  0  0  0  0  0  0  0  0  0
   70.5769   84.1822   88.5654 C   0  0  0  0  0  0  0  0  0  0  0  0
   71.9735   84.1040   88.4139 C   0  0  0  0  0  0  0  0  0  0  0  0
   72.7441   85.2641   88.3066 C   0  0  0  0  0  0  0  0  0  0  0  0
   72.1377   86.5220   88.3471 C   0  0  0  0  0  0  0  0  0  0  0  0
   73.1426   87.9579   88.2071 Cl  0  0  0  0  0  0  0  0  0  0  0  0
   70.7462   86.6182   88.4971 C   0  0  0  0  0  0  0  0  0  0  0  0
   69.9435   88.1835   88.5545 Cl  0  0  0  0  0  0  0  0  0  0  0  0
   69.9740   85.4554   88.6042 C   0  0  0  0  0  0  0  0  0  0  0  0
   67.1908   79.2701   87.1887 O   0  0  0  0  0  0  0  0  0  0  0  0
   66.9670   80.2051   88.0017 C   0  0  0  0  0  0  0  0  0  0  0  0
   65.6688   80.4248   88.4536 O   0  0  0  0  0  0  0  0  0  0  0  0
   65.4944   81.1186   89.0587 H   0  0  0  0  0  0  0  0  0  0  0  0
   67.2332   77.7425   92.9315 C   0  0  0  0  0  0  0  0  0  0  0  0
   67.6823   76.5201   93.6892 C   0  0  0  0  0  0  0  0  0  0  0  0
   68.9488   76.4876   94.3026 C   0  0  0  0  0  0  0  0  0  0  0  0
   69.3768   75.3374   94.9735 C   0  0  0  0  0  0  0  0  0  0  0  0
   68.5487   74.2107   95.0313 C   0  0  0  0  0  0  0  0  0  0  0  0
   67.2900   74.2336   94.4225 C   0  0  0  0  0  0  0  0  0  0  0  0
   66.8564   75.3832   93.7537 C   0  0  0  0  0  0  0  0  0  0  0  0
   68.9523   76.8623   91.2813 C   0  0  0  0  0  0  0  0  0  0  0  0
   68.2333   75.8907   90.3762 C   0  0  0  0  0  0  0  0  0  0  0  0
   68.3204   74.5022   90.6001 C   0  0  0  0  0  0  0  0  0  0  0  0
   67.6883   73.6055   89.7314 C   0  0  0  0  0  0  0  0  0  0  0  0
   66.9599   74.0847   88.6381 C   0  0  0  0  0  0  0  0  0  0  0  0
   66.8521   75.4633   88.4180 C   0  0  0  0  0  0  0  0  0  0  0  0
   67.4812   76.3624   89.2853 C   0  0  0  0  0  0  0  0  0  0  0  0
 19 20  2  0  0  0
 20 21  1  0  0  0
 20  6  1  0  0  0
  6  7  1  0  0  0
  7  8  1  0  0  0
  8 11  1  0  0  0
 11 12  2  0  0  0
 12 13  1  0  0  0
 13 14  2  0  0  0
 14 15  1  0  0  0
 14 16  1  0  0  0
 16 17  1  0  0  0
 16 18  2  0  0  0
  8  9  2  0  0  0
  9 10  1  0  0  0
 10  1  1  0  0  0
  1  2  1  0  0  0
  2  3  2  0  0  0
  2  4  1  0  0  0
  4 23  1  0  0  0
 23 24  1  0  0  0
 24 25  2  0  0  0
 25 26  1  0  0  0
 26 27  2  0  0  0
 27 28  1  0  0  0
 28 29  2  0  0  0
  4 30  1  0  0  0
 30 31  1  0  0  0
 31 32  2  0  0  0
 32 33  1  0  0  0
 33 34  2  0  0  0
 34 35  1  0  0  0
 35 36  2  0  0  0
 10  6  2  0  0  0
 29 24  1  0  0  0
 36 31  1  0  0  0
 18 11  1  0  0  0
 21 22  1  0  0  0
  1  5  1  0  0  0
M  END
> <score>
-0.154405

> <minimizedAffinity>
-9.12541

$$$$
HIPS431


 36 39  0  0  0  0  0  0  0  0999 V2000
   69.4581   78.4447   90.6036 N   0  0  0  0  0  0  0  0  0  0  0  0
   68.8084   77.9875   91.7991 C   0  0  0  0  0  0  0  0  0  0  0  0
   67.8059   78.6145   92.2383 O   0  0  0  0  0  0  0  0  0  0  0  0
   69.3127   76.8451   92.5256 N   0  0  0  0  0  0  0  0  0  0  0  0
   70.3103   78.0284   90.3394 H   0  0  0  0  0  0  0  0  0  0  0  0
   67.8601   79.3193   88.8717 C   0  0  0  0  0  0  0  0  0  0  0  0
   67.5576   80.8156   88.1692 S   0  0  0  0  0  0  0  0  0  0  0  0
   68.7538   81.6848   88.9823 C   0  0  0  0  0  0  0  0  0  0  0  0
   69.4192   80.7928   89.8253 C   0  0  0  0  0  0  0  0  0  0  0  0
   68.9141   79.4842   89.7792 C   0  0  0  0  0  0  0  0  0  0  0  0
   69.0313   83.1366   88.8162 C   0  0  0  0  0  0  0  0  0  0  0  0
   67.9918   84.0760   88.9449 C   0  0  0  0  0  0  0  0  0  0  0  0
   68.2432   85.4416   88.7920 C   0  0  0  0  0  0  0  0  0  0  0  0
   69.5338   85.8957   88.5095 C   0  0  0  0  0  0  0  0  0  0  0  0
   69.8091   87.6224   88.3260 Cl  0  0  0  0  0  0  0  0  0  0  0  0
   70.5821   84.9726   88.3783 C   0  0  0  0  0  0  0  0  0  0  0  0
   72.2218   85.5031   88.0210 Cl  0  0  0  0  0  0  0  0  0  0  0  0
   70.3300   83.6042   88.5320 C   0  0  0  0  0  0  0  0  0  0  0  0
   66.1331   77.6984   89.0963 O   0  0  0  0  0  0  0  0  0  0  0  0
   67.1652   78.0796   88.4841 C   0  0  0  0  0  0  0  0  0  0  0  0
   67.6724   77.3036   87.4457 O   0  0  0  0  0  0  0  0  0  0  0  0
   68.4401   77.5807   86.9855 H   0  0  0  0  0  0  0  0  0  0  0  0
   69.0553   76.7299   93.9709 C   0  0  0  0  0  0  0  0  0  0  0  0
   67.9732   75.7179   94.2447 C   0  0  0  0  0  0  0  0  0  0  0  0
   66.6925   75.8746   93.6821 C   0  0  0  0  0  0  0  0  0  0  0  0
   65.6801   74.9530   93.9684 C   0  0  0  0  0  0  0  0  0  0  0  0
   65.9356   73.8740   94.8223 C   0  0  0  0  0  0  0  0  0  0  0  0
   67.2044   73.7123   95.3874 C   0  0  0  0  0  0  0  0  0  0  0  0
   68.2209   74.6295   95.1007 C   0  0  0  0  0  0  0  0  0  0  0  0
   70.1205   75.8098   91.8561 C   0  0  0  0  0  0  0  0  0  0  0  0
   69.2424   74.7509   91.2335 C   0  0  0  0  0  0  0  0  0  0  0  0
   69.3343   73.4073   91.6482 C   0  0  0  0  0  0  0  0  0  0  0  0
   68.5496   72.4236   91.0360 C   0  0  0  0  0  0  0  0  0  0  0  0
   67.6633   72.7714   90.0117 C   0  0  0  0  0  0  0  0  0  0  0  0
   67.5514   74.1068   89.6055 C   0  0  0  0  0  0  0  0  0  0  0  0
   68.3330   75.0926   90.2165 C   0  0  0  0  0  0  0  0  0  0  0  0
 19 20  2  0  0  0
 20 21  1  0  0  0
 20  6  1  0  0  0
  6  7  1  0  0  0
  7  8  1  0  0  0
  8 11  1  0  0  0
 11 12  2  0  0  0
 12 13  1  0  0  0
 13 14  2  0  0  0
 14 15  1  0  0  0
 14 16  1  0  0  0
 16 17  1  0  0  0
 16 18  2  0  0  0
  8  9  2  0  0  0
  9 10  1  0  0  0
 10  1  1  0  0  0
  1  2  1  0  0  0
  2  3  2  0  0  0
  2  4  1  0  0  0
  4 23  1  0  0  0
 23 24  1  0  0  0
 24 25  2  0  0  0
 25 26  1  0  0  0
 26 27  2  0  0  0
 27 28  1  0  0  0
 28 29  2  0  0  0
  4 30  1  0  0  0
 30 31  1  0  0  0
 31 32  2  0  0  0
 32 33  1  0  0  0
 33 34  2  0  0  0
 34 35  1  0  0  0
 35 36  2  0  0  0
 10  6  2  0  0  0
 29 24  1  0  0  0
 36 31  1  0  0  0
 18 11  1  0  0  0
 21 22  1  0  0  0
  1  5  1  0  0  0
M  END
> <score>
-0.154405

> <minimizedAffinity>
-8.96615

$$$$
HIPS435


 30 32  0  0  0  0  0  0  0  0999 V2000
   67.4690   79.1804   90.5319 C   0  0  0  0  0  0  0  0  0  0  0  0
   67.4504   78.6094   91.8177 C   0  0  0  0  0  0  0  0  0  0  0  0
   67.1907   77.2379   91.8217 C   0  0  0  0  0  0  0  0  0  0  0  0
   66.9926   76.7519   90.2192 S   0  0  0  0  0  0  0  0  0  0  0  0
   67.2328   78.2569   89.5090 C   0  0  0  0  0  0  0  0  0  0  0  0
   67.1099   76.3473   93.0091 C   0  0  0  0  0  0  0  0  0  0  0  0
   65.9338   76.2657   93.7786 C   0  0  0  0  0  0  0  0  0  0  0  0
   65.8707   75.4250   94.8928 C   0  0  0  0  0  0  0  0  0  0  0  0
   66.9760   74.6532   95.2601 C   0  0  0  0  0  0  0  0  0  0  0  0
   66.8557   73.6079   96.6690 Cl  0  0  0  0  0  0  0  0  0  0  0  0
   68.1564   74.7257   94.5047 C   0  0  0  0  0  0  0  0  0  0  0  0
   69.5706   73.7714   94.9320 Cl  0  0  0  0  0  0  0  0  0  0  0  0
   68.2197   75.5686   93.3887 C   0  0  0  0  0  0  0  0  0  0  0  0
   69.1841   82.2624   89.0897 N   0  0  0  0  0  0  0  0  0  0  0  0
   69.0482   80.9749   89.7316 C   0  0  0  0  0  0  0  0  0  0  0  0
   70.0477   80.2075   89.8047 O   0  0  0  0  0  0  0  0  0  0  0  0
   67.7959   80.5595   90.3005 N   0  0  0  0  0  0  0  0  0  0  0  0
   67.1351   81.2483   90.5414 H   0  0  0  0  0  0  0  0  0  0  0  0
   70.4942   82.8525   88.9533 C   0  0  0  0  0  0  0  0  0  0  0  0
   70.8133   83.6095   87.8117 C   0  0  0  0  0  0  0  0  0  0  0  0
   72.0813   84.1821   87.6742 C   0  0  0  0  0  0  0  0  0  0  0  0
   73.0420   84.0046   88.6728 C   0  0  0  0  0  0  0  0  0  0  0  0
   72.7361   83.2540   89.8107 C   0  0  0  0  0  0  0  0  0  0  0  0
   71.4693   82.6791   89.9524 C   0  0  0  0  0  0  0  0  0  0  0  0
   67.5633   84.1036   89.3984 C   0  0  0  0  0  0  0  0  0  0  0  0
   68.0143   82.9448   88.5123 C   0  0  0  0  0  0  0  0  0  0  0  0
   67.1357   78.5111   88.0612 C   0  0  0  0  0  0  0  0  0  0  0  0
   66.6250   79.5869   87.6497 O   0  0  0  0  0  0  0  0  0  0  0  0
   67.6262   77.5909   87.1405 O   0  0  0  0  0  0  0  0  0  0  0  0
   68.0076   76.7884   87.4379 H   0  0  0  0  0  0  0  0  0  0  0  0
 25 26  1  0  0  0
 26 14  1  0  0  0
 14 15  1  0  0  0
 15 16  2  0  0  0
 15 17  1  0  0  0
 17  1  1  0  0  0
  1  2  1  0  0  0
  2  3  2  0  0  0
  3  6  1  0  0  0
  6  7  2  0  0  0
  7  8  1  0  0  0
  8  9  2  0  0  0
  9 10  1  0  0  0
  9 11  1  0  0  0
 11 12  1  0  0  0
 11 13  2  0  0  0
  3  4  1  0  0  0
  4  5  1  0  0  0
  5 27  1  0  0  0
 27 28  2  0  0  0
 27 29  1  0  0  0
 14 19  1  0  0  0
 19 20  2  0  0  0
 20 21  1  0  0  0
 21 22  2  0  0  0
 22 23  1  0  0  0
 23 24  2  0  0  0
  5  1  2  0  0  0
 24 19  1  0  0  0
 13  6  1  0  0  0
 17 18  1  0  0  0
 29 30  1  0  0  0
M  END
> <score>
-0.57467

> <minimizedAffinity>
-8.06712

$$$$
HIPS435


 30 32  0  0  0  0  0  0  0  0999 V2000
   68.2400   77.4050   90.8487 C   0  0  0  0  0  0  0  0  0  0  0  0
   68.8462   76.4719   91.7098 C   0  0  0  0  0  0  0  0  0  0  0  0
   68.6674   75.1441   91.3179 C   0  0  0  0  0  0  0  0  0  0  0  0
   67.7588   75.1499   89.8974 S   0  0  0  0  0  0  0  0  0  0  0  0
   67.5848   76.8168   89.7625 C   0  0  0  0  0  0  0  0  0  0  0  0
   69.1839   73.9321   92.0062 C   0  0  0  0  0  0  0  0  0  0  0  0
   69.5114   73.9569   93.3752 C   0  0  0  0  0  0  0  0  0  0  0  0
   69.9965   72.8110   94.0106 C   0  0  0  0  0  0  0  0  0  0  0  0
   70.1648   71.6228   93.2947 C   0  0  0  0  0  0  0  0  0  0  0  0
   70.7779   70.2029   94.1313 Cl  0  0  0  0  0  0  0  0  0  0  0  0
   69.8455   71.5831   91.9288 C   0  0  0  0  0  0  0  0  0  0  0  0
   70.0421   70.1085   90.9906 Cl  0  0  0  0  0  0  0  0  0  0  0  0
   69.3600   72.7316   91.2923 C   0  0  0  0  0  0  0  0  0  0  0  0
   69.0997   81.0436   90.1127 N   0  0  0  0  0  0  0  0  0  0  0  0
   69.2928   79.6195   90.2634 C   0  0  0  0  0  0  0  0  0  0  0  0
   70.2925   79.0668   89.7267 O   0  0  0  0  0  0  0  0  0  0  0  0
   68.3713   78.8240   91.0267 N   0  0  0  0  0  0  0  0  0  0  0  0
   67.8070   79.2698   91.6991 H   0  0  0  0  0  0  0  0  0  0  0  0
   70.2253   81.8799   89.7708 C   0  0  0  0  0  0  0  0  0  0  0  0
   70.1310   82.7905   88.7031 C   0  0  0  0  0  0  0  0  0  0  0  0
   71.2188   83.6019   88.3670 C   0  0  0  0  0  0  0  0  0  0  0  0
   72.4097   83.5123   89.0918 C   0  0  0  0  0  0  0  0  0  0  0  0
   72.5148   82.6107   90.1539 C   0  0  0  0  0  0  0  0  0  0  0  0
   71.4295   81.7969   90.4934 C   0  0  0  0  0  0  0  0  0  0  0  0
   67.5938   82.3472   91.5773 C   0  0  0  0  0  0  0  0  0  0  0  0
   67.7593   81.6404   90.2340 C   0  0  0  0  0  0  0  0  0  0  0  0
   66.8117   77.4825   88.6999 C   0  0  0  0  0  0  0  0  0  0  0  0
   66.6481   76.9046   87.5922 O   0  0  0  0  0  0  0  0  0  0  0  0
   66.2347   78.7303   88.9120 O   0  0  0  0  0  0  0  0  0  0  0  0
   66.3513   79.1670   89.7327 H   0  0  0  0  0  0  0  0  0  0  0  0
 25 26  1  0  0  0
 26 14  1  0  0  0
 14 15  1  0  0  0
 15 16  2  0  0  0
 15 17  1  0  0  0
 17  1  1  0  0  0
  1  2  1  0  0  0
  2  3  2  0  0  0
  3  6  1  0  0  0
  6  7  2  0  0  0
  7  8  1  0  0  0
  8  9  2  0  0  0
  9 10  1  0  0  0
  9 11  1  0  0  0
 11 12  1  0  0  0
 11 13  2  0  0  0
  3  4  1  0  0  0
  4  5  1  0  0  0
  5 27  1  0  0  0
 27 28  2  0  0  0
 27 29  1  0  0  0
 14 19  1  0  0  0
 19 20  2  0  0  0
 20 21  1  0  0  0
 21 22  2  0  0  0
 22 23  1  0  0  0
 23 24  2  0  0  0
  5  1  2  0  0  0
 24 19  1  0  0  0
 13  6  1  0  0  0
 17 18  1  0  0  0
 29 30  1  0  0  0
M  END
> <score>
-0.57467

> <minimizedAffinity>
-7.56526

$$$$
HIPS435


 30 32  0  0  0  0  0  0  0  0999 V2000
   68.1518   77.9565   90.6570 C   0  0  0  0  0  0  0  0  0  0  0  0
   68.6974   76.8927   91.3990 C   0  0  0  0  0  0  0  0  0  0  0  0
   68.3490   75.6307   90.9148 C   0  0  0  0  0  0  0  0  0  0  0  0
   67.3679   75.8567   89.5621 S   0  0  0  0  0  0  0  0  0  0  0  0
   67.3745   77.5380   89.5727 C   0  0  0  0  0  0  0  0  0  0  0  0
   68.7645   74.3154   91.4685 C   0  0  0  0  0  0  0  0  0  0  0  0
   68.7557   73.1549   90.6714 C   0  0  0  0  0  0  0  0  0  0  0  0
   69.1483   71.9242   91.2037 C   0  0  0  0  0  0  0  0  0  0  0  0
   69.5546   71.8276   92.5372 C   0  0  0  0  0  0  0  0  0  0  0  0
   70.0410   70.2603   93.1689 Cl  0  0  0  0  0  0  0  0  0  0  0  0
   69.5660   72.9748   93.3453 C   0  0  0  0  0  0  0  0  0  0  0  0
   70.0704   72.8977   95.0284 Cl  0  0  0  0  0  0  0  0  0  0  0  0
   69.1721   74.2078   92.8117 C   0  0  0  0  0  0  0  0  0  0  0  0
   69.3691   81.5328   90.1587 N   0  0  0  0  0  0  0  0  0  0  0  0
   69.4100   80.0885   90.1816 C   0  0  0  0  0  0  0  0  0  0  0  0
   70.3088   79.4811   89.5363 O   0  0  0  0  0  0  0  0  0  0  0  0
   68.4512   79.3324   90.9389 N   0  0  0  0  0  0  0  0  0  0  0  0
   67.9803   79.7757   91.6812 H   0  0  0  0  0  0  0  0  0  0  0  0
   70.5595   82.2709   89.8100 C   0  0  0  0  0  0  0  0  0  0  0  0
   70.5609   83.1224   88.6907 C   0  0  0  0  0  0  0  0  0  0  0  0
   71.7117   83.8386   88.3480 C   0  0  0  0  0  0  0  0  0  0  0  0
   72.8708   83.7116   89.1175 C   0  0  0  0  0  0  0  0  0  0  0  0
   72.8809   82.8679   90.2311 C   0  0  0  0  0  0  0  0  0  0  0  0
   71.7323   82.1495   90.5774 C   0  0  0  0  0  0  0  0  0  0  0  0
   68.0706   82.7855   91.8489 C   0  0  0  0  0  0  0  0  0  0  0  0
   68.1132   82.2562   90.4173 C   0  0  0  0  0  0  0  0  0  0  0  0
   66.6220   78.3722   88.6198 C   0  0  0  0  0  0  0  0  0  0  0  0
   66.1442   79.4750   88.9982 O   0  0  0  0  0  0  0  0  0  0  0  0
   66.4550   77.9722   87.2980 O   0  0  0  0  0  0  0  0  0  0  0  0
   66.8071   77.1536   87.0082 H   0  0  0  0  0  0  0  0  0  0  0  0
 25 26  1  0  0  0
 26 14  1  0  0  0
 14 15  1  0  0  0
 15 16  2  0  0  0
 15 17  1  0  0  0
 17  1  1  0  0  0
  1  2  1  0  0  0
  2  3  2  0  0  0
  3  6  1  0  0  0
  6  7  2  0  0  0
  7  8  1  0  0  0
  8  9  2  0  0  0
  9 10  1  0  0  0
  9 11  1  0  0  0
 11 12  1  0  0  0
 11 13  2  0  0  0
  3  4  1  0  0  0
  4  5  1  0  0  0
  5 27  1  0  0  0
 27 28  2  0  0  0
 27 29  1  0  0  0
 14 19  1  0  0  0
 19 20  2  0  0  0
 20 21  1  0  0  0
 21 22  2  0  0  0
 22 23  1  0  0  0
 23 24  2  0  0  0
  5  1  2  0  0  0
 24 19  1  0  0  0
 13  6  1  0  0  0
 17 18  1  0  0  0
 29 30  1  0  0  0
M  END
> <score>
-0.57467

> <minimizedAffinity>
-7.55650

$$$$
HIPS440


 32 34  0  0  0  0  0  0  0  0999 V2000
   67.8982   78.9891   90.4341 C   0  0  0  0  0  0  0  0  0  0  0  0
   67.8548   78.4206   91.7212 C   0  0  0  0  0  0  0  0  0  0  0  0
   67.4797   77.0771   91.7315 C   0  0  0  0  0  0  0  0  0  0  0  0
   67.2069   76.6085   90.1361 S   0  0  0  0  0  0  0  0  0  0  0  0
   67.5518   78.0893   89.4193 C   0  0  0  0  0  0  0  0  0  0  0  0
   67.3279   76.2053   92.9240 C   0  0  0  0  0  0  0  0  0  0  0  0
   66.1180   76.1902   93.6414 C   0  0  0  0  0  0  0  0  0  0  0  0
   65.9678   75.3733   94.7647 C   0  0  0  0  0  0  0  0  0  0  0  0
   67.0209   74.5611   95.1936 C   0  0  0  0  0  0  0  0  0  0  0  0
   66.7924   73.5475   96.6123 Cl  0  0  0  0  0  0  0  0  0  0  0  0
   68.2362   74.5694   94.4914 C   0  0  0  0  0  0  0  0  0  0  0  0
   69.5898   73.5699   95.0033 Cl  0  0  0  0  0  0  0  0  0  0  0  0
   68.3862   75.3874   93.3651 C   0  0  0  0  0  0  0  0  0  0  0  0
   69.7591   82.3180   90.2955 N   0  0  0  0  0  0  0  0  0  0  0  0
   69.5077   80.9098   90.1048 C   0  0  0  0  0  0  0  0  0  0  0  0
   70.4662   80.1419   89.8153 O   0  0  0  0  0  0  0  0  0  0  0  0
   68.1759   80.3808   90.2052 N   0  0  0  0  0  0  0  0  0  0  0  0
   67.4171   81.0012   90.1127 H   0  0  0  0  0  0  0  0  0  0  0  0
   70.7702   82.9748   89.4927 C   0  0  0  0  0  0  0  0  0  0  0  0
   70.4282   83.5479   88.2516 C   0  0  0  0  0  0  0  0  0  0  0  0
   71.3957   84.1892   87.4729 C   0  0  0  0  0  0  0  0  0  0  0  0
   72.7146   84.2721   87.9226 C   0  0  0  0  0  0  0  0  0  0  0  0
   73.0675   83.7172   89.1541 C   0  0  0  0  0  0  0  0  0  0  0  0
   72.1039   83.0748   89.9376 C   0  0  0  0  0  0  0  0  0  0  0  0
   69.0032   83.0765   91.3096 C   0  0  0  0  0  0  0  0  0  0  0  0
   69.8987   83.5436   92.4709 C   0  0  0  0  0  0  0  0  0  0  0  0
   67.8472   83.2569   93.9163 C   0  0  0  0  0  0  0  0  0  0  0  0
   69.0965   84.0941   93.6580 C   0  0  0  0  0  0  0  0  0  0  0  0
   67.5311   78.3164   87.9638 C   0  0  0  0  0  0  0  0  0  0  0  0
   67.2962   79.4592   87.4897 O   0  0  0  0  0  0  0  0  0  0  0  0
   67.8018   77.2590   87.1007 O   0  0  0  0  0  0  0  0  0  0  0  0
   67.9775   76.4057   87.4458 H   0  0  0  0  0  0  0  0  0  0  0  0
 27 28  1  0  0  0
 28 26  1  0  0  0
 26 25  1  0  0  0
 25 14  1  0  0  0
 14 15  1  0  0  0
 15 16  2  0  0  0
 15 17  1  0  0  0
 17  1  1  0  0  0
  1  2  1  0  0  0
  2  3  2  0  0  0
  3  6  1  0  0  0
  6  7  2  0  0  0
  7  8  1  0  0  0
  8  9  2  0  0  0
  9 10  1  0  0  0
  9 11  1  0  0  0
 11 12  1  0  0  0
 11 13  2  0  0  0
  3  4  1  0  0  0
  4  5  1  0  0  0
  5 29  1  0  0  0
 29 30  2  0  0  0
 29 31  1  0  0  0
 14 19  1  0  0  0
 19 20  2  0  0  0
 20 21  1  0  0  0
 21 22  2  0  0  0
 22 23  1  0  0  0
 23 24  2  0  0  0
  5  1  2  0  0  0
 24 19  1  0  0  0
 13  6  1  0  0  0
 17 18  1  0  0  0
 31 32  1  0  0  0
M  END
> <score>
-0.726353

> <minimizedAffinity>
-8.08907

$$$$
HIPS440


 32 34  0  0  0  0  0  0  0  0999 V2000
   67.4508   79.5952   90.8191 C   0  0  0  0  0  0  0  0  0  0  0  0
   68.5898   80.2217   90.2790 C   0  0  0  0  0  0  0  0  0  0  0  0
   68.4388   81.5947   90.0843 C   0  0  0  0  0  0  0  0  0  0  0  0
   66.8873   82.0166   90.5887 S   0  0  0  0  0  0  0  0  0  0  0  0
   66.3900   80.4788   91.0504 C   0  0  0  0  0  0  0  0  0  0  0  0
   69.4463   82.5292   89.5215 C   0  0  0  0  0  0  0  0  0  0  0  0
   69.0548   83.5314   88.6154 C   0  0  0  0  0  0  0  0  0  0  0  0
   69.9967   84.4139   88.0810 C   0  0  0  0  0  0  0  0  0  0  0  0
   71.3439   84.3104   88.4376 C   0  0  0  0  0  0  0  0  0  0  0  0
   72.4989   85.4399   87.7429 Cl  0  0  0  0  0  0  0  0  0  0  0  0
   71.7508   83.3121   89.3364 C   0  0  0  0  0  0  0  0  0  0  0  0
   73.4376   83.1410   89.8039 Cl  0  0  0  0  0  0  0  0  0  0  0  0
   70.8064   82.4284   89.8726 C   0  0  0  0  0  0  0  0  0  0  0  0
   67.9610   76.1278   92.3293 N   0  0  0  0  0  0  0  0  0  0  0  0
   67.6528   77.5364   92.2713 C   0  0  0  0  0  0  0  0  0  0  0  0
   67.6071   78.2063   93.3396 O   0  0  0  0  0  0  0  0  0  0  0  0
   67.3625   78.1741   91.0173 N   0  0  0  0  0  0  0  0  0  0  0  0
   67.0901   77.6109   90.2571 H   0  0  0  0  0  0  0  0  0  0  0  0
   67.4935   75.3434   93.4538 C   0  0  0  0  0  0  0  0  0  0  0  0
   66.1175   75.0864   93.6155 C   0  0  0  0  0  0  0  0  0  0  0  0
   65.6574   74.3253   94.6940 C   0  0  0  0  0  0  0  0  0  0  0  0
   66.5623   73.8067   95.6217 C   0  0  0  0  0  0  0  0  0  0  0  0
   67.9295   74.0447   95.4704 C   0  0  0  0  0  0  0  0  0  0  0  0
   68.3956   74.8050   94.3935 C   0  0  0  0  0  0  0  0  0  0  0  0
   68.7581   75.4975   91.2604 C   0  0  0  0  0  0  0  0  0  0  0  0
   67.8832   74.6936   90.2821 C   0  0  0  0  0  0  0  0  0  0  0  0
   69.2498   72.8584   91.3519 C   0  0  0  0  0  0  0  0  0  0  0  0
   68.1328   73.1814   90.3638 C   0  0  0  0  0  0  0  0  0  0  0  0
   65.0727   80.1905   91.6436 C   0  0  0  0  0  0  0  0  0  0  0  0
   64.0106   80.5371   91.0623 O   0  0  0  0  0  0  0  0  0  0  0  0
   64.9998   79.5011   92.8501 O   0  0  0  0  0  0  0  0  0  0  0  0
   65.7855   79.2399   93.2887 H   0  0  0  0  0  0  0  0  0  0  0  0
 27 28  1  0  0  0
 28 26  1  0  0  0
 26 25  1  0  0  0
 25 14  1  0  0  0
 14 15  1  0  0  0
 15 16  2  0  0  0
 15 17  1  0  0  0
 17  1  1  0  0  0
  1  2  1  0  0  0
  2  3  2  0  0  0
  3  6  1  0  0  0
  6  7  2  0  0  0
  7  8  1  0  0  0
  8  9  2  0  0  0
  9 10  1  0  0  0
  9 11  1  0  0  0
 11 12  1  0  0  0
 11 13  2  0  0  0
  3  4  1  0  0  0
  4  5  1  0  0  0
  5 29  1  0  0  0
 29 30  2  0  0  0
 29 31  1  0  0  0
 14 19  1  0  0  0
 19 20  2  0  0  0
 20 21  1  0  0  0
 21 22  2  0  0  0
 22 23  1  0  0  0
 23 24  2  0  0  0
  5  1  2  0  0  0
 24 19  1  0  0  0
 13  6  1  0  0  0
 17 18  1  0  0  0
 31 32  1  0  0  0
M  END
> <score>
-0.726353

> <minimizedAffinity>
-8.06944

$$$$
HIPS440


 32 34  0  0  0  0  0  0  0  0999 V2000
   67.5124   79.6781   90.8244 C   0  0  0  0  0  0  0  0  0  0  0  0
   68.6469   80.3245   90.2984 C   0  0  0  0  0  0  0  0  0  0  0  0
   68.4762   81.6955   90.1065 C   0  0  0  0  0  0  0  0  0  0  0  0
   66.9130   82.0911   90.5957 S   0  0  0  0  0  0  0  0  0  0  0  0
   66.4353   80.5440   91.0473 C   0  0  0  0  0  0  0  0  0  0  0  0
   69.4746   82.6478   89.5574 C   0  0  0  0  0  0  0  0  0  0  0  0
   70.8459   82.4594   89.8079 C   0  0  0  0  0  0  0  0  0  0  0  0
   71.7912   83.3513   89.2955 C   0  0  0  0  0  0  0  0  0  0  0  0
   71.3859   84.4468   88.5285 C   0  0  0  0  0  0  0  0  0  0  0  0
   72.6063   85.5469   87.9018 Cl  0  0  0  0  0  0  0  0  0  0  0  0
   70.0207   84.6513   88.2746 C   0  0  0  0  0  0  0  0  0  0  0  0
   69.4675   86.0227   87.3224 Cl  0  0  0  0  0  0  0  0  0  0  0  0
   69.0736   83.7567   88.7874 C   0  0  0  0  0  0  0  0  0  0  0  0
   68.0269   76.2190   92.3520 N   0  0  0  0  0  0  0  0  0  0  0  0
   67.6928   77.6212   92.2819 C   0  0  0  0  0  0  0  0  0  0  0  0
   67.5869   78.2879   93.3479 O   0  0  0  0  0  0  0  0  0  0  0  0
   67.4446   78.2552   91.0171 N   0  0  0  0  0  0  0  0  0  0  0  0
   67.2171   77.6881   90.2452 H   0  0  0  0  0  0  0  0  0  0  0  0
   67.5269   75.4232   93.4541 C   0  0  0  0  0  0  0  0  0  0  0  0
   68.4165   74.9112   94.4196 C   0  0  0  0  0  0  0  0  0  0  0  0
   67.9425   74.1474   95.4902 C   0  0  0  0  0  0  0  0  0  0  0  0
   66.5766   73.8883   95.6151 C   0  0  0  0  0  0  0  0  0  0  0  0
   65.6814   74.3961   94.6719 C   0  0  0  0  0  0  0  0  0  0  0  0
   66.1496   75.1610   93.5991 C   0  0  0  0  0  0  0  0  0  0  0  0
   68.8826   75.6071   91.3183 C   0  0  0  0  0  0  0  0  0  0  0  0
   68.0623   74.8378   90.2675 C   0  0  0  0  0  0  0  0  0  0  0  0
   69.2959   72.9263   91.3649 C   0  0  0  0  0  0  0  0  0  0  0  0
   68.1395   73.3156   90.4487 C   0  0  0  0  0  0  0  0  0  0  0  0
   65.1165   80.2329   91.6255 C   0  0  0  0  0  0  0  0  0  0  0  0
   64.0552   80.5538   91.0282 O   0  0  0  0  0  0  0  0  0  0  0  0
   65.0420   79.5504   92.8358 O   0  0  0  0  0  0  0  0  0  0  0  0
   65.8271   79.3082   93.2862 H   0  0  0  0  0  0  0  0  0  0  0  0
 27 28  1  0  0  0
 28 26  1  0  0  0
 26 25  1  0  0  0
 25 14  1  0  0  0
 14 15  1  0  0  0
 15 16  2  0  0  0
 15 17  1  0  0  0
 17  1  1  0  0  0
  1  2  1  0  0  0
  2  3  2  0  0  0
  3  6  1  0  0  0
  6  7  2  0  0  0
  7  8  1  0  0  0
  8  9  2  0  0  0
  9 10  1  0  0  0
  9 11  1  0  0  0
 11 12  1  0  0  0
 11 13  2  0  0  0
  3  4  1  0  0  0
  4  5  1  0  0  0
  5 29  1  0  0  0
 29 30  2  0  0  0
 29 31  1  0  0  0
 14 19  1  0  0  0
 19 20  2  0  0  0
 20 21  1  0  0  0
 21 22  2  0  0  0
 22 23  1  0  0  0
 23 24  2  0  0  0
  5  1  2  0  0  0
 24 19  1  0  0  0
 13  6  1  0  0  0
 17 18  1  0  0  0
 31 32  1  0  0  0
M  END
> <score>
-0.726353

> <minimizedAffinity>
-8.02842

$$$$
HIPS441


 31 33  0  0  0  0  0  0  0  0999 V2000
   69.5572   78.1930   90.2251 C   0  0  0  0  0  0  0  0  0  0  0  0
   68.6738   79.2606   90.0070 C   0  0  0  0  0  0  0  0  0  0  0  0
   69.3007   80.5073   89.9632 C   0  0  0  0  0  0  0  0  0  0  0  0
   70.9561   80.2548   90.1716 S   0  0  0  0  0  0  0  0  0  0  0  0
   70.8971   78.5816   90.3248 C   0  0  0  0  0  0  0  0  0  0  0  0
   68.6481   81.8271   89.7621 C   0  0  0  0  0  0  0  0  0  0  0  0
   68.7801   82.5255   88.5455 C   0  0  0  0  0  0  0  0  0  0  0  0
   68.1600   83.7673   88.3677 C   0  0  0  0  0  0  0  0  0  0  0  0
   68.3317   84.6230   86.8458 Cl  0  0  0  0  0  0  0  0  0  0  0  0
   67.4009   84.3256   89.3988 C   0  0  0  0  0  0  0  0  0  0  0  0
   67.2582   83.6431   90.6090 C   0  0  0  0  0  0  0  0  0  0  0  0
   66.3040   84.3456   91.9028 Cl  0  0  0  0  0  0  0  0  0  0  0  0
   67.8761   82.4011   90.7907 C   0  0  0  0  0  0  0  0  0  0  0  0
   68.9307   74.7025   91.6578 N   0  0  0  0  0  0  0  0  0  0  0  0
   69.1226   76.1356   91.5954 C   0  0  0  0  0  0  0  0  0  0  0  0
   69.3376   76.7808   92.6588 O   0  0  0  0  0  0  0  0  0  0  0  0
   69.0915   76.8426   90.3433 N   0  0  0  0  0  0  0  0  0  0  0  0
   68.7405   76.3860   89.5448 H   0  0  0  0  0  0  0  0  0  0  0  0
   68.7125   72.4395   90.7132 C   0  0  0  0  0  0  0  0  0  0  0  0
   68.4984   73.9320   90.4824 C   0  0  0  0  0  0  0  0  0  0  0  0
   69.2161   73.9904   92.9128 C   0  0  0  0  0  0  0  0  0  0  0  0
   68.0621   74.1358   93.8692 C   0  0  0  0  0  0  0  0  0  0  0  0
   66.7509   73.8810   93.4343 C   0  0  0  0  0  0  0  0  0  0  0  0
   65.6799   73.9820   94.3275 C   0  0  0  0  0  0  0  0  0  0  0  0
   65.9101   74.3328   95.6605 C   0  0  0  0  0  0  0  0  0  0  0  0
   67.2120   74.5829   96.1025 C   0  0  0  0  0  0  0  0  0  0  0  0
   68.2857   74.4844   95.2122 C   0  0  0  0  0  0  0  0  0  0  0  0
   72.0861   77.7182   90.4231 C   0  0  0  0  0  0  0  0  0  0  0  0
   72.9335   77.7127   89.4908 O   0  0  0  0  0  0  0  0  0  0  0  0
   72.2648   76.8777   91.5171 O   0  0  0  0  0  0  0  0  0  0  0  0
   71.6386   76.8765   92.2141 H   0  0  0  0  0  0  0  0  0  0  0  0
 19 20  1  0  0  0
 20 14  1  0  0  0
 14 21  1  0  0  0
 21 22  1  0  0  0
 22 23  2  0  0  0
 23 24  1  0  0  0
 24 25  2  0  0  0
 25 26  1  0  0  0
 26 27  2  0  0  0
 14 15  1  0  0  0
 15 16  2  0  0  0
 15 17  1  0  0  0
 17  1  1  0  0  0
  1  2  1  0  0  0
  2  3  2  0  0  0
  3  6  1  0  0  0
  6  7  2  0  0  0
  7  8  1  0  0  0
  8  9  1  0  0  0
  8 10  2  0  0  0
 10 11  1  0  0  0
 11 12  1  0  0  0
 11 13  2  0  0  0
  3  4  1  0  0  0
  4  5  1  0  0  0
  5 28  1  0  0  0
 28 29  2  0  0  0
 28 30  1  0  0  0
 27 22  1  0  0  0
  5  1  2  0  0  0
 13  6  1  0  0  0
 17 18  1  0  0  0
 30 31  1  0  0  0
M  END
> <score>
0.315267

> <minimizedAffinity>
-7.86062

$$$$
HIPS441


 31 33  0  0  0  0  0  0  0  0999 V2000
   69.5746   78.2237   90.2358 C   0  0  0  0  0  0  0  0  0  0  0  0
   68.6965   79.2951   90.0146 C   0  0  0  0  0  0  0  0  0  0  0  0
   69.3289   80.5391   89.9731 C   0  0  0  0  0  0  0  0  0  0  0  0
   70.9825   80.2795   90.1874 S   0  0  0  0  0  0  0  0  0  0  0  0
   70.9158   78.6065   90.3403 C   0  0  0  0  0  0  0  0  0  0  0  0
   68.6826   81.8616   89.7698 C   0  0  0  0  0  0  0  0  0  0  0  0
   67.8753   82.4378   90.7706 C   0  0  0  0  0  0  0  0  0  0  0  0
   67.2728   83.6843   90.5680 C   0  0  0  0  0  0  0  0  0  0  0  0
   66.2727   84.3895   91.8251 Cl  0  0  0  0  0  0  0  0  0  0  0  0
   67.4691   84.3707   89.3673 C   0  0  0  0  0  0  0  0  0  0  0  0
   68.2698   83.8137   88.3676 C   0  0  0  0  0  0  0  0  0  0  0  0
   68.5158   84.6773   86.8605 Cl  0  0  0  0  0  0  0  0  0  0  0  0
   68.8745   82.5678   88.5665 C   0  0  0  0  0  0  0  0  0  0  0  0
   68.9412   74.7307   91.6593 N   0  0  0  0  0  0  0  0  0  0  0  0
   69.1401   76.1630   91.6012 C   0  0  0  0  0  0  0  0  0  0  0  0
   69.3670   76.8027   92.6654 O   0  0  0  0  0  0  0  0  0  0  0  0
   69.1028   76.8752   90.3522 N   0  0  0  0  0  0  0  0  0  0  0  0
   68.7430   76.4238   89.5547 H   0  0  0  0  0  0  0  0  0  0  0  0
   68.7524   72.4773   90.6859 C   0  0  0  0  0  0  0  0  0  0  0  0
   68.4955   73.9673   90.4842 C   0  0  0  0  0  0  0  0  0  0  0  0
   69.2328   74.0120   92.9091 C   0  0  0  0  0  0  0  0  0  0  0  0
   68.0686   74.1218   93.8579 C   0  0  0  0  0  0  0  0  0  0  0  0
   68.2718   74.5735   95.1724 C   0  0  0  0  0  0  0  0  0  0  0  0
   67.1889   74.7091   96.0465 C   0  0  0  0  0  0  0  0  0  0  0  0
   65.8964   74.4001   95.6138 C   0  0  0  0  0  0  0  0  0  0  0  0
   65.6850   73.9551   94.3061 C   0  0  0  0  0  0  0  0  0  0  0  0
   66.7654   73.8166   93.4293 C   0  0  0  0  0  0  0  0  0  0  0  0
   72.1007   77.7381   90.4428 C   0  0  0  0  0  0  0  0  0  0  0  0
   72.9235   77.6881   89.4899 O   0  0  0  0  0  0  0  0  0  0  0  0
   72.3019   76.9411   91.5650 O   0  0  0  0  0  0  0  0  0  0  0  0
   71.6942   76.9731   92.2775 H   0  0  0  0  0  0  0  0  0  0  0  0
 19 20  1  0  0  0
 20 14  1  0  0  0
 14 21  1  0  0  0
 21 22  1  0  0  0
 22 23  2  0  0  0
 23 24  1  0  0  0
 24 25  2  0  0  0
 25 26  1  0  0  0
 26 27  2  0  0  0
 14 15  1  0  0  0
 15 16  2  0  0  0
 15 17  1  0  0  0
 17  1  1  0  0  0
  1  2  1  0  0  0
  2  3  2  0  0  0
  3  6  1  0  0  0
  6  7  2  0  0  0
  7  8  1  0  0  0
  8  9  1  0  0  0
  8 10  2  0  0  0
 10 11  1  0  0  0
 11 12  1  0  0  0
 11 13  2  0  0  0
  3  4  1  0  0  0
  4  5  1  0  0  0
  5 28  1  0  0  0
 28 29  2  0  0  0
 28 30  1  0  0  0
 27 22  1  0  0  0
  5  1  2  0  0  0
 13  6  1  0  0  0
 17 18  1  0  0  0
 30 31  1  0  0  0
M  END
> <score>
0.315267

> <minimizedAffinity>
-7.84664

$$$$
HIPS441


 31 33  0  0  0  0  0  0  0  0999 V2000
   67.7282   79.2002   90.4398 C   0  0  0  0  0  0  0  0  0  0  0  0
   68.7915   79.8442   89.7899 C   0  0  0  0  0  0  0  0  0  0  0  0
   68.7347   81.2370   89.8668 C   0  0  0  0  0  0  0  0  0  0  0  0
   67.3685   81.6441   90.7699 S   0  0  0  0  0  0  0  0  0  0  0  0
   66.8355   80.0770   91.0648 C   0  0  0  0  0  0  0  0  0  0  0  0
   69.6968   82.2028   89.2753 C   0  0  0  0  0  0  0  0  0  0  0  0
   71.0188   82.2974   89.7536 C   0  0  0  0  0  0  0  0  0  0  0  0
   71.9159   83.2101   89.1879 C   0  0  0  0  0  0  0  0  0  0  0  0
   73.5595   83.3137   89.7930 Cl  0  0  0  0  0  0  0  0  0  0  0  0
   71.5066   84.0368   88.1390 C   0  0  0  0  0  0  0  0  0  0  0  0
   70.2003   83.9516   87.6520 C   0  0  0  0  0  0  0  0  0  0  0  0
   69.6880   84.9903   86.3342 Cl  0  0  0  0  0  0  0  0  0  0  0  0
   69.3003   83.0400   88.2145 C   0  0  0  0  0  0  0  0  0  0  0  0
   68.2171   75.5223   91.3686 N   0  0  0  0  0  0  0  0  0  0  0  0
   68.0904   76.9573   91.5066 C   0  0  0  0  0  0  0  0  0  0  0  0
   68.4366   77.5108   92.5869 O   0  0  0  0  0  0  0  0  0  0  0  0
   67.5939   77.7731   90.4312 N   0  0  0  0  0  0  0  0  0  0  0  0
   67.1493   77.3392   89.6675 H   0  0  0  0  0  0  0  0  0  0  0  0
   68.1644   73.3686   90.1769 C   0  0  0  0  0  0  0  0  0  0  0  0
   67.6624   74.8087   90.2088 C   0  0  0  0  0  0  0  0  0  0  0  0
   68.9556   74.7619   92.3885 C   0  0  0  0  0  0  0  0  0  0  0  0
   68.0680   74.4768   93.5710 C   0  0  0  0  0  0  0  0  0  0  0  0
   66.6741   74.4168   93.4069 C   0  0  0  0  0  0  0  0  0  0  0  0
   65.8484   74.1191   94.4953 C   0  0  0  0  0  0  0  0  0  0  0  0
   66.4075   73.8746   95.7526 C   0  0  0  0  0  0  0  0  0  0  0  0
   67.7935   73.9272   95.9233 C   0  0  0  0  0  0  0  0  0  0  0  0
   68.6227   74.2260   94.8377 C   0  0  0  0  0  0  0  0  0  0  0  0
   65.6949   79.7419   91.9339 C   0  0  0  0  0  0  0  0  0  0  0  0
   64.5651   80.2512   91.7068 O   0  0  0  0  0  0  0  0  0  0  0  0
   65.8596   78.8991   93.0283 O   0  0  0  0  0  0  0  0  0  0  0  0
   66.6970   78.5168   93.2033 H   0  0  0  0  0  0  0  0  0  0  0  0
 19 20  1  0  0  0
 20 14  1  0  0  0
 14 21  1  0  0  0
 21 22  1  0  0  0
 22 23  2  0  0  0
 23 24  1  0  0  0
 24 25  2  0  0  0
 25 26  1  0  0  0
 26 27  2  0  0  0
 14 15  1  0  0  0
 15 16  2  0  0  0
 15 17  1  0  0  0
 17  1  1  0  0  0
  1  2  1  0  0  0
  2  3  2  0  0  0
  3  6  1  0  0  0
  6  7  2  0  0  0
  7  8  1  0  0  0
  8  9  1  0  0  0
  8 10  2  0  0  0
 10 11  1  0  0  0
 11 12  1  0  0  0
 11 13  2  0  0  0
  3  4  1  0  0  0
  4  5  1  0  0  0
  5 28  1  0  0  0
 28 29  2  0  0  0
 28 30  1  0  0  0
 27 22  1  0  0  0
  5  1  2  0  0  0
 13  6  1  0  0  0
 17 18  1  0  0  0
 30 31  1  0  0  0
M  END
> <score>
0.315267

> <minimizedAffinity>
-7.79066

$$$$
HIPS448


 29 31  0  0  0  0  0  0  0  0999 V2000
   67.5751   79.0508   90.3842 C   0  0  0  0  0  0  0  0  0  0  0  0
   67.4879   78.5103   91.6758 C   0  0  0  0  0  0  0  0  0  0  0  0
   67.3414   77.1220   91.6944 C   0  0  0  0  0  0  0  0  0  0  0  0
   67.2950   76.5917   90.0933 S   0  0  0  0  0  0  0  0  0  0  0  0
   67.4660   78.0970   89.3660 C   0  0  0  0  0  0  0  0  0  0  0  0
   67.2334   76.2524   92.8944 C   0  0  0  0  0  0  0  0  0  0  0  0
   66.0491   76.2357   93.6538 C   0  0  0  0  0  0  0  0  0  0  0  0
   65.9396   75.4208   94.7833 C   0  0  0  0  0  0  0  0  0  0  0  0
   67.0062   74.6071   95.1736 C   0  0  0  0  0  0  0  0  0  0  0  0
   66.8289   73.5957   96.6012 Cl  0  0  0  0  0  0  0  0  0  0  0  0
   68.1927   74.6090   94.4240 C   0  0  0  0  0  0  0  0  0  0  0  0
   69.5563   73.5942   94.8764 Cl  0  0  0  0  0  0  0  0  0  0  0  0
   68.3025   75.4263   93.2923 C   0  0  0  0  0  0  0  0  0  0  0  0
   67.9899   83.2752   89.3907 C   0  0  0  0  0  0  0  0  0  0  0  0
   69.1636   82.3980   89.4241 N   0  0  0  0  0  0  0  0  0  0  0  0
   69.0398   81.0178   89.8345 C   0  0  0  0  0  0  0  0  0  0  0  0
   70.0720   80.2966   89.9248 O   0  0  0  0  0  0  0  0  0  0  0  0
   67.7587   80.4562   90.1679 N   0  0  0  0  0  0  0  0  0  0  0  0
   66.9825   81.0562   90.2503 H   0  0  0  0  0  0  0  0  0  0  0  0
   70.4558   82.9445   89.0970 C   0  0  0  0  0  0  0  0  0  0  0  0
   70.6488   83.6436   87.8929 C   0  0  0  0  0  0  0  0  0  0  0  0
   71.9020   84.1805   87.5822 C   0  0  0  0  0  0  0  0  0  0  0  0
   72.9696   84.0272   88.4708 C   0  0  0  0  0  0  0  0  0  0  0  0
   72.7851   83.3387   89.6730 C   0  0  0  0  0  0  0  0  0  0  0  0
   71.5333   82.8008   89.9876 C   0  0  0  0  0  0  0  0  0  0  0  0
   67.3896   78.3189   87.9124 C   0  0  0  0  0  0  0  0  0  0  0  0
   66.9162   79.3895   87.4472 O   0  0  0  0  0  0  0  0  0  0  0  0
   67.8134   77.3201   87.0414 O   0  0  0  0  0  0  0  0  0  0  0  0
   68.1665   76.5213   87.3808 H   0  0  0  0  0  0  0  0  0  0  0  0
 14 15  1  0  0  0
 15 16  1  0  0  0
 16 17  2  0  0  0
 16 18  1  0  0  0
 18  1  1  0  0  0
  1  2  1  0  0  0
  2  3  2  0  0  0
  3  6  1  0  0  0
  6  7  2  0  0  0
  7  8  1  0  0  0
  8  9  2  0  0  0
  9 10  1  0  0  0
  9 11  1  0  0  0
 11 12  1  0  0  0
 11 13  2  0  0  0
  3  4  1  0  0  0
  4  5  1  0  0  0
  5 26  1  0  0  0
 26 27  2  0  0  0
 26 28  1  0  0  0
 15 20  1  0  0  0
 20 21  2  0  0  0
 21 22  1  0  0  0
 22 23  2  0  0  0
 23 24  1  0  0  0
 24 25  2  0  0  0
  5  1  2  0  0  0
 25 20  1  0  0  0
 13  6  1  0  0  0
 18 19  1  0  0  0
 28 29  1  0  0  0
M  END
> <score>
-0.496417

> <minimizedAffinity>
-8.23689

$$$$
HIPS448


 29 31  0  0  0  0  0  0  0  0999 V2000
   68.1297   78.0196   90.4712 C   0  0  0  0  0  0  0  0  0  0  0  0
   68.6348   76.9958   91.2866 C   0  0  0  0  0  0  0  0  0  0  0  0
   68.3642   75.7124   90.8083 C   0  0  0  0  0  0  0  0  0  0  0  0
   67.4722   75.8751   89.3853 S   0  0  0  0  0  0  0  0  0  0  0  0
   67.4256   77.5547   89.3547 C   0  0  0  0  0  0  0  0  0  0  0  0
   68.7697   74.4250   91.4296 C   0  0  0  0  0  0  0  0  0  0  0  0
   68.8150   73.2488   90.6587 C   0  0  0  0  0  0  0  0  0  0  0  0
   69.1953   72.0344   91.2352 C   0  0  0  0  0  0  0  0  0  0  0  0
   69.5393   71.9716   92.5880 C   0  0  0  0  0  0  0  0  0  0  0  0
   70.0127   70.4241   93.2762 Cl  0  0  0  0  0  0  0  0  0  0  0  0
   69.5035   73.1369   93.3694 C   0  0  0  0  0  0  0  0  0  0  0  0
   69.9362   73.1028   95.0739 Cl  0  0  0  0  0  0  0  0  0  0  0  0
   69.1218   74.3538   92.7914 C   0  0  0  0  0  0  0  0  0  0  0  0
   68.4967   82.3051   91.1812 C   0  0  0  0  0  0  0  0  0  0  0  0
   69.5235   81.5838   90.4238 N   0  0  0  0  0  0  0  0  0  0  0  0
   69.4460   80.1501   90.2594 C   0  0  0  0  0  0  0  0  0  0  0  0
   70.3756   79.5370   89.6646 O   0  0  0  0  0  0  0  0  0  0  0  0
   68.3360   79.4030   90.7863 N   0  0  0  0  0  0  0  0  0  0  0  0
   67.6971   79.8561   91.3827 H   0  0  0  0  0  0  0  0  0  0  0  0
   70.6449   82.3154   89.8920 C   0  0  0  0  0  0  0  0  0  0  0  0
   71.9072   82.2267   90.5038 C   0  0  0  0  0  0  0  0  0  0  0  0
   72.9958   82.9311   89.9802 C   0  0  0  0  0  0  0  0  0  0  0  0
   72.8341   83.7253   88.8418 C   0  0  0  0  0  0  0  0  0  0  0  0
   71.5839   83.8145   88.2235 C   0  0  0  0  0  0  0  0  0  0  0  0
   70.4929   83.1113   88.7438 C   0  0  0  0  0  0  0  0  0  0  0  0
   66.6640   78.3361   88.3660 C   0  0  0  0  0  0  0  0  0  0  0  0
   66.2788   79.5066   88.6271 O   0  0  0  0  0  0  0  0  0  0  0  0
   66.3359   77.7623   87.1417 O   0  0  0  0  0  0  0  0  0  0  0  0
   66.6193   76.8920   86.9411 H   0  0  0  0  0  0  0  0  0  0  0  0
 14 15  1  0  0  0
 15 16  1  0  0  0
 16 17  2  0  0  0
 16 18  1  0  0  0
 18  1  1  0  0  0
  1  2  1  0  0  0
  2  3  2  0  0  0
  3  6  1  0  0  0
  6  7  2  0  0  0
  7  8  1  0  0  0
  8  9  2  0  0  0
  9 10  1  0  0  0
  9 11  1  0  0  0
 11 12  1  0  0  0
 11 13  2  0  0  0
  3  4  1  0  0  0
  4  5  1  0  0  0
  5 26  1  0  0  0
 26 27  2  0  0  0
 26 28  1  0  0  0
 15 20  1  0  0  0
 20 21  2  0  0  0
 21 22  1  0  0  0
 22 23  2  0  0  0
 23 24  1  0  0  0
 24 25  2  0  0  0
  5  1  2  0  0  0
 25 20  1  0  0  0
 13  6  1  0  0  0
 18 19  1  0  0  0
 28 29  1  0  0  0
M  END
> <score>
-0.496417

> <minimizedAffinity>
-7.90461

$$$$
HIPS448


 29 31  0  0  0  0  0  0  0  0999 V2000
   68.2978   80.1262   90.6983 C   0  0  0  0  0  0  0  0  0  0  0  0
   69.3626   80.8826   90.1862 C   0  0  0  0  0  0  0  0  0  0  0  0
   69.0195   82.2017   89.8840 C   0  0  0  0  0  0  0  0  0  0  0  0
   67.3809   82.3968   90.2357 S   0  0  0  0  0  0  0  0  0  0  0  0
   67.0919   80.8321   90.7763 C   0  0  0  0  0  0  0  0  0  0  0  0
   69.9163   83.2547   89.3409 C   0  0  0  0  0  0  0  0  0  0  0  0
   71.2788   82.9813   89.1205 C   0  0  0  0  0  0  0  0  0  0  0  0
   72.1286   83.9657   88.6101 C   0  0  0  0  0  0  0  0  0  0  0  0
   71.6352   85.2375   88.3081 C   0  0  0  0  0  0  0  0  0  0  0  0
   72.7370   86.4491   87.6672 Cl  0  0  0  0  0  0  0  0  0  0  0  0
   70.2776   85.5247   88.5180 C   0  0  0  0  0  0  0  0  0  0  0  0
   69.6147   87.1103   88.1439 Cl  0  0  0  0  0  0  0  0  0  0  0  0
   69.4262   84.5380   89.0301 C   0  0  0  0  0  0  0  0  0  0  0  0
   69.1613   75.9904   91.7723 C   0  0  0  0  0  0  0  0  0  0  0  0
   68.3118   76.2998   90.6186 N   0  0  0  0  0  0  0  0  0  0  0  0
   67.9565   77.6665   90.3114 C   0  0  0  0  0  0  0  0  0  0  0  0
   67.1671   77.9086   89.3564 O   0  0  0  0  0  0  0  0  0  0  0  0
   68.4686   78.7588   91.0940 N   0  0  0  0  0  0  0  0  0  0  0  0
   68.9521   78.5613   91.9285 H   0  0  0  0  0  0  0  0  0  0  0  0
   67.7865   75.2178   89.8255 C   0  0  0  0  0  0  0  0  0  0  0  0
   67.8408   73.8959   90.3002 C   0  0  0  0  0  0  0  0  0  0  0  0
   67.3222   72.8488   89.5320 C   0  0  0  0  0  0  0  0  0  0  0  0
   66.7431   73.1129   88.2879 C   0  0  0  0  0  0  0  0  0  0  0  0
   66.6794   74.4251   87.8110 C   0  0  0  0  0  0  0  0  0  0  0  0
   67.1965   75.4750   88.5763 C   0  0  0  0  0  0  0  0  0  0  0  0
   65.7594   80.3240   91.1427 C   0  0  0  0  0  0  0  0  0  0  0  0
   64.7570   80.5604   90.4174 O   0  0  0  0  0  0  0  0  0  0  0  0
   65.5990   79.6034   92.3221 O   0  0  0  0  0  0  0  0  0  0  0  0
   66.3405   79.4241   92.8661 H   0  0  0  0  0  0  0  0  0  0  0  0
 14 15  1  0  0  0
 15 16  1  0  0  0
 16 17  2  0  0  0
 16 18  1  0  0  0
 18  1  1  0  0  0
  1  2  1  0  0  0
  2  3  2  0  0  0
  3  6  1  0  0  0
  6  7  2  0  0  0
  7  8  1  0  0  0
  8  9  2  0  0  0
  9 10  1  0  0  0
  9 11  1  0  0  0
 11 12  1  0  0  0
 11 13  2  0  0  0
  3  4  1  0  0  0
  4  5  1  0  0  0
  5 26  1  0  0  0
 26 27  2  0  0  0
 26 28  1  0  0  0
 15 20  1  0  0  0
 20 21  2  0  0  0
 21 22  1  0  0  0
 22 23  2  0  0  0
 23 24  1  0  0  0
 24 25  2  0  0  0
  5  1  2  0  0  0
 25 20  1  0  0  0
 13  6  1  0  0  0
 18 19  1  0  0  0
 28 29  1  0  0  0
M  END
> <score>
-0.496417

> <minimizedAffinity>
-7.73405

$$$$
HIPS449


 35 38  0  0  0  0  0  0  0  0999 V2000
   69.0848   78.7207   90.8509 N   0  0  0  0  0  0  0  0  0  0  0  0
   68.3168   77.6307   90.3184 C   0  0  0  0  0  0  0  0  0  0  0  0
   67.5371   77.8378   89.3472 O   0  0  0  0  0  0  0  0  0  0  0  0
   68.4231   76.3030   90.8757 N   0  0  0  0  0  0  0  0  0  0  0  0
   69.8035   78.5261   91.4950 H   0  0  0  0  0  0  0  0  0  0  0  0
   67.9512   75.1800   90.1066 C   0  0  0  0  0  0  0  0  0  0  0  0
   67.1788   75.3776   88.9495 C   0  0  0  0  0  0  0  0  0  0  0  0
   66.7181   74.2808   88.2146 C   0  0  0  0  0  0  0  0  0  0  0  0
   67.0258   72.9815   88.6270 C   0  0  0  0  0  0  0  0  0  0  0  0
   67.7981   72.7765   89.7735 C   0  0  0  0  0  0  0  0  0  0  0  0
   68.2617   73.8704   90.5103 C   0  0  0  0  0  0  0  0  0  0  0  0
   67.5811   80.6896   90.4679 C   0  0  0  0  0  0  0  0  0  0  0  0
   67.7771   82.2639   89.9110 S   0  0  0  0  0  0  0  0  0  0  0  0
   69.4496   82.2055   89.6949 C   0  0  0  0  0  0  0  0  0  0  0  0
   69.8795   80.9294   90.0627 C   0  0  0  0  0  0  0  0  0  0  0  0
   68.8408   80.0823   90.4764 C   0  0  0  0  0  0  0  0  0  0  0  0
   70.2949   83.3228   89.2002 C   0  0  0  0  0  0  0  0  0  0  0  0
   71.6917   83.1740   89.1216 C   0  0  0  0  0  0  0  0  0  0  0  0
   72.4934   84.2198   88.6578 C   0  0  0  0  0  0  0  0  0  0  0  0
   71.9174   85.4297   88.2620 C   0  0  0  0  0  0  0  0  0  0  0  0
   72.9607   86.7217   87.6837 Cl  0  0  0  0  0  0  0  0  0  0  0  0
   70.5250   85.5922   88.3301 C   0  0  0  0  0  0  0  0  0  0  0  0
   69.7591   87.0959   87.8346 Cl  0  0  0  0  0  0  0  0  0  0  0  0
   69.7217   84.5440   88.7957 C   0  0  0  0  0  0  0  0  0  0  0  0
   66.1795   79.8309   92.1692 O   0  0  0  0  0  0  0  0  0  0  0  0
   66.3057   80.1369   90.9535 C   0  0  0  0  0  0  0  0  0  0  0  0
   65.2485   79.9145   90.0770 O   0  0  0  0  0  0  0  0  0  0  0  0
   65.3353   80.1396   89.1716 H   0  0  0  0  0  0  0  0  0  0  0  0
   68.9956   76.0807   92.2141 C   0  0  0  0  0  0  0  0  0  0  0  0
   67.9134   75.7995   93.2272 C   0  0  0  0  0  0  0  0  0  0  0  0
   66.7480   76.5853   93.2659 C   0  0  0  0  0  0  0  0  0  0  0  0
   65.7457   76.3168   94.2031 C   0  0  0  0  0  0  0  0  0  0  0  0
   65.8907   75.2553   95.0995 C   0  0  0  0  0  0  0  0  0  0  0  0
   67.0349   74.4552   95.0549 C   0  0  0  0  0  0  0  0  0  0  0  0
   68.0397   74.7201   94.1196 C   0  0  0  0  0  0  0  0  0  0  0  0
 25 26  2  0  0  0
 26 27  1  0  0  0
 26 12  1  0  0  0
 12 13  1  0  0  0
 13 14  1  0  0  0
 14 17  1  0  0  0
 17 18  2  0  0  0
 18 19  1  0  0  0
 19 20  2  0  0  0
 20 21  1  0  0  0
 20 22  1  0  0  0
 22 23  1  0  0  0
 22 24  2  0  0  0
 14 15  2  0  0  0
 15 16  1  0  0  0
 16  1  1  0  0  0
  1  2  1  0  0  0
  2  3  2  0  0  0
  2  4  1  0  0  0
  4 29  1  0  0  0
 29 30  1  0  0  0
 30 31  2  0  0  0
 31 32  1  0  0  0
 32 33  2  0  0  0
 33 34  1  0  0  0
 34 35  2  0  0  0
  4  6  1  0  0  0
  6  7  2  0  0  0
  7  8  1  0  0  0
  8  9  2  0  0  0
  9 10  1  0  0  0
 10 11  2  0  0  0
 16 12  2  0  0  0
 35 30  1  0  0  0
 11  6  1  0  0  0
 24 17  1  0  0  0
 27 28  1  0  0  0
  1  5  1  0  0  0
M  END
> <score>
-0.677065

> <minimizedAffinity>
-9.20937

$$$$
HIPS449


 35 38  0  0  0  0  0  0  0  0999 V2000
   68.1566   78.6490   90.4060 N   0  0  0  0  0  0  0  0  0  0  0  0
   68.0074   78.0643   91.7088 C   0  0  0  0  0  0  0  0  0  0  0  0
   67.5925   78.7772   92.6646 O   0  0  0  0  0  0  0  0  0  0  0  0
   68.3237   76.6749   91.9417 N   0  0  0  0  0  0  0  0  0  0  0  0
   68.3242   78.0587   89.6361 H   0  0  0  0  0  0  0  0  0  0  0  0
   67.8178   76.0298   93.1264 C   0  0  0  0  0  0  0  0  0  0  0  0
   66.4462   75.7570   93.2638 C   0  0  0  0  0  0  0  0  0  0  0  0
   65.9638   75.1384   94.4213 C   0  0  0  0  0  0  0  0  0  0  0  0
   66.8450   74.7865   95.4473 C   0  0  0  0  0  0  0  0  0  0  0  0
   68.2112   75.0494   95.3161 C   0  0  0  0  0  0  0  0  0  0  0  0
   68.6977   75.6665   94.1600 C   0  0  0  0  0  0  0  0  0  0  0  0
   66.8899   80.8083   90.2743 C   0  0  0  0  0  0  0  0  0  0  0  0
   67.2634   82.4016   89.8888 S   0  0  0  0  0  0  0  0  0  0  0  0
   68.9155   82.1755   89.6306 C   0  0  0  0  0  0  0  0  0  0  0  0
   69.1967   80.8254   89.8469 C   0  0  0  0  0  0  0  0  0  0  0  0
   68.0700   80.0628   90.1883 C   0  0  0  0  0  0  0  0  0  0  0  0
   69.8810   83.2361   89.2425 C   0  0  0  0  0  0  0  0  0  0  0  0
   71.2598   82.9594   89.2022 C   0  0  0  0  0  0  0  0  0  0  0  0
   72.1740   83.9511   88.8386 C   0  0  0  0  0  0  0  0  0  0  0  0
   71.7302   85.2337   88.5063 C   0  0  0  0  0  0  0  0  0  0  0  0
   72.9124   86.4542   88.0536 Cl  0  0  0  0  0  0  0  0  0  0  0  0
   70.3575   85.5243   88.5373 C   0  0  0  0  0  0  0  0  0  0  0  0
   69.7563   87.1233   88.1191 Cl  0  0  0  0  0  0  0  0  0  0  0  0
   69.4414   84.5302   88.9025 C   0  0  0  0  0  0  0  0  0  0  0  0
   64.6334   80.2135   89.8864 O   0  0  0  0  0  0  0  0  0  0  0  0
   65.5632   80.3555   90.7246 C   0  0  0  0  0  0  0  0  0  0  0  0
   65.3139   80.1171   92.0723 O   0  0  0  0  0  0  0  0  0  0  0  0
   66.0006   80.2208   92.7013 H   0  0  0  0  0  0  0  0  0  0  0  0
   69.1576   75.9132   90.9968 C   0  0  0  0  0  0  0  0  0  0  0  0
   68.3260   74.9310   90.2092 C   0  0  0  0  0  0  0  0  0  0  0  0
   67.5210   75.3690   89.1426 C   0  0  0  0  0  0  0  0  0  0  0  0
   66.7566   74.4538   88.4123 C   0  0  0  0  0  0  0  0  0  0  0  0
   66.7990   73.0942   88.7301 C   0  0  0  0  0  0  0  0  0  0  0  0
   67.6122   72.6462   89.7738 C   0  0  0  0  0  0  0  0  0  0  0  0
   68.3780   73.5577   90.5069 C   0  0  0  0  0  0  0  0  0  0  0  0
 25 26  2  0  0  0
 26 27  1  0  0  0
 26 12  1  0  0  0
 12 13  1  0  0  0
 13 14  1  0  0  0
 14 17  1  0  0  0
 17 18  2  0  0  0
 18 19  1  0  0  0
 19 20  2  0  0  0
 20 21  1  0  0  0
 20 22  1  0  0  0
 22 23  1  0  0  0
 22 24  2  0  0  0
 14 15  2  0  0  0
 15 16  1  0  0  0
 16  1  1  0  0  0
  1  2  1  0  0  0
  2  3  2  0  0  0
  2  4  1  0  0  0
  4 29  1  0  0  0
 29 30  1  0  0  0
 30 31  2  0  0  0
 31 32  1  0  0  0
 32 33  2  0  0  0
 33 34  1  0  0  0
 34 35  2  0  0  0
  4  6  1  0  0  0
  6  7  2  0  0  0
  7  8  1  0  0  0
  8  9  2  0  0  0
  9 10  1  0  0  0
 10 11  2  0  0  0
 16 12  2  0  0  0
 35 30  1  0  0  0
 11  6  1  0  0  0
 24 17  1  0  0  0
 27 28  1  0  0  0
  1  5  1  0  0  0
M  END
> <score>
-0.677065

> <minimizedAffinity>
-9.10235

$$$$
HIPS449


 35 38  0  0  0  0  0  0  0  0999 V2000
   67.7876   80.3178   89.9641 N   0  0  0  0  0  0  0  0  0  0  0  0
   69.0935   80.9087   89.8801 C   0  0  0  0  0  0  0  0  0  0  0  0
   70.1100   80.1616   89.8302 O   0  0  0  0  0  0  0  0  0  0  0  0
   69.2613   82.3424   89.8513 N   0  0  0  0  0  0  0  0  0  0  0  0
   66.9972   80.8918   89.8416 H   0  0  0  0  0  0  0  0  0  0  0  0
   70.5114   82.8929   89.3931 C   0  0  0  0  0  0  0  0  0  0  0  0
   71.6752   82.7738   90.1715 C   0  0  0  0  0  0  0  0  0  0  0  0
   72.8819   83.3190   89.7221 C   0  0  0  0  0  0  0  0  0  0  0  0
   72.9363   83.9840   88.4941 C   0  0  0  0  0  0  0  0  0  0  0  0
   71.7847   84.1018   87.7114 C   0  0  0  0  0  0  0  0  0  0  0  0
   70.5767   83.5570   88.1566 C   0  0  0  0  0  0  0  0  0  0  0  0
   67.4000   77.9522   89.2308 C   0  0  0  0  0  0  0  0  0  0  0  0
   67.1682   76.4757   90.0009 S   0  0  0  0  0  0  0  0  0  0  0  0
   67.3325   77.0345   91.5846 C   0  0  0  0  0  0  0  0  0  0  0  0
   67.5744   78.4081   91.5256 C   0  0  0  0  0  0  0  0  0  0  0  0
   67.5958   78.9210   90.2202 C   0  0  0  0  0  0  0  0  0  0  0  0
   67.2335   76.1985   92.8089 C   0  0  0  0  0  0  0  0  0  0  0  0
   66.0700   76.2337   93.5992 C   0  0  0  0  0  0  0  0  0  0  0  0
   65.9692   75.4509   94.7518 C   0  0  0  0  0  0  0  0  0  0  0  0
   67.0238   74.6183   95.1350 C   0  0  0  0  0  0  0  0  0  0  0  0
   66.8580   73.6484   96.5924 Cl  0  0  0  0  0  0  0  0  0  0  0  0
   68.1894   74.5687   94.3548 C   0  0  0  0  0  0  0  0  0  0  0  0
   69.5369   73.5286   94.7973 Cl  0  0  0  0  0  0  0  0  0  0  0  0
   68.2904   75.3538   93.1998 C   0  0  0  0  0  0  0  0  0  0  0  0
   67.7582   77.1273   87.0428 O   0  0  0  0  0  0  0  0  0  0  0  0
   67.4847   78.1189   87.7704 C   0  0  0  0  0  0  0  0  0  0  0  0
   67.3016   79.3682   87.1864 O   0  0  0  0  0  0  0  0  0  0  0  0
   67.0980   80.1101   87.7213 H   0  0  0  0  0  0  0  0  0  0  0  0
   68.1838   83.2460   90.2883 C   0  0  0  0  0  0  0  0  0  0  0  0
   68.3118   83.5732   91.7556 C   0  0  0  0  0  0  0  0  0  0  0  0
   67.7144   82.7502   92.7268 C   0  0  0  0  0  0  0  0  0  0  0  0
   67.8409   83.0549   94.0856 C   0  0  0  0  0  0  0  0  0  0  0  0
   68.5746   84.1736   94.4876 C   0  0  0  0  0  0  0  0  0  0  0  0
   69.1902   84.9852   93.5317 C   0  0  0  0  0  0  0  0  0  0  0  0
   69.0662   84.6845   92.1719 C   0  0  0  0  0  0  0  0  0  0  0  0
 25 26  2  0  0  0
 26 27  1  0  0  0
 26 12  1  0  0  0
 12 13  1  0  0  0
 13 14  1  0  0  0
 14 17  1  0  0  0
 17 18  2  0  0  0
 18 19  1  0  0  0
 19 20  2  0  0  0
 20 21  1  0  0  0
 20 22  1  0  0  0
 22 23  1  0  0  0
 22 24  2  0  0  0
 14 15  2  0  0  0
 15 16  1  0  0  0
 16  1  1  0  0  0
  1  2  1  0  0  0
  2  3  2  0  0  0
  2  4  1  0  0  0
  4 29  1  0  0  0
 29 30  1  0  0  0
 30 31  2  0  0  0
 31 32  1  0  0  0
 32 33  2  0  0  0
 33 34  1  0  0  0
 34 35  2  0  0  0
  4  6  1  0  0  0
  6  7  2  0  0  0
  7  8  1  0  0  0
  8  9  2  0  0  0
  9 10  1  0  0  0
 10 11  2  0  0  0
 16 12  2  0  0  0
 35 30  1  0  0  0
 11  6  1  0  0  0
 24 17  1  0  0  0
 27 28  1  0  0  0
  1  5  1  0  0  0
M  END
> <score>
-0.677065

> <minimizedAffinity>
-8.91807

$$$$
HIPS450


 30 32  0  0  0  0  0  0  0  0999 V2000
   67.6656   74.1601   93.2331 C   0  0  0  0  0  0  0  0  0  0  0  0
   67.8552   74.8446   92.0184 C   0  0  0  0  0  0  0  0  0  0  0  0
   67.1791   76.0642   91.9476 C   0  0  0  0  0  0  0  0  0  0  0  0
   66.3463   76.2708   93.3993 S   0  0  0  0  0  0  0  0  0  0  0  0
   66.8257   74.8323   94.1256 C   0  0  0  0  0  0  0  0  0  0  0  0
   67.1723   77.0176   90.8071 C   0  0  0  0  0  0  0  0  0  0  0  0
   67.1039   78.4033   91.0428 C   0  0  0  0  0  0  0  0  0  0  0  0
   67.0981   79.3070   89.9777 C   0  0  0  0  0  0  0  0  0  0  0  0
   67.1579   78.8464   88.6600 C   0  0  0  0  0  0  0  0  0  0  0  0
   67.1482   80.0159   87.3468 Cl  0  0  0  0  0  0  0  0  0  0  0  0
   67.2227   77.4673   88.4077 C   0  0  0  0  0  0  0  0  0  0  0  0
   67.2925   76.8456   86.7639 Cl  0  0  0  0  0  0  0  0  0  0  0  0
   67.2290   76.5617   89.4757 C   0  0  0  0  0  0  0  0  0  0  0  0
   70.2597   73.6080   94.3288 O   0  0  0  0  0  0  0  0  0  0  0  0
   69.5514   72.6367   93.9465 C   0  0  0  0  0  0  0  0  0  0  0  0
   70.0739   71.3025   93.9998 N   0  0  0  0  0  0  0  0  0  0  0  0
   68.2105   72.8555   93.4859 N   0  0  0  0  0  0  0  0  0  0  0  0
   69.5127   70.5613   93.6760 H   0  0  0  0  0  0  0  0  0  0  0  0
   67.6344   72.0714   93.3355 H   0  0  0  0  0  0  0  0  0  0  0  0
   71.4070   71.0003   94.5160 C   0  0  0  0  0  0  0  0  0  0  0  0
   72.2472   70.3585   93.4458 C   0  0  0  0  0  0  0  0  0  0  0  0
   73.6103   70.6705   93.3405 C   0  0  0  0  0  0  0  0  0  0  0  0
   74.3745   70.0833   92.3291 C   0  0  0  0  0  0  0  0  0  0  0  0
   73.7971   69.2194   91.4523 N   0  0  0  0  0  0  0  0  0  0  0  0
   72.4771   68.9029   91.5283 C   0  0  0  0  0  0  0  0  0  0  0  0
   71.6769   69.4675   92.5246 C   0  0  0  0  0  0  0  0  0  0  0  0
   66.4484   74.4299   95.4913 C   0  0  0  0  0  0  0  0  0  0  0  0
   65.8516   75.2484   96.2407 O   0  0  0  0  0  0  0  0  0  0  0  0
   66.7653   73.1648   95.9751 O   0  0  0  0  0  0  0  0  0  0  0  0
   67.2090   72.5501   95.4243 H   0  0  0  0  0  0  0  0  0  0  0  0
 14 15  2  0  0  0
 15 16  1  0  0  0
 16 20  1  0  0  0
 20 21  1  0  0  0
 21 22  2  0  0  0
 22 23  1  0  0  0
 23 24  2  0  0  0
 24 25  2  0  0  0
 25 26  2  0  0  0
 15 17  1  0  0  0
 17  1  1  0  0  0
  1  2  1  0  0  0
  2  3  2  0  0  0
  3  6  1  0  0  0
  6  7  2  0  0  0
  7  8  1  0  0  0
  8  9  2  0  0  0
  9 10  1  0  0  0
  9 11  1  0  0  0
 11 12  1  0  0  0
 11 13  2  0  0  0
  3  4  1  0  0  0
  4  5  1  0  0  0
  5 27  1  0  0  0
 27 28  2  0  0  0
 27 29  1  0  0  0
 26 21  1  0  0  0
  5  1  2  0  0  0
 13  6  1  0  0  0
 16 18  1  0  0  0
 17 19  1  0  0  0
 29 30  1  0  0  0
M  END
> <score>
-0.438614

> <minimizedAffinity>
-7.71244

$$$$
HIPS450


 30 32  0  0  0  0  0  0  0  0999 V2000
   68.2339   74.2744   93.0359 C   0  0  0  0  0  0  0  0  0  0  0  0
   68.7661   75.2676   92.1931 C   0  0  0  0  0  0  0  0  0  0  0  0
   68.1193   76.5007   92.2976 C   0  0  0  0  0  0  0  0  0  0  0  0
   66.8857   76.3350   93.4352 S   0  0  0  0  0  0  0  0  0  0  0  0
   67.1524   74.7163   93.8033 C   0  0  0  0  0  0  0  0  0  0  0  0
   68.4368   77.7431   91.5456 C   0  0  0  0  0  0  0  0  0  0  0  0
   69.6372   77.8434   90.8180 C   0  0  0  0  0  0  0  0  0  0  0  0
   69.9437   79.0063   90.1074 C   0  0  0  0  0  0  0  0  0  0  0  0
   69.0615   80.0897   90.1110 C   0  0  0  0  0  0  0  0  0  0  0  0
   69.4837   81.5359   89.2041 Cl  0  0  0  0  0  0  0  0  0  0  0  0
   67.8619   80.0071   90.8347 C   0  0  0  0  0  0  0  0  0  0  0  0
   66.7271   81.3504   90.8708 Cl  0  0  0  0  0  0  0  0  0  0  0  0
   67.5546   78.8411   91.5465 C   0  0  0  0  0  0  0  0  0  0  0  0
   70.2475   73.1902   94.7693 O   0  0  0  0  0  0  0  0  0  0  0  0
   69.7801   72.4528   93.8588 C   0  0  0  0  0  0  0  0  0  0  0  0
   70.3044   71.1325   93.6645 N   0  0  0  0  0  0  0  0  0  0  0  0
   68.7025   72.9168   93.0332 N   0  0  0  0  0  0  0  0  0  0  0  0
   69.9407   70.5817   92.9341 H   0  0  0  0  0  0  0  0  0  0  0  0
   68.2618   72.2716   92.4342 H   0  0  0  0  0  0  0  0  0  0  0  0
   71.3577   70.5727   94.5085 C   0  0  0  0  0  0  0  0  0  0  0  0
   72.5922   70.3039   93.6919 C   0  0  0  0  0  0  0  0  0  0  0  0
   73.8285   70.8312   94.0920 C   0  0  0  0  0  0  0  0  0  0  0  0
   74.9633   70.5912   93.3134 C   0  0  0  0  0  0  0  0  0  0  0  0
   74.8660   69.8552   92.1745 N   0  0  0  0  0  0  0  0  0  0  0  0
   73.6795   69.3362   91.7607 C   0  0  0  0  0  0  0  0  0  0  0  0
   72.5202   69.5521   92.5099 C   0  0  0  0  0  0  0  0  0  0  0  0
   66.3906   73.9617   94.8131 C   0  0  0  0  0  0  0  0  0  0  0  0
   67.0002   73.3900   95.7561 O   0  0  0  0  0  0  0  0  0  0  0  0
   65.0069   73.8498   94.7255 O   0  0  0  0  0  0  0  0  0  0  0  0
   64.5459   74.2719   94.0274 H   0  0  0  0  0  0  0  0  0  0  0  0
 14 15  2  0  0  0
 15 16  1  0  0  0
 16 20  1  0  0  0
 20 21  1  0  0  0
 21 22  2  0  0  0
 22 23  1  0  0  0
 23 24  2  0  0  0
 24 25  2  0  0  0
 25 26  2  0  0  0
 15 17  1  0  0  0
 17  1  1  0  0  0
  1  2  1  0  0  0
  2  3  2  0  0  0
  3  6  1  0  0  0
  6  7  2  0  0  0
  7  8  1  0  0  0
  8  9  2  0  0  0
  9 10  1  0  0  0
  9 11  1  0  0  0
 11 12  1  0  0  0
 11 13  2  0  0  0
  3  4  1  0  0  0
  4  5  1  0  0  0
  5 27  1  0  0  0
 27 28  2  0  0  0
 27 29  1  0  0  0
 26 21  1  0  0  0
  5  1  2  0  0  0
 13  6  1  0  0  0
 16 18  1  0  0  0
 17 19  1  0  0  0
 29 30  1  0  0  0
M  END
> <score>
-0.438614

> <minimizedAffinity>
-7.62750

$$$$
HIPS450


 30 32  0  0  0  0  0  0  0  0999 V2000
   68.6285   72.7991   92.8503 C   0  0  0  0  0  0  0  0  0  0  0  0
   68.5277   73.1162   91.4831 C   0  0  0  0  0  0  0  0  0  0  0  0
   67.8834   74.3292   91.2323 C   0  0  0  0  0  0  0  0  0  0  0  0
   67.4402   74.9887   92.7196 S   0  0  0  0  0  0  0  0  0  0  0  0
   68.0510   73.7574   93.6881 C   0  0  0  0  0  0  0  0  0  0  0  0
   67.6168   74.9420   89.9044 C   0  0  0  0  0  0  0  0  0  0  0  0
   67.1346   74.1524   88.8440 C   0  0  0  0  0  0  0  0  0  0  0  0
   66.8800   74.7194   87.5930 C   0  0  0  0  0  0  0  0  0  0  0  0
   67.1034   76.0814   87.3759 C   0  0  0  0  0  0  0  0  0  0  0  0
   66.7709   76.7572   85.7868 Cl  0  0  0  0  0  0  0  0  0  0  0  0
   67.5877   76.8819   88.4220 C   0  0  0  0  0  0  0  0  0  0  0  0
   67.8887   78.5991   88.1888 Cl  0  0  0  0  0  0  0  0  0  0  0  0
   67.8423   76.3134   89.6760 C   0  0  0  0  0  0  0  0  0  0  0  0
   71.3340   72.4101   93.7242 O   0  0  0  0  0  0  0  0  0  0  0  0
   70.5747   71.4049   93.6593 C   0  0  0  0  0  0  0  0  0  0  0  0
   71.0876   70.0979   93.9504 N   0  0  0  0  0  0  0  0  0  0  0  0
   69.1888   71.5647   93.3249 N   0  0  0  0  0  0  0  0  0  0  0  0
   70.4835   69.3244   93.8723 H   0  0  0  0  0  0  0  0  0  0  0  0
   68.5913   70.7888   93.4258 H   0  0  0  0  0  0  0  0  0  0  0  0
   72.4719   69.8695   94.3584 C   0  0  0  0  0  0  0  0  0  0  0  0
   73.3241   69.5576   93.1586 C   0  0  0  0  0  0  0  0  0  0  0  0
   72.8914   68.6152   92.2146 C   0  0  0  0  0  0  0  0  0  0  0  0
   73.7021   68.3197   91.1159 C   0  0  0  0  0  0  0  0  0  0  0  0
   74.9029   68.9397   90.9678 N   0  0  0  0  0  0  0  0  0  0  0  0
   75.3490   69.8537   91.8700 C   0  0  0  0  0  0  0  0  0  0  0  0
   74.5696   70.1786   92.9830 C   0  0  0  0  0  0  0  0  0  0  0  0
   68.0138   73.7682   95.1605 C   0  0  0  0  0  0  0  0  0  0  0  0
   68.9118   73.1706   95.8119 O   0  0  0  0  0  0  0  0  0  0  0  0
   66.9848   74.4086   95.8431 O   0  0  0  0  0  0  0  0  0  0  0  0
   66.3131   74.8552   95.3663 H   0  0  0  0  0  0  0  0  0  0  0  0
 14 15  2  0  0  0
 15 16  1  0  0  0
 16 20  1  0  0  0
 20 21  1  0  0  0
 21 22  2  0  0  0
 22 23  1  0  0  0
 23 24  2  0  0  0
 24 25  2  0  0  0
 25 26  2  0  0  0
 15 17  1  0  0  0
 17  1  1  0  0  0
  1  2  1  0  0  0
  2  3  2  0  0  0
  3  6  1  0  0  0
  6  7  2  0  0  0
  7  8  1  0  0  0
  8  9  2  0  0  0
  9 10  1  0  0  0
  9 11  1  0  0  0
 11 12  1  0  0  0
 11 13  2  0  0  0
  3  4  1  0  0  0
  4  5  1  0  0  0
  5 27  1  0  0  0
 27 28  2  0  0  0
 27 29  1  0  0  0
 26 21  1  0  0  0
  5  1  2  0  0  0
 13  6  1  0  0  0
 16 18  1  0  0  0
 17 19  1  0  0  0
 29 30  1  0  0  0
M  END
> <score>
-0.438614

> <minimizedAffinity>
-7.54844

$$$$
HIPS451


 30 32  0  0  0  0  0  0  0  0999 V2000
   68.7592   78.6990   89.9387 C   0  0  0  0  0  0  0  0  0  0  0  0
   69.2586   77.5179   90.5151 C   0  0  0  0  0  0  0  0  0  0  0  0
   68.4986   76.3878   90.2163 C   0  0  0  0  0  0  0  0  0  0  0  0
   67.2091   76.8699   89.2459 S   0  0  0  0  0  0  0  0  0  0  0  0
   67.5916   78.5045   89.1949 C   0  0  0  0  0  0  0  0  0  0  0  0
   68.7453   75.0033   90.6857 C   0  0  0  0  0  0  0  0  0  0  0  0
   69.6504   74.7637   91.7360 C   0  0  0  0  0  0  0  0  0  0  0  0
   69.8955   73.4611   92.1796 C   0  0  0  0  0  0  0  0  0  0  0  0
   69.2472   72.3811   91.5762 C   0  0  0  0  0  0  0  0  0  0  0  0
   69.5904   70.6020   92.1807 Br  0  0  0  0  0  0  0  0  0  0  0  0
   68.3489   72.6049   90.5305 C   0  0  0  0  0  0  0  0  0  0  0  0
   68.0973   73.9067   90.0859 C   0  0  0  0  0  0  0  0  0  0  0  0
   68.6902   82.4037   90.1174 N   0  0  0  0  0  0  0  0  0  0  0  0
   68.5114   81.0859   90.6761 C   0  0  0  0  0  0  0  0  0  0  0  0
   67.6463   80.8909   91.5735 O   0  0  0  0  0  0  0  0  0  0  0  0
   69.3138   79.9906   90.2216 N   0  0  0  0  0  0  0  0  0  0  0  0
   70.2808   80.1293   90.0991 H   0  0  0  0  0  0  0  0  0  0  0  0
   69.3290   83.7217   92.1044 C   0  0  0  0  0  0  0  0  0  0  0  0
   68.3675   83.5858   90.9306 C   0  0  0  0  0  0  0  0  0  0  0  0
   69.2224   82.5735   88.7544 C   0  0  0  0  0  0  0  0  0  0  0  0
   70.6151   83.1580   88.7840 C   0  0  0  0  0  0  0  0  0  0  0  0
   71.6107   82.5655   89.5756 C   0  0  0  0  0  0  0  0  0  0  0  0
   72.8827   83.1396   89.6630 C   0  0  0  0  0  0  0  0  0  0  0  0
   73.1720   84.3088   88.9577 C   0  0  0  0  0  0  0  0  0  0  0  0
   72.1924   84.9005   88.1590 C   0  0  0  0  0  0  0  0  0  0  0  0
   70.9205   84.3251   88.0649 C   0  0  0  0  0  0  0  0  0  0  0  0
   66.8082   79.5053   88.4535 C   0  0  0  0  0  0  0  0  0  0  0  0
   67.0354   79.7284   87.2359 O   0  0  0  0  0  0  0  0  0  0  0  0
   65.7901   80.1956   89.0999 O   0  0  0  0  0  0  0  0  0  0  0  0
   65.6163   80.0337   90.0063 H   0  0  0  0  0  0  0  0  0  0  0  0
 18 19  1  0  0  0
 19 13  1  0  0  0
 13 20  1  0  0  0
 20 21  1  0  0  0
 21 22  2  0  0  0
 22 23  1  0  0  0
 23 24  2  0  0  0
 24 25  1  0  0  0
 25 26  2  0  0  0
 13 14  1  0  0  0
 14 15  2  0  0  0
 14 16  1  0  0  0
 16  1  1  0  0  0
  1  2  1  0  0  0
  2  3  2  0  0  0
  3  6  1  0  0  0
  6  7  2  0  0  0
  7  8  1  0  0  0
  8  9  2  0  0  0
  9 10  1  0  0  0
  9 11  1  0  0  0
 11 12  2  0  0  0
  3  4  1  0  0  0
  4  5  1  0  0  0
  5 27  1  0  0  0
 27 28  2  0  0  0
 27 29  1  0  0  0
 26 21  1  0  0  0
  5  1  2  0  0  0
 12  6  1  0  0  0
 16 17  1  0  0  0
 29 30  1  0  0  0
M  END
> <score>
-0.300895

> <minimizedAffinity>
-7.98897

$$$$
HIPS451


 30 32  0  0  0  0  0  0  0  0999 V2000
   68.8084   81.0063   89.6280 C   0  0  0  0  0  0  0  0  0  0  0  0
   69.7420   82.0485   89.7656 C   0  0  0  0  0  0  0  0  0  0  0  0
   69.7283   82.9522   88.7040 C   0  0  0  0  0  0  0  0  0  0  0  0
   68.5619   82.4418   87.6014 S   0  0  0  0  0  0  0  0  0  0  0  0
   68.0653   81.0777   88.4461 C   0  0  0  0  0  0  0  0  0  0  0  0
   70.5997   84.1404   88.5392 C   0  0  0  0  0  0  0  0  0  0  0  0
   71.9993   83.9966   88.5445 C   0  0  0  0  0  0  0  0  0  0  0  0
   72.8287   85.1122   88.3981 C   0  0  0  0  0  0  0  0  0  0  0  0
   72.2728   86.3852   88.2525 C   0  0  0  0  0  0  0  0  0  0  0  0
   73.4100   87.9077   88.0598 Br  0  0  0  0  0  0  0  0  0  0  0  0
   70.8851   86.5420   88.2488 C   0  0  0  0  0  0  0  0  0  0  0  0
   70.0510   85.4285   88.3909 C   0  0  0  0  0  0  0  0  0  0  0  0
   69.1084   77.4347   90.5850 N   0  0  0  0  0  0  0  0  0  0  0  0
   69.6217   78.7753   90.4426 C   0  0  0  0  0  0  0  0  0  0  0  0
   70.8517   78.9633   90.2336 O   0  0  0  0  0  0  0  0  0  0  0  0
   68.7438   79.9022   90.5405 N   0  0  0  0  0  0  0  0  0  0  0  0
   68.0718   79.9194   91.2598 H   0  0  0  0  0  0  0  0  0  0  0  0
   70.2368   76.5275   92.5841 C   0  0  0  0  0  0  0  0  0  0  0  0
   69.9895   76.3708   91.0891 C   0  0  0  0  0  0  0  0  0  0  0  0
   67.7037   77.1322   90.2604 C   0  0  0  0  0  0  0  0  0  0  0  0
   67.5486   75.7017   89.8003 C   0  0  0  0  0  0  0  0  0  0  0  0
   67.0104   75.4234   88.5347 C   0  0  0  0  0  0  0  0  0  0  0  0
   66.7991   74.1023   88.1285 C   0  0  0  0  0  0  0  0  0  0  0  0
   67.1268   73.0476   88.9819 C   0  0  0  0  0  0  0  0  0  0  0  0
   67.6726   73.3127   90.2387 C   0  0  0  0  0  0  0  0  0  0  0  0
   67.8908   74.6335   90.6456 C   0  0  0  0  0  0  0  0  0  0  0  0
   67.0050   80.1691   87.9821 C   0  0  0  0  0  0  0  0  0  0  0  0
   67.2386   78.9459   87.8004 O   0  0  0  0  0  0  0  0  0  0  0  0
   65.7248   80.6636   87.7640 O   0  0  0  0  0  0  0  0  0  0  0  0
   65.5449   81.5734   87.8976 H   0  0  0  0  0  0  0  0  0  0  0  0
 18 19  1  0  0  0
 19 13  1  0  0  0
 13 20  1  0  0  0
 20 21  1  0  0  0
 21 22  2  0  0  0
 22 23  1  0  0  0
 23 24  2  0  0  0
 24 25  1  0  0  0
 25 26  2  0  0  0
 13 14  1  0  0  0
 14 15  2  0  0  0
 14 16  1  0  0  0
 16  1  1  0  0  0
  1  2  1  0  0  0
  2  3  2  0  0  0
  3  6  1  0  0  0
  6  7  2  0  0  0
  7  8  1  0  0  0
  8  9  2  0  0  0
  9 10  1  0  0  0
  9 11  1  0  0  0
 11 12  2  0  0  0
  3  4  1  0  0  0
  4  5  1  0  0  0
  5 27  1  0  0  0
 27 28  2  0  0  0
 27 29  1  0  0  0
 26 21  1  0  0  0
  5  1  2  0  0  0
 12  6  1  0  0  0
 16 17  1  0  0  0
 29 30  1  0  0  0
M  END
> <score>
-0.300895

> <minimizedAffinity>
-7.70395

$$$$
HIPS451


 30 32  0  0  0  0  0  0  0  0999 V2000
   69.5593   79.5940   89.9458 C   0  0  0  0  0  0  0  0  0  0  0  0
   69.1848   80.9214   89.6726 C   0  0  0  0  0  0  0  0  0  0  0  0
   70.2440   81.8250   89.7448 C   0  0  0  0  0  0  0  0  0  0  0  0
   71.6333   80.9662   90.1561 S   0  0  0  0  0  0  0  0  0  0  0  0
   70.9160   79.4505   90.2508 C   0  0  0  0  0  0  0  0  0  0  0  0
   70.1756   83.2908   89.5330 C   0  0  0  0  0  0  0  0  0  0  0  0
   69.1447   84.0433   90.1252 C   0  0  0  0  0  0  0  0  0  0  0  0
   69.0674   85.4243   89.9243 C   0  0  0  0  0  0  0  0  0  0  0  0
   70.0124   86.0706   89.1241 C   0  0  0  0  0  0  0  0  0  0  0  0
   69.8990   87.9569   88.8464 Br  0  0  0  0  0  0  0  0  0  0  0  0
   71.0388   85.3349   88.5278 C   0  0  0  0  0  0  0  0  0  0  0  0
   71.1227   83.9535   88.7292 C   0  0  0  0  0  0  0  0  0  0  0  0
   67.8583   76.7831   91.6683 N   0  0  0  0  0  0  0  0  0  0  0  0
   67.9913   78.1696   91.2929 C   0  0  0  0  0  0  0  0  0  0  0  0
   67.5629   79.0765   92.0583 O   0  0  0  0  0  0  0  0  0  0  0  0
   68.6055   78.5286   90.0503 N   0  0  0  0  0  0  0  0  0  0  0  0
   68.3643   78.0260   89.2389 H   0  0  0  0  0  0  0  0  0  0  0  0
   67.2904   75.8315   93.8740 C   0  0  0  0  0  0  0  0  0  0  0  0
   66.7578   76.3742   92.5540 C   0  0  0  0  0  0  0  0  0  0  0  0
   68.7948   75.7728   91.1467 C   0  0  0  0  0  0  0  0  0  0  0  0
   68.1074   74.8484   90.1694 C   0  0  0  0  0  0  0  0  0  0  0  0
   67.4173   75.3759   89.0674 C   0  0  0  0  0  0  0  0  0  0  0  0
   66.7203   74.5325   88.1968 C   0  0  0  0  0  0  0  0  0  0  0  0
   66.7096   73.1543   88.4178 C   0  0  0  0  0  0  0  0  0  0  0  0
   67.4015   72.6180   89.5046 C   0  0  0  0  0  0  0  0  0  0  0  0
   68.1047   73.4589   90.3741 C   0  0  0  0  0  0  0  0  0  0  0  0
   71.6496   78.2171   90.5760 C   0  0  0  0  0  0  0  0  0  0  0  0
   72.4902   77.7366   89.7721 O   0  0  0  0  0  0  0  0  0  0  0  0
   71.4280   77.5885   91.7952 O   0  0  0  0  0  0  0  0  0  0  0  0
   70.8034   77.9417   92.3978 H   0  0  0  0  0  0  0  0  0  0  0  0
 18 19  1  0  0  0
 19 13  1  0  0  0
 13 20  1  0  0  0
 20 21  1  0  0  0
 21 22  2  0  0  0
 22 23  1  0  0  0
 23 24  2  0  0  0
 24 25  1  0  0  0
 25 26  2  0  0  0
 13 14  1  0  0  0
 14 15  2  0  0  0
 14 16  1  0  0  0
 16  1  1  0  0  0
  1  2  1  0  0  0
  2  3  2  0  0  0
  3  6  1  0  0  0
  6  7  2  0  0  0
  7  8  1  0  0  0
  8  9  2  0  0  0
  9 10  1  0  0  0
  9 11  1  0  0  0
 11 12  2  0  0  0
  3  4  1  0  0  0
  4  5  1  0  0  0
  5 27  1  0  0  0
 27 28  2  0  0  0
 27 29  1  0  0  0
 26 21  1  0  0  0
  5  1  2  0  0  0
 12  6  1  0  0  0
 16 17  1  0  0  0
 29 30  1  0  0  0
M  END
> <score>
-0.300895

> <minimizedAffinity>
-7.57150

$$$$
HIPS452


 30 32  0  0  0  0  0  0  0  0999 V2000
   68.1670   78.9771   90.7535 C   0  0  0  0  0  0  0  0  0  0  0  0
   68.7136   77.7075   90.4886 C   0  0  0  0  0  0  0  0  0  0  0  0
   68.1623   76.6850   91.2615 C   0  0  0  0  0  0  0  0  0  0  0  0
   67.0140   77.3767   92.2832 S   0  0  0  0  0  0  0  0  0  0  0  0
   67.1949   78.9641   91.7590 C   0  0  0  0  0  0  0  0  0  0  0  0
   68.5264   75.2455   91.2227 C   0  0  0  0  0  0  0  0  0  0  0  0
   69.5001   74.7351   92.1012 C   0  0  0  0  0  0  0  0  0  0  0  0
   69.8474   73.3814   92.0711 C   0  0  0  0  0  0  0  0  0  0  0  0
   69.2170   72.5084   91.1745 C   0  0  0  0  0  0  0  0  0  0  0  0
   69.6186   71.0643   91.1159 C   0  0  0  0  0  0  0  0  0  0  0  0
   68.2555   73.0111   90.2876 C   0  0  0  0  0  0  0  0  0  0  0  0
   67.9072   74.3648   90.3153 C   0  0  0  0  0  0  0  0  0  0  0  0
   68.3903   82.1191   88.5608 N   0  0  0  0  0  0  0  0  0  0  0  0
   67.9168   80.8589   89.0756 C   0  0  0  0  0  0  0  0  0  0  0  0
   66.8642   80.3539   88.5993 O   0  0  0  0  0  0  0  0  0  0  0  0
   68.6343   80.1791   90.1207 N   0  0  0  0  0  0  0  0  0  0  0  0
   69.4926   80.5583   90.4185 H   0  0  0  0  0  0  0  0  0  0  0  0
   67.5782   83.6975   86.8405 C   0  0  0  0  0  0  0  0  0  0  0  0
   68.3004   82.3820   87.1178 C   0  0  0  0  0  0  0  0  0  0  0  0
   68.8687   83.1725   89.4709 C   0  0  0  0  0  0  0  0  0  0  0  0
   70.3641   83.3326   89.3646 C   0  0  0  0  0  0  0  0  0  0  0  0
   71.2236   82.4712   90.0678 C   0  0  0  0  0  0  0  0  0  0  0  0
   72.6098   82.6303   89.9799 C   0  0  0  0  0  0  0  0  0  0  0  0
   73.1493   83.6491   89.1907 C   0  0  0  0  0  0  0  0  0  0  0  0
   72.3031   84.5092   88.4862 C   0  0  0  0  0  0  0  0  0  0  0  0
   70.9163   84.3528   88.5705 C   0  0  0  0  0  0  0  0  0  0  0  0
   66.4109   80.0988   92.2787 C   0  0  0  0  0  0  0  0  0  0  0  0
   65.1891   79.9427   92.5442 O   0  0  0  0  0  0  0  0  0  0  0  0
   66.9965   81.3461   92.4668 O   0  0  0  0  0  0  0  0  0  0  0  0
   67.9044   81.4716   92.2720 H   0  0  0  0  0  0  0  0  0  0  0  0
 18 19  1  0  0  0
 19 13  1  0  0  0
 13 20  1  0  0  0
 20 21  1  0  0  0
 21 22  2  0  0  0
 22 23  1  0  0  0
 23 24  2  0  0  0
 24 25  1  0  0  0
 25 26  2  0  0  0
 13 14  1  0  0  0
 14 15  2  0  0  0
 14 16  1  0  0  0
 16  1  1  0  0  0
  1  2  1  0  0  0
  2  3  2  0  0  0
  3  6  1  0  0  0
  6  7  2  0  0  0
  7  8  1  0  0  0
  8  9  2  0  0  0
  9 10  1  0  0  0
  9 11  1  0  0  0
 11 12  2  0  0  0
  3  4  1  0  0  0
  4  5  1  0  0  0
  5 27  1  0  0  0
 27 28  2  0  0  0
 27 29  1  0  0  0
 26 21  1  0  0  0
  5  1  2  0  0  0
 12  6  1  0  0  0
 16 17  1  0  0  0
 29 30  1  0  0  0
M  END
> <score>
-0.065204

> <minimizedAffinity>
-8.08403

$$$$
HIPS452


 30 32  0  0  0  0  0  0  0  0999 V2000
   68.1632   78.9289   89.7102 C   0  0  0  0  0  0  0  0  0  0  0  0
   68.5603   77.8390   90.5074 C   0  0  0  0  0  0  0  0  0  0  0  0
   68.3193   76.5958   89.9215 C   0  0  0  0  0  0  0  0  0  0  0  0
   67.5937   76.8666   88.4244 S   0  0  0  0  0  0  0  0  0  0  0  0
   67.5820   78.5464   88.4968 C   0  0  0  0  0  0  0  0  0  0  0  0
   68.6184   75.2637   90.5065 C   0  0  0  0  0  0  0  0  0  0  0  0
   69.5192   75.1461   91.5812 C   0  0  0  0  0  0  0  0  0  0  0  0
   69.8051   73.8960   92.1377 C   0  0  0  0  0  0  0  0  0  0  0  0
   69.1841   72.7416   91.6423 C   0  0  0  0  0  0  0  0  0  0  0  0
   69.5216   71.3964   92.2139 C   0  0  0  0  0  0  0  0  0  0  0  0
   68.2956   72.8487   90.5639 C   0  0  0  0  0  0  0  0  0  0  0  0
   68.0088   74.0977   90.0053 C   0  0  0  0  0  0  0  0  0  0  0  0
   69.5096   82.4145   90.5863 N   0  0  0  0  0  0  0  0  0  0  0  0
   69.4990   81.0140   90.2457 C   0  0  0  0  0  0  0  0  0  0  0  0
   70.5920   80.4216   90.0359 O   0  0  0  0  0  0  0  0  0  0  0  0
   68.2575   80.2943   90.1464 N   0  0  0  0  0  0  0  0  0  0  0  0
   67.4270   80.7632   90.3906 H   0  0  0  0  0  0  0  0  0  0  0  0
   69.9424   83.6410   92.6884 C   0  0  0  0  0  0  0  0  0  0  0  0
   70.5527   82.9241   91.4873 C   0  0  0  0  0  0  0  0  0  0  0  0
   68.5525   83.3470   89.9689 C   0  0  0  0  0  0  0  0  0  0  0  0
   69.1806   84.0617   88.7993 C   0  0  0  0  0  0  0  0  0  0  0  0
   68.9079   85.4206   88.5662 C   0  0  0  0  0  0  0  0  0  0  0  0
   69.4793   86.0782   87.4728 C   0  0  0  0  0  0  0  0  0  0  0  0
   70.3267   85.3862   86.6039 C   0  0  0  0  0  0  0  0  0  0  0  0
   70.6056   84.0357   86.8285 C   0  0  0  0  0  0  0  0  0  0  0  0
   70.0370   83.3746   87.9214 C   0  0  0  0  0  0  0  0  0  0  0  0
   67.0701   79.4148   87.4217 C   0  0  0  0  0  0  0  0  0  0  0  0
   67.4561   79.2328   86.2362 O   0  0  0  0  0  0  0  0  0  0  0  0
   66.1768   80.4443   87.6984 O   0  0  0  0  0  0  0  0  0  0  0  0
   65.8842   80.5872   88.5770 H   0  0  0  0  0  0  0  0  0  0  0  0
 18 19  1  0  0  0
 19 13  1  0  0  0
 13 20  1  0  0  0
 20 21  1  0  0  0
 21 22  2  0  0  0
 22 23  1  0  0  0
 23 24  2  0  0  0
 24 25  1  0  0  0
 25 26  2  0  0  0
 13 14  1  0  0  0
 14 15  2  0  0  0
 14 16  1  0  0  0
 16  1  1  0  0  0
  1  2  1  0  0  0
  2  3  2  0  0  0
  3  6  1  0  0  0
  6  7  2  0  0  0
  7  8  1  0  0  0
  8  9  2  0  0  0
  9 10  1  0  0  0
  9 11  1  0  0  0
 11 12  2  0  0  0
  3  4  1  0  0  0
  4  5  1  0  0  0
  5 27  1  0  0  0
 27 28  2  0  0  0
 27 29  1  0  0  0
 26 21  1  0  0  0
  5  1  2  0  0  0
 12  6  1  0  0  0
 16 17  1  0  0  0
 29 30  1  0  0  0
M  END
> <score>
-0.065204

> <minimizedAffinity>
-7.70376

$$$$
HIPS452


 30 32  0  0  0  0  0  0  0  0999 V2000
   68.3571   79.2893   89.8310 C   0  0  0  0  0  0  0  0  0  0  0  0
   68.9994   78.0986   90.2191 C   0  0  0  0  0  0  0  0  0  0  0  0
   68.1620   76.9825   90.2220 C   0  0  0  0  0  0  0  0  0  0  0  0
   66.6236   77.4946   89.7616 S   0  0  0  0  0  0  0  0  0  0  0  0
   66.9977   79.1201   89.5488 C   0  0  0  0  0  0  0  0  0  0  0  0
   68.5349   75.5916   90.5860 C   0  0  0  0  0  0  0  0  0  0  0  0
   67.8961   74.5003   89.9686 C   0  0  0  0  0  0  0  0  0  0  0  0
   68.2422   73.1885   90.3053 C   0  0  0  0  0  0  0  0  0  0  0  0
   69.2446   72.9416   91.2528 C   0  0  0  0  0  0  0  0  0  0  0  0
   69.5875   71.5341   91.6422 C   0  0  0  0  0  0  0  0  0  0  0  0
   69.8766   74.0228   91.8815 C   0  0  0  0  0  0  0  0  0  0  0  0
   69.5315   75.3356   91.5470 C   0  0  0  0  0  0  0  0  0  0  0  0
   71.0384   82.0347   89.7743 N   0  0  0  0  0  0  0  0  0  0  0  0
   70.4409   80.7288   89.8972 C   0  0  0  0  0  0  0  0  0  0  0  0
   71.1829   79.7247   90.0730 O   0  0  0  0  0  0  0  0  0  0  0  0
   69.0135   80.5670   89.8225 N   0  0  0  0  0  0  0  0  0  0  0  0
   68.4560   81.3762   89.7622 H   0  0  0  0  0  0  0  0  0  0  0  0
   73.3044   83.0214   89.8186 C   0  0  0  0  0  0  0  0  0  0  0  0
   72.1811   82.3824   90.6303 C   0  0  0  0  0  0  0  0  0  0  0  0
   70.5803   82.9783   88.7416 C   0  0  0  0  0  0  0  0  0  0  0  0
   69.9585   84.1993   89.3706 C   0  0  0  0  0  0  0  0  0  0  0  0
   70.1185   85.4640   88.7788 C   0  0  0  0  0  0  0  0  0  0  0  0
   69.5538   86.5975   89.3712 C   0  0  0  0  0  0  0  0  0  0  0  0
   68.8256   86.4786   90.5577 C   0  0  0  0  0  0  0  0  0  0  0  0
   68.6593   85.2253   91.1525 C   0  0  0  0  0  0  0  0  0  0  0  0
   69.2215   84.0891   90.5626 C   0  0  0  0  0  0  0  0  0  0  0  0
   66.0292   80.1379   89.1037 C   0  0  0  0  0  0  0  0  0  0  0  0
   66.1754   80.6883   87.9797 O   0  0  0  0  0  0  0  0  0  0  0  0
   64.9622   80.5122   89.9135 O   0  0  0  0  0  0  0  0  0  0  0  0
   64.8455   80.1084   90.7509 H   0  0  0  0  0  0  0  0  0  0  0  0
 18 19  1  0  0  0
 19 13  1  0  0  0
 13 20  1  0  0  0
 20 21  1  0  0  0
 21 22  2  0  0  0
 22 23  1  0  0  0
 23 24  2  0  0  0
 24 25  1  0  0  0
 25 26  2  0  0  0
 13 14  1  0  0  0
 14 15  2  0  0  0
 14 16  1  0  0  0
 16  1  1  0  0  0
  1  2  1  0  0  0
  2  3  2  0  0  0
  3  6  1  0  0  0
  6  7  2  0  0  0
  7  8  1  0  0  0
  8  9  2  0  0  0
  9 10  1  0  0  0
  9 11  1  0  0  0
 11 12  2  0  0  0
  3  4  1  0  0  0
  4  5  1  0  0  0
  5 27  1  0  0  0
 27 28  2  0  0  0
 27 29  1  0  0  0
 26 21  1  0  0  0
  5  1  2  0  0  0
 12  6  1  0  0  0
 16 17  1  0  0  0
 29 30  1  0  0  0
M  END
> <score>
-0.065204

> <minimizedAffinity>
-7.70194

$$$$
HIPS456


 34 36  0  0  0  0  0  0  0  0999 V2000
   68.6580   76.6263   91.0347 C   0  0  0  0  0  0  0  0  0  0  0  0
   69.2422   77.8950   91.2076 C   0  0  0  0  0  0  0  0  0  0  0  0
   69.2276   78.6836   90.0556 C   0  0  0  0  0  0  0  0  0  0  0  0
   68.4744   77.7935   88.8377 S   0  0  0  0  0  0  0  0  0  0  0  0
   68.1580   76.4148   89.7460 C   0  0  0  0  0  0  0  0  0  0  0  0
   69.7581   80.0648   89.9104 C   0  0  0  0  0  0  0  0  0  0  0  0
   68.9383   81.1176   89.4625 C   0  0  0  0  0  0  0  0  0  0  0  0
   69.4494   82.4121   89.3273 C   0  0  0  0  0  0  0  0  0  0  0  0
   70.7945   82.6823   89.6374 C   0  0  0  0  0  0  0  0  0  0  0  0
   71.6110   81.6381   90.0808 C   0  0  0  0  0  0  0  0  0  0  0  0
   71.1029   80.3434   90.2159 C   0  0  0  0  0  0  0  0  0  0  0  0
   71.3596   83.9626   89.5205 O   0  0  0  0  0  0  0  0  0  0  0  0
   72.4418   84.3099   88.6591 C   0  0  0  0  0  0  0  0  0  0  0  0
   73.6158   83.8148   89.1926 F   0  0  0  0  0  0  0  0  0  0  0  0
   72.5454   85.6854   88.5540 F   0  0  0  0  0  0  0  0  0  0  0  0
   72.2519   83.7537   87.4066 F   0  0  0  0  0  0  0  0  0  0  0  0
   69.1293   73.5698   93.3059 N   0  0  0  0  0  0  0  0  0  0  0  0
   69.4046   74.5618   92.2965 C   0  0  0  0  0  0  0  0  0  0  0  0
   70.4374   74.4458   91.5826 O   0  0  0  0  0  0  0  0  0  0  0  0
   68.5167   75.6768   92.1027 N   0  0  0  0  0  0  0  0  0  0  0  0
   67.7725   75.7954   92.7361 H   0  0  0  0  0  0  0  0  0  0  0  0
   70.4381   71.5135   93.7196 C   0  0  0  0  0  0  0  0  0  0  0  0
   70.2483   72.9886   94.0613 C   0  0  0  0  0  0  0  0  0  0  0  0
   67.7646   73.0563   93.5080 C   0  0  0  0  0  0  0  0  0  0  0  0
   67.0129   73.9048   94.5023 C   0  0  0  0  0  0  0  0  0  0  0  0
   67.2257   73.7418   95.8821 C   0  0  0  0  0  0  0  0  0  0  0  0
   66.5329   74.5343   96.8021 C   0  0  0  0  0  0  0  0  0  0  0  0
   65.6218   75.4937   96.3542 C   0  0  0  0  0  0  0  0  0  0  0  0
   65.4020   75.6622   94.9847 C   0  0  0  0  0  0  0  0  0  0  0  0
   66.0922   74.8711   94.0612 C   0  0  0  0  0  0  0  0  0  0  0  0
   67.5050   75.2061   89.2123 C   0  0  0  0  0  0  0  0  0  0  0  0
   66.6415   75.3146   88.3016 O   0  0  0  0  0  0  0  0  0  0  0  0
   67.8373   73.9435   89.6902 O   0  0  0  0  0  0  0  0  0  0  0  0
   68.4785   73.8527   90.3675 H   0  0  0  0  0  0  0  0  0  0  0  0
 22 23  1  0  0  0
 23 17  1  0  0  0
 17 24  1  0  0  0
 24 25  1  0  0  0
 25 26  2  0  0  0
 26 27  1  0  0  0
 27 28  2  0  0  0
 28 29  1  0  0  0
 29 30  2  0  0  0
 17 18  1  0  0  0
 18 19  2  0  0  0
 18 20  1  0  0  0
 20  1  1  0  0  0
  1  2  1  0  0  0
  2  3  2  0  0  0
  3  6  1  0  0  0
  6  7  2  0  0  0
  7  8  1  0  0  0
  8  9  2  0  0  0
  9 12  1  0  0  0
 12 13  1  0  0  0
 13 14  1  0  0  0
 13 15  1  0  0  0
 13 16  1  0  0  0
  9 10  1  0  0  0
 10 11  2  0  0  0
  3  4  1  0  0  0
  4  5  1  0  0  0
  5 31  1  0  0  0
 31 32  2  0  0  0
 31 33  1  0  0  0
 30 25  1  0  0  0
  5  1  2  0  0  0
 11  6  1  0  0  0
 20 21  1  0  0  0
 33 34  1  0  0  0
M  END
> <score>
-0.506282

> <minimizedAffinity>
-8.08626

$$$$
HIPS456


 34 36  0  0  0  0  0  0  0  0999 V2000
   68.6309   77.9065   90.0242 C   0  0  0  0  0  0  0  0  0  0  0  0
   69.1402   77.0203   90.9917 C   0  0  0  0  0  0  0  0  0  0  0  0
   68.6721   75.7117   90.8590 C   0  0  0  0  0  0  0  0  0  0  0  0
   67.6378   75.6727   89.5280 S   0  0  0  0  0  0  0  0  0  0  0  0
   67.7718   77.2944   89.1062 C   0  0  0  0  0  0  0  0  0  0  0  0
   69.0211   74.5460   91.7130 C   0  0  0  0  0  0  0  0  0  0  0  0
   69.1945   73.2630   91.1605 C   0  0  0  0  0  0  0  0  0  0  0  0
   69.5201   72.1736   91.9744 C   0  0  0  0  0  0  0  0  0  0  0  0
   69.6792   72.3439   93.3615 C   0  0  0  0  0  0  0  0  0  0  0  0
   69.5058   73.6166   93.9127 C   0  0  0  0  0  0  0  0  0  0  0  0
   69.1796   74.7068   93.1016 C   0  0  0  0  0  0  0  0  0  0  0  0
   70.0060   71.2858   94.2251 O   0  0  0  0  0  0  0  0  0  0  0  0
   71.2567   70.6011   94.2527 C   0  0  0  0  0  0  0  0  0  0  0  0
   71.2644   69.6421   93.2587 F   0  0  0  0  0  0  0  0  0  0  0  0
   71.4323   69.9774   95.4750 F   0  0  0  0  0  0  0  0  0  0  0  0
   72.2920   71.4895   94.0229 F   0  0  0  0  0  0  0  0  0  0  0  0
   68.6140   81.7385   90.2197 N   0  0  0  0  0  0  0  0  0  0  0  0
   68.2286   80.3692   90.4544 C   0  0  0  0  0  0  0  0  0  0  0  0
   67.1853   80.1270   91.1197 O   0  0  0  0  0  0  0  0  0  0  0  0
   69.0232   79.2854   89.9413 N   0  0  0  0  0  0  0  0  0  0  0  0
   69.8817   79.5005   89.5102 H   0  0  0  0  0  0  0  0  0  0  0  0
   67.3466   83.7554   90.8819 C   0  0  0  0  0  0  0  0  0  0  0  0
   68.4057   82.7323   91.2825 C   0  0  0  0  0  0  0  0  0  0  0  0
   69.1049   82.1695   88.9005 C   0  0  0  0  0  0  0  0  0  0  0  0
   70.5036   82.7237   89.0023 C   0  0  0  0  0  0  0  0  0  0  0  0
   70.8826   83.8440   88.2429 C   0  0  0  0  0  0  0  0  0  0  0  0
   72.1777   84.3606   88.3439 C   0  0  0  0  0  0  0  0  0  0  0  0
   73.1052   83.7637   89.2010 C   0  0  0  0  0  0  0  0  0  0  0  0
   72.7386   82.6485   89.9589 C   0  0  0  0  0  0  0  0  0  0  0  0
   71.4446   82.1283   89.8602 C   0  0  0  0  0  0  0  0  0  0  0  0
   67.0507   77.9178   87.9821 C   0  0  0  0  0  0  0  0  0  0  0  0
   66.8825   77.2713   86.9142 O   0  0  0  0  0  0  0  0  0  0  0  0
   66.5401   79.2068   88.0868 O   0  0  0  0  0  0  0  0  0  0  0  0
   66.6602   79.6955   88.8772 H   0  0  0  0  0  0  0  0  0  0  0  0
 22 23  1  0  0  0
 23 17  1  0  0  0
 17 24  1  0  0  0
 24 25  1  0  0  0
 25 26  2  0  0  0
 26 27  1  0  0  0
 27 28  2  0  0  0
 28 29  1  0  0  0
 29 30  2  0  0  0
 17 18  1  0  0  0
 18 19  2  0  0  0
 18 20  1  0  0  0
 20  1  1  0  0  0
  1  2  1  0  0  0
  2  3  2  0  0  0
  3  6  1  0  0  0
  6  7  2  0  0  0
  7  8  1  0  0  0
  8  9  2  0  0  0
  9 12  1  0  0  0
 12 13  1  0  0  0
 13 14  1  0  0  0
 13 15  1  0  0  0
 13 16  1  0  0  0
  9 10  1  0  0  0
 10 11  2  0  0  0
  3  4  1  0  0  0
  4  5  1  0  0  0
  5 31  1  0  0  0
 31 32  2  0  0  0
 31 33  1  0  0  0
 30 25  1  0  0  0
  5  1  2  0  0  0
 11  6  1  0  0  0
 20 21  1  0  0  0
 33 34  1  0  0  0
M  END
> <score>
-0.506282

> <minimizedAffinity>
-8.03322

$$$$
HIPS456


 34 36  0  0  0  0  0  0  0  0999 V2000
   69.7205   73.4021   92.8966 C   0  0  0  0  0  0  0  0  0  0  0  0
   69.6918   74.1203   91.6865 C   0  0  0  0  0  0  0  0  0  0  0  0
   68.7687   75.1676   91.6747 C   0  0  0  0  0  0  0  0  0  0  0  0
   68.0076   75.1935   93.1790 S   0  0  0  0  0  0  0  0  0  0  0  0
   68.8318   73.8948   93.8573 C   0  0  0  0  0  0  0  0  0  0  0  0
   68.5005   76.1110   90.5575 C   0  0  0  0  0  0  0  0  0  0  0  0
   67.4477   75.8870   89.6505 C   0  0  0  0  0  0  0  0  0  0  0  0
   67.2069   76.7801   88.6019 C   0  0  0  0  0  0  0  0  0  0  0  0
   68.0159   77.9189   88.4370 C   0  0  0  0  0  0  0  0  0  0  0  0
   69.0631   78.1425   89.3353 C   0  0  0  0  0  0  0  0  0  0  0  0
   69.3063   77.2511   90.3836 C   0  0  0  0  0  0  0  0  0  0  0  0
   67.8191   78.8484   87.4028 O   0  0  0  0  0  0  0  0  0  0  0  0
   67.2587   80.1503   87.5608 C   0  0  0  0  0  0  0  0  0  0  0  0
   65.8930   80.0325   87.7310 F   0  0  0  0  0  0  0  0  0  0  0  0
   67.5031   80.9148   86.4340 F   0  0  0  0  0  0  0  0  0  0  0  0
   67.7952   80.7683   88.6762 F   0  0  0  0  0  0  0  0  0  0  0  0
   71.1866   69.9048   93.4814 N   0  0  0  0  0  0  0  0  0  0  0  0
   70.2571   70.9351   93.0899 C   0  0  0  0  0  0  0  0  0  0  0  0
   69.1055   70.6091   92.6931 O   0  0  0  0  0  0  0  0  0  0  0  0
   70.6338   72.3222   93.1451 N   0  0  0  0  0  0  0  0  0  0  0  0
   71.5676   72.5431   93.3650 H   0  0  0  0  0  0  0  0  0  0  0  0
   71.7526   68.8421   91.3221 C   0  0  0  0  0  0  0  0  0  0  0  0
   71.2086   68.6397   92.7335 C   0  0  0  0  0  0  0  0  0  0  0  0
   72.0268   70.0614   94.6800 C   0  0  0  0  0  0  0  0  0  0  0  0
   73.4838   69.8664   94.3440 C   0  0  0  0  0  0  0  0  0  0  0  0
   74.1463   70.7709   93.4964 C   0  0  0  0  0  0  0  0  0  0  0  0
   75.4990   70.5924   93.1917 C   0  0  0  0  0  0  0  0  0  0  0  0
   76.2010   69.5104   93.7281 C   0  0  0  0  0  0  0  0  0  0  0  0
   75.5509   68.6047   94.5704 C   0  0  0  0  0  0  0  0  0  0  0  0
   74.1980   68.7792   94.8769 C   0  0  0  0  0  0  0  0  0  0  0  0
   68.5869   73.3801   95.2165 C   0  0  0  0  0  0  0  0  0  0  0  0
   67.4402   73.4880   95.7266 O   0  0  0  0  0  0  0  0  0  0  0  0
   69.6008   72.7640   95.9413 O   0  0  0  0  0  0  0  0  0  0  0  0
   70.4569   72.6791   95.5703 H   0  0  0  0  0  0  0  0  0  0  0  0
 22 23  1  0  0  0
 23 17  1  0  0  0
 17 24  1  0  0  0
 24 25  1  0  0  0
 25 26  2  0  0  0
 26 27  1  0  0  0
 27 28  2  0  0  0
 28 29  1  0  0  0
 29 30  2  0  0  0
 17 18  1  0  0  0
 18 19  2  0  0  0
 18 20  1  0  0  0
 20  1  1  0  0  0
  1  2  1  0  0  0
  2  3  2  0  0  0
  3  6  1  0  0  0
  6  7  2  0  0  0
  7  8  1  0  0  0
  8  9  2  0  0  0
  9 12  1  0  0  0
 12 13  1  0  0  0
 13 14  1  0  0  0
 13 15  1  0  0  0
 13 16  1  0  0  0
  9 10  1  0  0  0
 10 11  2  0  0  0
  3  4  1  0  0  0
  4  5  1  0  0  0
  5 31  1  0  0  0
 31 32  2  0  0  0
 31 33  1  0  0  0
 30 25  1  0  0  0
  5  1  2  0  0  0
 11  6  1  0  0  0
 20 21  1  0  0  0
 33 34  1  0  0  0
M  END
> <score>
-0.506282

> <minimizedAffinity>
-7.91939

$$$$
HIPS470


 32 35  0  0  0  0  0  0  0  0999 V2000
   68.4640   76.5703   90.0755 O   0  0  0  0  0  0  0  0  0  0  0  0
   68.8969   77.3785   90.9424 C   0  0  0  0  0  0  0  0  0  0  0  0
   68.7872   77.0492   92.3370 N   0  0  0  0  0  0  0  0  0  0  0  0
   68.8415   77.7764   92.9984 H   0  0  0  0  0  0  0  0  0  0  0  0
   69.4719   78.6743   90.5069 C   0  0  0  0  0  0  0  0  0  0  0  0
   70.8658   78.8488   90.4640 C   0  0  0  0  0  0  0  0  0  0  0  0
   71.4183   80.0672   90.0599 C   0  0  0  0  0  0  0  0  0  0  0  0
   70.5893   81.1428   89.6978 C   0  0  0  0  0  0  0  0  0  0  0  0
   69.1952   80.9725   89.7526 C   0  0  0  0  0  0  0  0  0  0  0  0
   68.6425   79.7534   90.1547 C   0  0  0  0  0  0  0  0  0  0  0  0
   71.1766   82.4382   89.2694 C   0  0  0  0  0  0  0  0  0  0  0  0
   70.4429   83.3220   88.4550 C   0  0  0  0  0  0  0  0  0  0  0  0
   70.9978   84.5410   88.0534 C   0  0  0  0  0  0  0  0  0  0  0  0
   72.2879   84.8912   88.4578 C   0  0  0  0  0  0  0  0  0  0  0  0
   73.0260   84.0230   89.2651 C   0  0  0  0  0  0  0  0  0  0  0  0
   72.4760   82.8032   89.6705 C   0  0  0  0  0  0  0  0  0  0  0  0
   68.6017   75.7048   92.8075 C   0  0  0  0  0  0  0  0  0  0  0  0
   69.5414   74.6825   92.5786 C   0  0  0  0  0  0  0  0  0  0  0  0
   69.2144   73.4692   93.1869 C   0  0  0  0  0  0  0  0  0  0  0  0
   67.7583   73.6876   94.0088 S   0  0  0  0  0  0  0  0  0  0  0  0
   67.5281   75.3045   93.6092 C   0  0  0  0  0  0  0  0  0  0  0  0
   69.9968   72.2060   93.1405 C   0  0  0  0  0  0  0  0  0  0  0  0
   69.9172   71.3391   92.0321 C   0  0  0  0  0  0  0  0  0  0  0  0
   70.6588   70.1541   92.0017 C   0  0  0  0  0  0  0  0  0  0  0  0
   71.4896   69.8173   93.0729 C   0  0  0  0  0  0  0  0  0  0  0  0
   72.4186   68.3299   93.0311 Cl  0  0  0  0  0  0  0  0  0  0  0  0
   71.5803   70.6684   94.1767 C   0  0  0  0  0  0  0  0  0  0  0  0
   70.8413   71.8545   94.2118 C   0  0  0  0  0  0  0  0  0  0  0  0
   66.3490   76.0926   94.0081 C   0  0  0  0  0  0  0  0  0  0  0  0
   65.5530   75.6314   94.8692 O   0  0  0  0  0  0  0  0  0  0  0  0
   66.0856   77.3280   93.4257 O   0  0  0  0  0  0  0  0  0  0  0  0
   66.6722   77.6783   92.7846 H   0  0  0  0  0  0  0  0  0  0  0  0
  1  2  2  0  0  0
  2  3  1  0  0  0
  3 17  1  0  0  0
 17 18  1  0  0  0
 18 19  2  0  0  0
 19 22  1  0  0  0
 22 23  2  0  0  0
 23 24  1  0  0  0
 24 25  2  0  0  0
 25 26  1  0  0  0
 25 27  1  0  0  0
 27 28  2  0  0  0
 19 20  1  0  0  0
 20 21  1  0  0  0
 21 29  1  0  0  0
 29 30  2  0  0  0
 29 31  1  0  0  0
  2  5  1  0  0  0
  5  6  2  0  0  0
  6  7  1  0  0  0
  7  8  2  0  0  0
  8 11  1  0  0  0
 11 12  2  0  0  0
 12 13  1  0  0  0
 13 14  2  0  0  0
 14 15  1  0  0  0
 15 16  2  0  0  0
  8  9  1  0  0  0
  9 10  2  0  0  0
 21 17  2  0  0  0
 10  5  1  0  0  0
 28 22  1  0  0  0
 16 11  1  0  0  0
  3  4  1  0  0  0
 31 32  1  0  0  0
M  END
> <score>
-0.799211

> <minimizedAffinity>
-8.88114

$$$$
HIPS470


 32 35  0  0  0  0  0  0  0  0999 V2000
   70.8974   77.6982   91.1619 O   0  0  0  0  0  0  0  0  0  0  0  0
   69.8089   78.1576   90.7189 C   0  0  0  0  0  0  0  0  0  0  0  0
   68.6341   77.3298   90.7263 N   0  0  0  0  0  0  0  0  0  0  0  0
   67.8885   77.5648   90.1278 H   0  0  0  0  0  0  0  0  0  0  0  0
   69.7724   79.5299   90.1579 C   0  0  0  0  0  0  0  0  0  0  0  0
   70.9166   80.3444   90.2108 C   0  0  0  0  0  0  0  0  0  0  0  0
   70.8920   81.6408   89.6896 C   0  0  0  0  0  0  0  0  0  0  0  0
   69.7194   82.1564   89.1112 C   0  0  0  0  0  0  0  0  0  0  0  0
   68.5714   81.3465   89.0695 C   0  0  0  0  0  0  0  0  0  0  0  0
   68.5965   80.0491   89.5888 C   0  0  0  0  0  0  0  0  0  0  0  0
   69.6928   83.5348   88.5583 C   0  0  0  0  0  0  0  0  0  0  0  0
   69.2069   84.6066   89.3313 C   0  0  0  0  0  0  0  0  0  0  0  0
   69.1833   85.9034   88.8086 C   0  0  0  0  0  0  0  0  0  0  0  0
   69.6421   86.1450   87.5118 C   0  0  0  0  0  0  0  0  0  0  0  0
   70.1260   85.0903   86.7348 C   0  0  0  0  0  0  0  0  0  0  0  0
   70.1528   83.7917   87.2526 C   0  0  0  0  0  0  0  0  0  0  0  0
   68.5007   76.1743   91.5691 C   0  0  0  0  0  0  0  0  0  0  0  0
   69.2099   74.9805   91.3406 C   0  0  0  0  0  0  0  0  0  0  0  0
   69.0029   74.0056   92.3182 C   0  0  0  0  0  0  0  0  0  0  0  0
   67.9413   74.6471   93.4605 S   0  0  0  0  0  0  0  0  0  0  0  0
   67.7345   76.1514   92.7386 C   0  0  0  0  0  0  0  0  0  0  0  0
   69.6056   72.6476   92.3688 C   0  0  0  0  0  0  0  0  0  0  0  0
   69.3775   71.7097   91.3417 C   0  0  0  0  0  0  0  0  0  0  0  0
   69.9509   70.4358   91.4021 C   0  0  0  0  0  0  0  0  0  0  0  0
   70.7591   70.0795   92.4842 C   0  0  0  0  0  0  0  0  0  0  0  0
   71.4768   68.4805   92.5563 Cl  0  0  0  0  0  0  0  0  0  0  0  0
   70.9960   70.9998   93.5077 C   0  0  0  0  0  0  0  0  0  0  0  0
   70.4255   72.2748   93.4519 C   0  0  0  0  0  0  0  0  0  0  0  0
   66.8385   77.1991   93.2583 C   0  0  0  0  0  0  0  0  0  0  0  0
   67.1298   78.4123   93.0824 O   0  0  0  0  0  0  0  0  0  0  0  0
   65.6883   76.8679   93.9669 O   0  0  0  0  0  0  0  0  0  0  0  0
   65.4643   75.9683   94.1024 H   0  0  0  0  0  0  0  0  0  0  0  0
  1  2  2  0  0  0
  2  3  1  0  0  0
  3 17  1  0  0  0
 17 18  1  0  0  0
 18 19  2  0  0  0
 19 22  1  0  0  0
 22 23  2  0  0  0
 23 24  1  0  0  0
 24 25  2  0  0  0
 25 26  1  0  0  0
 25 27  1  0  0  0
 27 28  2  0  0  0
 19 20  1  0  0  0
 20 21  1  0  0  0
 21 29  1  0  0  0
 29 30  2  0  0  0
 29 31  1  0  0  0
  2  5  1  0  0  0
  5  6  2  0  0  0
  6  7  1  0  0  0
  7  8  2  0  0  0
  8 11  1  0  0  0
 11 12  2  0  0  0
 12 13  1  0  0  0
 13 14  2  0  0  0
 14 15  1  0  0  0
 15 16  2  0  0  0
  8  9  1  0  0  0
  9 10  2  0  0  0
 21 17  2  0  0  0
 10  5  1  0  0  0
 28 22  1  0  0  0
 16 11  1  0  0  0
  3  4  1  0  0  0
 31 32  1  0  0  0
M  END
> <score>
-0.799211

> <minimizedAffinity>
-8.56985

$$$$
HIPS470


 32 35  0  0  0  0  0  0  0  0999 V2000
   71.0356   77.9220   90.8211 O   0  0  0  0  0  0  0  0  0  0  0  0
   70.0270   78.6422   90.5844 C   0  0  0  0  0  0  0  0  0  0  0  0
   68.7101   78.0772   90.6942 N   0  0  0  0  0  0  0  0  0  0  0  0
   67.9647   78.5270   90.2345 H   0  0  0  0  0  0  0  0  0  0  0  0
   70.2211   80.0481   90.1542 C   0  0  0  0  0  0  0  0  0  0  0  0
   71.4810   80.6577   90.2826 C   0  0  0  0  0  0  0  0  0  0  0  0
   71.6738   81.9835   89.8849 C   0  0  0  0  0  0  0  0  0  0  0  0
   70.6087   82.7337   89.3578 C   0  0  0  0  0  0  0  0  0  0  0  0
   69.3456   82.1283   89.2410 C   0  0  0  0  0  0  0  0  0  0  0  0
   69.1530   80.8016   89.6367 C   0  0  0  0  0  0  0  0  0  0  0  0
   70.8134   84.1433   88.9363 C   0  0  0  0  0  0  0  0  0  0  0  0
   69.7940   85.0983   89.1131 C   0  0  0  0  0  0  0  0  0  0  0  0
   69.9894   86.4246   88.7158 C   0  0  0  0  0  0  0  0  0  0  0  0
   71.2003   86.8123   88.1382 C   0  0  0  0  0  0  0  0  0  0  0  0
   72.2190   85.8745   87.9569 C   0  0  0  0  0  0  0  0  0  0  0  0
   72.0297   84.5470   88.3531 C   0  0  0  0  0  0  0  0  0  0  0  0
   68.4346   76.8844   91.4456 C   0  0  0  0  0  0  0  0  0  0  0  0
   69.0960   75.6654   91.2069 C   0  0  0  0  0  0  0  0  0  0  0  0
   68.7444   74.6491   92.0972 C   0  0  0  0  0  0  0  0  0  0  0  0
   67.6157   75.2854   93.1764 S   0  0  0  0  0  0  0  0  0  0  0  0
   67.5607   76.8391   92.5363 C   0  0  0  0  0  0  0  0  0  0  0  0
   69.2646   73.2567   92.1155 C   0  0  0  0  0  0  0  0  0  0  0  0
   70.0220   72.7753   93.2023 C   0  0  0  0  0  0  0  0  0  0  0  0
   70.5051   71.4631   93.2064 C   0  0  0  0  0  0  0  0  0  0  0  0
   70.2400   70.6133   92.1301 C   0  0  0  0  0  0  0  0  0  0  0  0
   70.8476   68.9677   92.1389 Cl  0  0  0  0  0  0  0  0  0  0  0  0
   69.4883   71.0760   91.0476 C   0  0  0  0  0  0  0  0  0  0  0  0
   69.0027   72.3869   91.0388 C   0  0  0  0  0  0  0  0  0  0  0  0
   66.6779   77.9066   93.0380 C   0  0  0  0  0  0  0  0  0  0  0  0
   66.9069   79.1049   92.7225 O   0  0  0  0  0  0  0  0  0  0  0  0
   65.6103   77.6134   93.8800 O   0  0  0  0  0  0  0  0  0  0  0  0
   65.4329   76.7251   94.1197 H   0  0  0  0  0  0  0  0  0  0  0  0
  1  2  2  0  0  0
  2  3  1  0  0  0
  3 17  1  0  0  0
 17 18  1  0  0  0
 18 19  2  0  0  0
 19 22  1  0  0  0
 22 23  2  0  0  0
 23 24  1  0  0  0
 24 25  2  0  0  0
 25 26  1  0  0  0
 25 27  1  0  0  0
 27 28  2  0  0  0
 19 20  1  0  0  0
 20 21  1  0  0  0
 21 29  1  0  0  0
 29 30  2  0  0  0
 29 31  1  0  0  0
  2  5  1  0  0  0
  5  6  2  0  0  0
  6  7  1  0  0  0
  7  8  2  0  0  0
  8 11  1  0  0  0
 11 12  2  0  0  0
 12 13  1  0  0  0
 13 14  2  0  0  0
 14 15  1  0  0  0
 15 16  2  0  0  0
  8  9  1  0  0  0
  9 10  2  0  0  0
 21 17  2  0  0  0
 10  5  1  0  0  0
 28 22  1  0  0  0
 16 11  1  0  0  0
  3  4  1  0  0  0
 31 32  1  0  0  0
M  END
> <score>
-0.799211

> <minimizedAffinity>
-8.50291

$$$$
HIPS477


 31 33  0  0  0  0  0  0  0  0999 V2000
   68.3861   81.2495   89.5588 C   0  0  0  0  0  0  0  0  0  0  0  0
   67.4428   81.6133   88.2207 S   0  0  0  0  0  0  0  0  0  0  0  0
   68.2866   82.9946   87.7760 C   0  0  0  0  0  0  0  0  0  0  0  0
   69.3464   83.1812   88.6628 C   0  0  0  0  0  0  0  0  0  0  0  0
   69.4107   82.1963   89.6797 C   0  0  0  0  0  0  0  0  0  0  0  0
   70.3267   84.2718   88.4699 C   0  0  0  0  0  0  0  0  0  0  0  0
   71.6288   83.9926   88.0249 C   0  0  0  0  0  0  0  0  0  0  0  0
   72.5432   85.0297   87.8251 C   0  0  0  0  0  0  0  0  0  0  0  0
   72.1663   86.3572   88.0549 C   0  0  0  0  0  0  0  0  0  0  0  0
   73.3453   87.6351   87.7922 Cl  0  0  0  0  0  0  0  0  0  0  0  0
   70.8600   86.6471   88.4834 C   0  0  0  0  0  0  0  0  0  0  0  0
   70.3435   88.3021   88.7771 Cl  0  0  0  0  0  0  0  0  0  0  0  0
   69.9454   85.6061   88.6832 C   0  0  0  0  0  0  0  0  0  0  0  0
   68.3172   77.7092   91.0211 N   0  0  0  0  0  0  0  0  0  0  0  0
   68.7746   78.8726   90.2919 C   0  0  0  0  0  0  0  0  0  0  0  0
   69.7772   78.7760   89.5313 O   0  0  0  0  0  0  0  0  0  0  0  0
   68.1212   80.1453   90.4331 N   0  0  0  0  0  0  0  0  0  0  0  0
   67.4662   80.2629   91.1587 H   0  0  0  0  0  0  0  0  0  0  0  0
   67.2192   77.4119   93.2133 C   0  0  0  0  0  0  0  0  0  0  0  0
   67.0258   77.7039   91.7282 C   0  0  0  0  0  0  0  0  0  0  0  0
   69.1553   76.5006   91.0491 C   0  0  0  0  0  0  0  0  0  0  0  0
   68.4502   75.3629   90.3613 C   0  0  0  0  0  0  0  0  0  0  0  0
   68.5501   74.0529   90.8599 C   0  0  0  0  0  0  0  0  0  0  0  0
   67.8699   73.0062   90.2299 C   0  0  0  0  0  0  0  0  0  0  0  0
   67.0836   73.2595   89.1027 C   0  0  0  0  0  0  0  0  0  0  0  0
   66.9749   74.5606   88.6042 C   0  0  0  0  0  0  0  0  0  0  0  0
   67.6533   75.6102   89.2313 C   0  0  0  0  0  0  0  0  0  0  0  0
   70.4444   82.1618   90.7356 C   0  0  0  0  0  0  0  0  0  0  0  0
   70.3742   82.9464   91.7190 O   0  0  0  0  0  0  0  0  0  0  0  0
   71.5045   81.2643   90.6492 O   0  0  0  0  0  0  0  0  0  0  0  0
   71.5636   80.6777   89.9209 H   0  0  0  0  0  0  0  0  0  0  0  0
 19 20  1  0  0  0
 20 14  1  0  0  0
 14 21  1  0  0  0
 21 22  1  0  0  0
 22 23  2  0  0  0
 23 24  1  0  0  0
 24 25  2  0  0  0
 25 26  1  0  0  0
 26 27  2  0  0  0
 14 15  1  0  0  0
 15 16  2  0  0  0
 15 17  1  0  0  0
 17  1  1  0  0  0
  1  2  1  0  0  0
  2  3  1  0  0  0
  3  4  2  0  0  0
  4  6  1  0  0  0
  6  7  2  0  0  0
  7  8  1  0  0  0
  8  9  2  0  0  0
  9 10  1  0  0  0
  9 11  1  0  0  0
 11 12  1  0  0  0
 11 13  2  0  0  0
  4  5  1  0  0  0
  5 28  1  0  0  0
 28 29  2  0  0  0
 28 30  1  0  0  0
 27 22  1  0  0  0
  5  1  2  0  0  0
 13  6  1  0  0  0
 17 18  1  0  0  0
 30 31  1  0  0  0
M  END
> <score>
-0.169582

> <minimizedAffinity>
-8.14758

$$$$
HIPS477


 31 33  0  0  0  0  0  0  0  0999 V2000
   68.2853   76.3165   90.0516 C   0  0  0  0  0  0  0  0  0  0  0  0
   67.3508   75.2395   89.1689 S   0  0  0  0  0  0  0  0  0  0  0  0
   67.8830   73.8544   89.9538 C   0  0  0  0  0  0  0  0  0  0  0  0
   68.7918   74.2192   90.9464 C   0  0  0  0  0  0  0  0  0  0  0  0
   69.0282   75.6150   91.0091 C   0  0  0  0  0  0  0  0  0  0  0  0
   69.3648   73.2158   91.8698 C   0  0  0  0  0  0  0  0  0  0  0  0
   69.5720   73.5256   93.2235 C   0  0  0  0  0  0  0  0  0  0  0  0
   70.0944   72.5663   94.0944 C   0  0  0  0  0  0  0  0  0  0  0  0
   70.4045   71.2841   93.6285 C   0  0  0  0  0  0  0  0  0  0  0  0
   71.0602   70.1039   94.7550 Cl  0  0  0  0  0  0  0  0  0  0  0  0
   70.1839   70.9601   92.2793 C   0  0  0  0  0  0  0  0  0  0  0  0
   70.5533   69.3585   91.6545 Cl  0  0  0  0  0  0  0  0  0  0  0  0
   69.6604   71.9232   91.4083 C   0  0  0  0  0  0  0  0  0  0  0  0
   67.3660   80.0349   90.1249 N   0  0  0  0  0  0  0  0  0  0  0  0
   67.5125   78.6597   90.5516 C   0  0  0  0  0  0  0  0  0  0  0  0
   66.9466   78.2732   91.6114 O   0  0  0  0  0  0  0  0  0  0  0  0
   68.3095   77.7275   89.8017 N   0  0  0  0  0  0  0  0  0  0  0  0
   68.8947   78.0718   89.0887 H   0  0  0  0  0  0  0  0  0  0  0  0
   66.6001   80.7032   87.8740 C   0  0  0  0  0  0  0  0  0  0  0  0
   67.8000   80.4756   88.7888 C   0  0  0  0  0  0  0  0  0  0  0  0
   66.7610   81.0134   91.0417 C   0  0  0  0  0  0  0  0  0  0  0  0
   67.8166   81.9371   91.5868 C   0  0  0  0  0  0  0  0  0  0  0  0
   67.6270   82.5961   92.8132 C   0  0  0  0  0  0  0  0  0  0  0  0
   68.6246   83.4317   93.3249 C   0  0  0  0  0  0  0  0  0  0  0  0
   69.8176   83.6119   92.6198 C   0  0  0  0  0  0  0  0  0  0  0  0
   70.0158   82.9555   91.4020 C   0  0  0  0  0  0  0  0  0  0  0  0
   69.0209   82.1189   90.8868 C   0  0  0  0  0  0  0  0  0  0  0  0
   69.9393   76.2584   91.9789 C   0  0  0  0  0  0  0  0  0  0  0  0
   71.1876   76.1793   91.8265 O   0  0  0  0  0  0  0  0  0  0  0  0
   69.4246   76.9535   93.0691 O   0  0  0  0  0  0  0  0  0  0  0  0
   68.4975   77.0166   93.1892 H   0  0  0  0  0  0  0  0  0  0  0  0
 19 20  1  0  0  0
 20 14  1  0  0  0
 14 21  1  0  0  0
 21 22  1  0  0  0
 22 23  2  0  0  0
 23 24  1  0  0  0
 24 25  2  0  0  0
 25 26  1  0  0  0
 26 27  2  0  0  0
 14 15  1  0  0  0
 15 16  2  0  0  0
 15 17  1  0  0  0
 17  1  1  0  0  0
  1  2  1  0  0  0
  2  3  1  0  0  0
  3  4  2  0  0  0
  4  6  1  0  0  0
  6  7  2  0  0  0
  7  8  1  0  0  0
  8  9  2  0  0  0
  9 10  1  0  0  0
  9 11  1  0  0  0
 11 12  1  0  0  0
 11 13  2  0  0  0
  4  5  1  0  0  0
  5 28  1  0  0  0
 28 29  2  0  0  0
 28 30  1  0  0  0
 27 22  1  0  0  0
  5  1  2  0  0  0
 13  6  1  0  0  0
 17 18  1  0  0  0
 30 31  1  0  0  0
M  END
> <score>
-0.169582

> <minimizedAffinity>
-7.80725

$$$$
HIPS477


 31 33  0  0  0  0  0  0  0  0999 V2000
   68.3565   81.1180   88.8299 C   0  0  0  0  0  0  0  0  0  0  0  0
   67.3542   81.7421   87.6389 S   0  0  0  0  0  0  0  0  0  0  0  0
   68.1851   83.1876   87.4438 C   0  0  0  0  0  0  0  0  0  0  0  0
   69.2862   83.1942   88.2994 C   0  0  0  0  0  0  0  0  0  0  0  0
   69.3915   82.0241   89.0918 C   0  0  0  0  0  0  0  0  0  0  0  0
   70.2633   84.3045   88.2855 C   0  0  0  0  0  0  0  0  0  0  0  0
   71.6128   84.0658   87.9799 C   0  0  0  0  0  0  0  0  0  0  0  0
   72.5261   85.1224   87.9483 C   0  0  0  0  0  0  0  0  0  0  0  0
   72.1024   86.4299   88.2091 C   0  0  0  0  0  0  0  0  0  0  0  0
   73.2816   87.7334   88.1600 Cl  0  0  0  0  0  0  0  0  0  0  0  0
   70.7504   86.6802   88.4985 C   0  0  0  0  0  0  0  0  0  0  0  0
   70.1749   88.3093   88.8251 Cl  0  0  0  0  0  0  0  0  0  0  0  0
   69.8370   85.6197   88.5297 C   0  0  0  0  0  0  0  0  0  0  0  0
   67.6960   78.4906   91.5386 N   0  0  0  0  0  0  0  0  0  0  0  0
   67.6851   79.7574   90.8388 C   0  0  0  0  0  0  0  0  0  0  0  0
   67.2641   80.7907   91.4287 O   0  0  0  0  0  0  0  0  0  0  0  0
   68.1255   79.8588   89.4742 N   0  0  0  0  0  0  0  0  0  0  0  0
   68.2743   79.0312   88.9623 H   0  0  0  0  0  0  0  0  0  0  0  0
   67.4715   76.5233   90.0624 C   0  0  0  0  0  0  0  0  0  0  0  0
   68.3904   77.3145   90.9886 C   0  0  0  0  0  0  0  0  0  0  0  0
   67.0070   78.3764   92.8333 C   0  0  0  0  0  0  0  0  0  0  0  0
   67.3854   77.0876   93.5118 C   0  0  0  0  0  0  0  0  0  0  0  0
   68.6768   76.9068   94.0355 C   0  0  0  0  0  0  0  0  0  0  0  0
   69.0114   75.7161   94.6879 C   0  0  0  0  0  0  0  0  0  0  0  0
   68.0605   74.7014   94.8257 C   0  0  0  0  0  0  0  0  0  0  0  0
   66.7724   74.8761   94.3124 C   0  0  0  0  0  0  0  0  0  0  0  0
   66.4335   76.0652   93.6594 C   0  0  0  0  0  0  0  0  0  0  0  0
   70.4729   81.7800   90.0693 C   0  0  0  0  0  0  0  0  0  0  0  0
   71.2356   80.7857   89.9375 O   0  0  0  0  0  0  0  0  0  0  0  0
   70.6543   82.6451   91.1442 O   0  0  0  0  0  0  0  0  0  0  0  0
   70.0912   83.3866   91.2490 H   0  0  0  0  0  0  0  0  0  0  0  0
 19 20  1  0  0  0
 20 14  1  0  0  0
 14 21  1  0  0  0
 21 22  1  0  0  0
 22 23  2  0  0  0
 23 24  1  0  0  0
 24 25  2  0  0  0
 25 26  1  0  0  0
 26 27  2  0  0  0
 14 15  1  0  0  0
 15 16  2  0  0  0
 15 17  1  0  0  0
 17  1  1  0  0  0
  1  2  1  0  0  0
  2  3  1  0  0  0
  3  4  2  0  0  0
  4  6  1  0  0  0
  6  7  2  0  0  0
  7  8  1  0  0  0
  8  9  2  0  0  0
  9 10  1  0  0  0
  9 11  1  0  0  0
 11 12  1  0  0  0
 11 13  2  0  0  0
  4  5  1  0  0  0
  5 28  1  0  0  0
 28 29  2  0  0  0
 28 30  1  0  0  0
 27 22  1  0  0  0
  5  1  2  0  0  0
 13  6  1  0  0  0
 17 18  1  0  0  0
 30 31  1  0  0  0
M  END
> <score>
-0.169582

> <minimizedAffinity>
-7.72017

$$$$
HIPS478


 29 30  0  0  0  0  0  0  0  0999 V2000
   68.5606   77.2055   90.3830 C   0  0  0  0  0  0  0  0  0  0  0  0
   67.5384   76.4851   89.2650 S   0  0  0  0  0  0  0  0  0  0  0  0
   67.7928   74.9093   89.7812 C   0  0  0  0  0  0  0  0  0  0  0  0
   68.6878   74.9246   90.8489 C   0  0  0  0  0  0  0  0  0  0  0  0
   69.1107   76.2268   91.2211 C   0  0  0  0  0  0  0  0  0  0  0  0
   69.1011   73.6727   91.5085 C   0  0  0  0  0  0  0  0  0  0  0  0
   69.0795   72.4612   90.8026 C   0  0  0  0  0  0  0  0  0  0  0  0
   69.4422   71.2711   91.4385 C   0  0  0  0  0  0  0  0  0  0  0  0
   69.8176   71.2770   92.7867 C   0  0  0  0  0  0  0  0  0  0  0  0
   70.2678   69.7595   93.5522 Cl  0  0  0  0  0  0  0  0  0  0  0  0
   69.8239   72.4857   93.5039 C   0  0  0  0  0  0  0  0  0  0  0  0
   70.2791   72.5353   95.2015 Cl  0  0  0  0  0  0  0  0  0  0  0  0
   69.4596   73.6767   92.8644 C   0  0  0  0  0  0  0  0  0  0  0  0
   70.2775   80.6031   90.2638 N   0  0  0  0  0  0  0  0  0  0  0  0
   70.0983   79.1832   90.1814 C   0  0  0  0  0  0  0  0  0  0  0  0
   71.0719   78.4379   89.8833 O   0  0  0  0  0  0  0  0  0  0  0  0
   68.8049   78.6159   90.4289 N   0  0  0  0  0  0  0  0  0  0  0  0
   69.5065   81.1632   90.5110 H   0  0  0  0  0  0  0  0  0  0  0  0
   68.0558   79.2193   90.6385 H   0  0  0  0  0  0  0  0  0  0  0  0
   71.5591   81.2522   89.9955 C   0  0  0  0  0  0  0  0  0  0  0  0
   71.3565   82.7535   89.7507 C   0  0  0  0  0  0  0  0  0  0  0  0
   72.6323   83.4491   89.2514 C   0  0  0  0  0  0  0  0  0  0  0  0
   72.3376   84.5507   88.2182 C   0  0  0  0  0  0  0  0  0  0  0  0
   70.3266   85.1018   86.7488 C   0  0  0  0  0  0  0  0  0  0  0  0
   71.3995   84.0718   87.0998 C   0  0  0  0  0  0  0  0  0  0  0  0
   69.8983   76.5411   92.4397 C   0  0  0  0  0  0  0  0  0  0  0  0
   69.3248   76.7878   93.5333 O   0  0  0  0  0  0  0  0  0  0  0  0
   71.2870   76.6083   92.3775 O   0  0  0  0  0  0  0  0  0  0  0  0
   71.7291   76.4276   91.5714 H   0  0  0  0  0  0  0  0  0  0  0  0
 24 25  1  0  0  0
 25 23  1  0  0  0
 23 22  1  0  0  0
 22 21  1  0  0  0
 21 20  1  0  0  0
 20 14  1  0  0  0
 14 15  1  0  0  0
 15 16  2  0  0  0
 15 17  1  0  0  0
 17  1  1  0  0  0
  1  2  1  0  0  0
  2  3  1  0  0  0
  3  4  2  0  0  0
  4  6  1  0  0  0
  6  7  2  0  0  0
  7  8  1  0  0  0
  8  9  2  0  0  0
  9 10  1  0  0  0
  9 11  1  0  0  0
 11 12  1  0  0  0
 11 13  2  0  0  0
  4  5  1  0  0  0
  5 26  1  0  0  0
 26 27  2  0  0  0
 26 28  1  0  0  0
  5  1  2  0  0  0
 13  6  1  0  0  0
 14 18  1  0  0  0
 17 19  1  0  0  0
 28 29  1  0  0  0
M  END
> <score>
-1.455511

> <minimizedAffinity>
-7.48788

$$$$
HIPS478


 29 30  0  0  0  0  0  0  0  0999 V2000
   68.8801   76.5481   90.2890 C   0  0  0  0  0  0  0  0  0  0  0  0
   67.5985   75.6523   89.6818 S   0  0  0  0  0  0  0  0  0  0  0  0
   67.8929   74.2777   90.5972 C   0  0  0  0  0  0  0  0  0  0  0  0
   69.0077   74.5035   91.4019 C   0  0  0  0  0  0  0  0  0  0  0  0
   69.5623   75.8015   91.2585 C   0  0  0  0  0  0  0  0  0  0  0  0
   69.5039   73.4606   92.3181 C   0  0  0  0  0  0  0  0  0  0  0  0
   69.4775   73.6671   93.7049 C   0  0  0  0  0  0  0  0  0  0  0  0
   69.9765   72.6901   94.5702 C   0  0  0  0  0  0  0  0  0  0  0  0
   70.5173   71.5045   94.0597 C   0  0  0  0  0  0  0  0  0  0  0  0
   71.1352   70.2984   95.1801 Cl  0  0  0  0  0  0  0  0  0  0  0  0
   70.5626   71.3000   92.6700 C   0  0  0  0  0  0  0  0  0  0  0  0
   71.2428   69.8294   91.9873 Cl  0  0  0  0  0  0  0  0  0  0  0  0
   70.0622   72.2808   91.8052 C   0  0  0  0  0  0  0  0  0  0  0  0
   68.9618   80.3400   89.9419 N   0  0  0  0  0  0  0  0  0  0  0  0
   68.6224   79.0430   90.4493 C   0  0  0  0  0  0  0  0  0  0  0  0
   67.8343   78.9320   91.4286 O   0  0  0  0  0  0  0  0  0  0  0  0
   69.1915   77.8737   89.8452 N   0  0  0  0  0  0  0  0  0  0  0  0
   69.5683   80.4012   89.1688 H   0  0  0  0  0  0  0  0  0  0  0  0
   69.8205   77.9865   89.0964 H   0  0  0  0  0  0  0  0  0  0  0  0
   68.4434   81.5751   90.5265 C   0  0  0  0  0  0  0  0  0  0  0  0
   69.4751   82.7032   90.3934 C   0  0  0  0  0  0  0  0  0  0  0  0
   70.7410   82.2619   89.6427 C   0  0  0  0  0  0  0  0  0  0  0  0
   72.0133   82.4074   90.4958 C   0  0  0  0  0  0  0  0  0  0  0  0
   72.7569   84.1497   88.7875 C   0  0  0  0  0  0  0  0  0  0  0  0
   73.1865   83.0051   89.7043 C   0  0  0  0  0  0  0  0  0  0  0  0
   70.6205   76.3673   92.1326 C   0  0  0  0  0  0  0  0  0  0  0  0
   71.7892   76.5457   91.6989 O   0  0  0  0  0  0  0  0  0  0  0  0
   70.3422   76.6704   93.4621 O   0  0  0  0  0  0  0  0  0  0  0  0
   69.4777   76.5434   93.8005 H   0  0  0  0  0  0  0  0  0  0  0  0
 24 25  1  0  0  0
 25 23  1  0  0  0
 23 22  1  0  0  0
 22 21  1  0  0  0
 21 20  1  0  0  0
 20 14  1  0  0  0
 14 15  1  0  0  0
 15 16  2  0  0  0
 15 17  1  0  0  0
 17  1  1  0  0  0
  1  2  1  0  0  0
  2  3  1  0  0  0
  3  4  2  0  0  0
  4  6  1  0  0  0
  6  7  2  0  0  0
  7  8  1  0  0  0
  8  9  2  0  0  0
  9 10  1  0  0  0
  9 11  1  0  0  0
 11 12  1  0  0  0
 11 13  2  0  0  0
  4  5  1  0  0  0
  5 26  1  0  0  0
 26 27  2  0  0  0
 26 28  1  0  0  0
  5  1  2  0  0  0
 13  6  1  0  0  0
 14 18  1  0  0  0
 17 19  1  0  0  0
 28 29  1  0  0  0
M  END
> <score>
-1.455511

> <minimizedAffinity>
-7.07213

$$$$
HIPS478


 29 30  0  0  0  0  0  0  0  0999 V2000
   67.9977   81.0380   88.9634 C   0  0  0  0  0  0  0  0  0  0  0  0
   67.3051   81.3416   87.4661 S   0  0  0  0  0  0  0  0  0  0  0  0
   68.2562   82.6734   87.0972 C   0  0  0  0  0  0  0  0  0  0  0  0
   69.1408   82.8998   88.1496 C   0  0  0  0  0  0  0  0  0  0  0  0
   69.0248   81.9594   89.2056 C   0  0  0  0  0  0  0  0  0  0  0  0
   70.1041   84.0147   88.1025 C   0  0  0  0  0  0  0  0  0  0  0  0
   71.4532   83.7713   87.8072 C   0  0  0  0  0  0  0  0  0  0  0  0
   72.3705   84.8251   87.7931 C   0  0  0  0  0  0  0  0  0  0  0  0
   71.9529   86.1285   88.0855 C   0  0  0  0  0  0  0  0  0  0  0  0
   73.1364   87.4286   88.0576 Cl  0  0  0  0  0  0  0  0  0  0  0  0
   70.6055   86.3755   88.3997 C   0  0  0  0  0  0  0  0  0  0  0  0
   70.0417   87.9962   88.7829 Cl  0  0  0  0  0  0  0  0  0  0  0  0
   69.6885   85.3176   88.4134 C   0  0  0  0  0  0  0  0  0  0  0  0
   67.7461   77.7060   90.7910 N   0  0  0  0  0  0  0  0  0  0  0  0
   68.2469   78.7262   89.9174 C   0  0  0  0  0  0  0  0  0  0  0  0
   69.2892   78.5215   89.2361 O   0  0  0  0  0  0  0  0  0  0  0  0
   67.5635   79.9837   89.8300 N   0  0  0  0  0  0  0  0  0  0  0  0
   66.9239   77.8837   91.3026 H   0  0  0  0  0  0  0  0  0  0  0  0
   66.7648   80.1279   90.3874 H   0  0  0  0  0  0  0  0  0  0  0  0
   68.4073   76.4127   90.9525 C   0  0  0  0  0  0  0  0  0  0  0  0
   67.8253   75.3887   89.9690 C   0  0  0  0  0  0  0  0  0  0  0  0
   68.3348   73.9627   90.2289 C   0  0  0  0  0  0  0  0  0  0  0  0
   67.4373   72.8897   89.5878 C   0  0  0  0  0  0  0  0  0  0  0  0
   66.5878   72.4354   87.2258 C   0  0  0  0  0  0  0  0  0  0  0  0
   66.6444   73.4274   88.3869 C   0  0  0  0  0  0  0  0  0  0  0  0
   69.9703   81.8506   90.3450 C   0  0  0  0  0  0  0  0  0  0  0  0
   69.8820   82.6257   91.3335 O   0  0  0  0  0  0  0  0  0  0  0  0
   70.9975   80.9121   90.3150 O   0  0  0  0  0  0  0  0  0  0  0  0
   71.0772   80.3280   89.5867 H   0  0  0  0  0  0  0  0  0  0  0  0
 24 25  1  0  0  0
 25 23  1  0  0  0
 23 22  1  0  0  0
 22 21  1  0  0  0
 21 20  1  0  0  0
 20 14  1  0  0  0
 14 15  1  0  0  0
 15 16  2  0  0  0
 15 17  1  0  0  0
 17  1  1  0  0  0
  1  2  1  0  0  0
  2  3  1  0  0  0
  3  4  2  0  0  0
  4  6  1  0  0  0
  6  7  2  0  0  0
  7  8  1  0  0  0
  8  9  2  0  0  0
  9 10  1  0  0  0
  9 11  1  0  0  0
 11 12  1  0  0  0
 11 13  2  0  0  0
  4  5  1  0  0  0
  5 26  1  0  0  0
 26 27  2  0  0  0
 26 28  1  0  0  0
  5  1  2  0  0  0
 13  6  1  0  0  0
 14 18  1  0  0  0
 17 19  1  0  0  0
 28 29  1  0  0  0
M  END
> <score>
-1.455511

> <minimizedAffinity>
-6.99477

$$$$
HIPS482


 31 33  0  0  0  0  0  0  0  0999 V2000
   68.7683   78.7247   89.8976 C   0  0  0  0  0  0  0  0  0  0  0  0
   69.2639   77.5278   90.4469 C   0  0  0  0  0  0  0  0  0  0  0  0
   68.4875   76.4103   90.1523 C   0  0  0  0  0  0  0  0  0  0  0  0
   67.1996   76.9199   89.1931 S   0  0  0  0  0  0  0  0  0  0  0  0
   67.6017   78.5513   89.1504 C   0  0  0  0  0  0  0  0  0  0  0  0
   68.7025   75.0244   90.6367 C   0  0  0  0  0  0  0  0  0  0  0  0
   69.5940   74.7776   91.6974 C   0  0  0  0  0  0  0  0  0  0  0  0
   69.8177   73.4749   92.1506 C   0  0  0  0  0  0  0  0  0  0  0  0
   69.1581   72.3988   91.5481 C   0  0  0  0  0  0  0  0  0  0  0  0
   68.2703   72.6307   90.4919 C   0  0  0  0  0  0  0  0  0  0  0  0
   68.0412   73.9337   90.0394 C   0  0  0  0  0  0  0  0  0  0  0  0
   69.3925   71.0574   92.0124 C   0  0  0  0  0  0  0  0  0  0  0  0
   69.5820   69.9790   92.3860 N   0  0  0  0  0  0  0  0  0  0  0  0
   68.6838   82.4217   90.1065 N   0  0  0  0  0  0  0  0  0  0  0  0
   68.4992   81.1031   90.6612 C   0  0  0  0  0  0  0  0  0  0  0  0
   67.6155   80.9039   91.5387 O   0  0  0  0  0  0  0  0  0  0  0  0
   69.3171   80.0102   90.2266 N   0  0  0  0  0  0  0  0  0  0  0  0
   70.2894   80.1452   90.1508 H   0  0  0  0  0  0  0  0  0  0  0  0
   69.3495   83.6638   92.1332 C   0  0  0  0  0  0  0  0  0  0  0  0
   68.4055   83.5999   90.9388 C   0  0  0  0  0  0  0  0  0  0  0  0
   69.2267   82.5930   88.7473 C   0  0  0  0  0  0  0  0  0  0  0  0
   70.6215   83.1706   88.7880 C   0  0  0  0  0  0  0  0  0  0  0  0
   70.9323   84.3497   88.0841 C   0  0  0  0  0  0  0  0  0  0  0  0
   72.2027   84.9197   88.1887 C   0  0  0  0  0  0  0  0  0  0  0  0
   73.1782   84.3093   88.9803 C   0  0  0  0  0  0  0  0  0  0  0  0
   72.8861   83.1244   89.6651 C   0  0  0  0  0  0  0  0  0  0  0  0
   71.6136   82.5567   89.5724 C   0  0  0  0  0  0  0  0  0  0  0  0
   66.8456   79.5746   88.4086 C   0  0  0  0  0  0  0  0  0  0  0  0
   67.1606   79.8438   87.2192 O   0  0  0  0  0  0  0  0  0  0  0  0
   65.8005   80.2658   89.0118 O   0  0  0  0  0  0  0  0  0  0  0  0
   65.5594   80.0720   89.8963 H   0  0  0  0  0  0  0  0  0  0  0  0
 19 20  1  0  0  0
 20 14  1  0  0  0
 14 21  1  0  0  0
 21 22  1  0  0  0
 22 23  2  0  0  0
 23 24  1  0  0  0
 24 25  2  0  0  0
 25 26  1  0  0  0
 26 27  2  0  0  0
 14 15  1  0  0  0
 15 16  2  0  0  0
 15 17  1  0  0  0
 17  1  1  0  0  0
  1  2  1  0  0  0
  2  3  2  0  0  0
  3  6  1  0  0  0
  6  7  2  0  0  0
  7  8  1  0  0  0
  8  9  2  0  0  0
  9 12  1  0  0  0
 12 13  3  0  0  0
  9 10  1  0  0  0
 10 11  2  0  0  0
  3  4  1  0  0  0
  4  5  1  0  0  0
  5 28  1  0  0  0
 28 29  2  0  0  0
 28 30  1  0  0  0
 27 22  1  0  0  0
  5  1  2  0  0  0
 11  6  1  0  0  0
 17 18  1  0  0  0
 30 31  1  0  0  0
M  END
> <score>
0.342203

> <minimizedAffinity>
-7.96094

$$$$
HIPS482


 31 33  0  0  0  0  0  0  0  0999 V2000
   68.7764   79.3477   89.6561 C   0  0  0  0  0  0  0  0  0  0  0  0
   69.2635   78.1537   90.2194 C   0  0  0  0  0  0  0  0  0  0  0  0
   68.4932   77.0342   89.9166 C   0  0  0  0  0  0  0  0  0  0  0  0
   67.2216   77.5381   88.9329 S   0  0  0  0  0  0  0  0  0  0  0  0
   67.6231   79.1697   88.8896 C   0  0  0  0  0  0  0  0  0  0  0  0
   68.7009   75.6507   90.4110 C   0  0  0  0  0  0  0  0  0  0  0  0
   67.9496   74.5888   89.8735 C   0  0  0  0  0  0  0  0  0  0  0  0
   68.1242   73.2844   90.3432 C   0  0  0  0  0  0  0  0  0  0  0  0
   69.0479   73.0218   91.3599 C   0  0  0  0  0  0  0  0  0  0  0  0
   69.8000   74.0689   91.9035 C   0  0  0  0  0  0  0  0  0  0  0  0
   69.6307   75.3744   91.4322 C   0  0  0  0  0  0  0  0  0  0  0  0
   69.2237   71.6791   91.8461 C   0  0  0  0  0  0  0  0  0  0  0  0
   69.3640   70.5995   92.2376 N   0  0  0  0  0  0  0  0  0  0  0  0
   68.5807   83.0154   90.1328 N   0  0  0  0  0  0  0  0  0  0  0  0
   68.5340   81.6570   90.6154 C   0  0  0  0  0  0  0  0  0  0  0  0
   67.8023   81.3597   91.5987 O   0  0  0  0  0  0  0  0  0  0  0  0
   69.3183   80.6352   89.9886 N   0  0  0  0  0  0  0  0  0  0  0  0
   70.2618   80.8222   89.7784 H   0  0  0  0  0  0  0  0  0  0  0  0
   67.1838   84.9739   90.6865 C   0  0  0  0  0  0  0  0  0  0  0  0
   68.3864   84.1237   91.0775 C   0  0  0  0  0  0  0  0  0  0  0  0
   68.9038   83.2987   88.7233 C   0  0  0  0  0  0  0  0  0  0  0  0
   70.2097   84.0479   88.6050 C   0  0  0  0  0  0  0  0  0  0  0  0
   71.4307   83.4174   88.9118 C   0  0  0  0  0  0  0  0  0  0  0  0
   72.6392   84.0918   88.7262 C   0  0  0  0  0  0  0  0  0  0  0  0
   72.6392   85.4054   88.2514 C   0  0  0  0  0  0  0  0  0  0  0  0
   71.4297   86.0486   87.9659 C   0  0  0  0  0  0  0  0  0  0  0  0
   70.2192   85.3743   88.1394 C   0  0  0  0  0  0  0  0  0  0  0  0
   66.8790   80.1889   88.1302 C   0  0  0  0  0  0  0  0  0  0  0  0
   65.7800   80.6177   88.5714 O   0  0  0  0  0  0  0  0  0  0  0  0
   67.3628   80.6692   86.9181 O   0  0  0  0  0  0  0  0  0  0  0  0
   68.1794   80.3558   86.5822 H   0  0  0  0  0  0  0  0  0  0  0  0
 19 20  1  0  0  0
 20 14  1  0  0  0
 14 21  1  0  0  0
 21 22  1  0  0  0
 22 23  2  0  0  0
 23 24  1  0  0  0
 24 25  2  0  0  0
 25 26  1  0  0  0
 26 27  2  0  0  0
 14 15  1  0  0  0
 15 16  2  0  0  0
 15 17  1  0  0  0
 17  1  1  0  0  0
  1  2  1  0  0  0
  2  3  2  0  0  0
  3  6  1  0  0  0
  6  7  2  0  0  0
  7  8  1  0  0  0
  8  9  2  0  0  0
  9 12  1  0  0  0
 12 13  3  0  0  0
  9 10  1  0  0  0
 10 11  2  0  0  0
  3  4  1  0  0  0
  4  5  1  0  0  0
  5 28  1  0  0  0
 28 29  2  0  0  0
 28 30  1  0  0  0
 27 22  1  0  0  0
  5  1  2  0  0  0
 11  6  1  0  0  0
 17 18  1  0  0  0
 30 31  1  0  0  0
M  END
> <score>
0.342203

> <minimizedAffinity>
-7.54859

$$$$
HIPS482


 31 33  0  0  0  0  0  0  0  0999 V2000
   69.6263   78.8339   90.6650 C   0  0  0  0  0  0  0  0  0  0  0  0
   70.5316   79.8233   90.2386 C   0  0  0  0  0  0  0  0  0  0  0  0
   69.9354   81.0521   89.9688 C   0  0  0  0  0  0  0  0  0  0  0  0
   68.2869   80.9014   90.2823 S   0  0  0  0  0  0  0  0  0  0  0  0
   68.3082   79.2867   90.7486 C   0  0  0  0  0  0  0  0  0  0  0  0
   70.6020   82.2679   89.4406 C   0  0  0  0  0  0  0  0  0  0  0  0
   71.9342   82.5526   89.7941 C   0  0  0  0  0  0  0  0  0  0  0  0
   72.5667   83.7035   89.3169 C   0  0  0  0  0  0  0  0  0  0  0  0
   71.8768   84.5897   88.4835 C   0  0  0  0  0  0  0  0  0  0  0  0
   70.5516   84.3188   88.1258 C   0  0  0  0  0  0  0  0  0  0  0  0
   69.9176   83.1656   88.5982 C   0  0  0  0  0  0  0  0  0  0  0  0
   72.5275   85.7768   87.9963 C   0  0  0  0  0  0  0  0  0  0  0  0
   73.0508   86.7318   87.6055 N   0  0  0  0  0  0  0  0  0  0  0  0
   68.9783   75.2794   91.4793 N   0  0  0  0  0  0  0  0  0  0  0  0
   69.1015   76.3795   90.5546 C   0  0  0  0  0  0  0  0  0  0  0  0
   68.4145   76.3970   89.4971 O   0  0  0  0  0  0  0  0  0  0  0  0
   70.0051   77.4580   90.8238 N   0  0  0  0  0  0  0  0  0  0  0  0
   70.9176   77.2486   91.1283 H   0  0  0  0  0  0  0  0  0  0  0  0
   69.5966   72.8902   91.5359 C   0  0  0  0  0  0  0  0  0  0  0  0
   68.6502   73.9414   90.9690 C   0  0  0  0  0  0  0  0  0  0  0  0
   69.2606   75.4709   92.9129 C   0  0  0  0  0  0  0  0  0  0  0  0
   68.1191   74.9670   93.7636 C   0  0  0  0  0  0  0  0  0  0  0  0
   68.3660   74.1832   94.9069 C   0  0  0  0  0  0  0  0  0  0  0  0
   67.3112   73.7860   95.7313 C   0  0  0  0  0  0  0  0  0  0  0  0
   66.0012   74.1509   95.4125 C   0  0  0  0  0  0  0  0  0  0  0  0
   65.7432   74.9098   94.2655 C   0  0  0  0  0  0  0  0  0  0  0  0
   66.7960   75.3188   93.4442 C   0  0  0  0  0  0  0  0  0  0  0  0
   67.1233   78.5351   91.1960 C   0  0  0  0  0  0  0  0  0  0  0  0
   66.8993   78.3979   92.4278 O   0  0  0  0  0  0  0  0  0  0  0  0
   66.2582   77.9537   90.2753 O   0  0  0  0  0  0  0  0  0  0  0  0
   66.4172   78.0507   89.3570 H   0  0  0  0  0  0  0  0  0  0  0  0
 19 20  1  0  0  0
 20 14  1  0  0  0
 14 21  1  0  0  0
 21 22  1  0  0  0
 22 23  2  0  0  0
 23 24  1  0  0  0
 24 25  2  0  0  0
 25 26  1  0  0  0
 26 27  2  0  0  0
 14 15  1  0  0  0
 15 16  2  0  0  0
 15 17  1  0  0  0
 17  1  1  0  0  0
  1  2  1  0  0  0
  2  3  2  0  0  0
  3  6  1  0  0  0
  6  7  2  0  0  0
  7  8  1  0  0  0
  8  9  2  0  0  0
  9 12  1  0  0  0
 12 13  3  0  0  0
  9 10  1  0  0  0
 10 11  2  0  0  0
  3  4  1  0  0  0
  4  5  1  0  0  0
  5 28  1  0  0  0
 28 29  2  0  0  0
 28 30  1  0  0  0
 27 22  1  0  0  0
  5  1  2  0  0  0
 11  6  1  0  0  0
 17 18  1  0  0  0
 30 31  1  0  0  0
M  END
> <score>
0.342203

> <minimizedAffinity>
-7.43808

$$$$
HIPS495


 29 30  0  0  0  0  0  0  0  0999 V2000
   69.3061   78.2490   90.6302 C   0  0  0  0  0  0  0  0  0  0  0  0
   68.9301   79.7725   90.0221 S   0  0  0  0  0  0  0  0  0  0  0  0
   70.5027   80.3783   90.0248 C   0  0  0  0  0  0  0  0  0  0  0  0
   71.3462   79.3802   90.5177 C   0  0  0  0  0  0  0  0  0  0  0  0
   70.6850   78.1870   90.8615 C   0  0  0  0  0  0  0  0  0  0  0  0
   70.9011   81.7370   89.5769 C   0  0  0  0  0  0  0  0  0  0  0  0
   72.1769   82.2408   89.8900 C   0  0  0  0  0  0  0  0  0  0  0  0
   72.5585   83.5186   89.4740 C   0  0  0  0  0  0  0  0  0  0  0  0
   71.6778   84.3138   88.7362 C   0  0  0  0  0  0  0  0  0  0  0  0
   72.1951   85.9170   88.2320 Cl  0  0  0  0  0  0  0  0  0  0  0  0
   70.4039   83.8226   88.4103 C   0  0  0  0  0  0  0  0  0  0  0  0
   69.2689   84.7869   87.4745 Cl  0  0  0  0  0  0  0  0  0  0  0  0
   70.0212   82.5422   88.8286 C   0  0  0  0  0  0  0  0  0  0  0  0
   66.7155   76.2095   92.5468 N   0  0  0  0  0  0  0  0  0  0  0  0
   67.4870   77.3465   92.1368 C   0  0  0  0  0  0  0  0  0  0  0  0
   67.3898   78.4349   92.7666 O   0  0  0  0  0  0  0  0  0  0  0  0
   68.3415   77.2465   90.9884 N   0  0  0  0  0  0  0  0  0  0  0  0
   66.7629   75.3875   92.0070 H   0  0  0  0  0  0  0  0  0  0  0  0
   68.2626   76.4492   90.4161 H   0  0  0  0  0  0  0  0  0  0  0  0
   65.8611   76.2205   93.7338 C   0  0  0  0  0  0  0  0  0  0  0  0
   65.8206   74.8416   94.4120 C   0  0  0  0  0  0  0  0  0  0  0  0
   66.5943   74.7793   95.7407 C   0  0  0  0  0  0  0  0  0  0  0  0
   67.8280   73.8634   95.6656 C   0  0  0  0  0  0  0  0  0  0  0  0
   69.3213   75.8603   95.1280 C   0  0  0  0  0  0  0  0  0  0  0  0
   68.9272   74.4312   94.7549 C   0  0  0  0  0  0  0  0  0  0  0  0
   71.4181   77.0047   91.3592 C   0  0  0  0  0  0  0  0  0  0  0  0
   70.8295   76.1123   92.0255 O   0  0  0  0  0  0  0  0  0  0  0  0
   72.7702   76.8544   91.0634 O   0  0  0  0  0  0  0  0  0  0  0  0
   73.2174   77.5124   90.5684 H   0  0  0  0  0  0  0  0  0  0  0  0
 24 25  1  0  0  0
 25 23  1  0  0  0
 23 22  1  0  0  0
 22 21  1  0  0  0
 21 20  1  0  0  0
 20 14  1  0  0  0
 14 15  1  0  0  0
 15 16  2  0  0  0
 15 17  1  0  0  0
 17  1  1  0  0  0
  1  2  1  0  0  0
  2  3  1  0  0  0
  3  6  1  0  0  0
  6  7  2  0  0  0
  7  8  1  0  0  0
  8  9  2  0  0  0
  9 10  1  0  0  0
  9 11  1  0  0  0
 11 12  1  0  0  0
 11 13  2  0  0  0
  3  4  2  0  0  0
  4  5  1  0  0  0
  5 26  1  0  0  0
 26 27  2  0  0  0
 26 28  1  0  0  0
  5  1  2  0  0  0
 13  6  1  0  0  0
 14 18  1  0  0  0
 17 19  1  0  0  0
 28 29  1  0  0  0
M  END
> <score>
0.554324

> <minimizedAffinity>
-7.41050

$$$$
HIPS495


 29 30  0  0  0  0  0  0  0  0999 V2000
   68.7265   76.2100   90.6116 C   0  0  0  0  0  0  0  0  0  0  0  0
   69.6715   75.4613   91.7858 S   0  0  0  0  0  0  0  0  0  0  0  0
   69.1793   73.8835   91.4567 C   0  0  0  0  0  0  0  0  0  0  0  0
   68.2505   73.9321   90.4149 C   0  0  0  0  0  0  0  0  0  0  0  0
   67.9891   75.2296   89.9381 C   0  0  0  0  0  0  0  0  0  0  0  0
   69.6612   72.6682   92.1613 C   0  0  0  0  0  0  0  0  0  0  0  0
   70.1378   72.7568   93.4820 C   0  0  0  0  0  0  0  0  0  0  0  0
   70.5947   71.6187   94.1510 C   0  0  0  0  0  0  0  0  0  0  0  0
   70.5805   70.3735   93.5172 C   0  0  0  0  0  0  0  0  0  0  0  0
   71.1649   68.9648   94.3925 Cl  0  0  0  0  0  0  0  0  0  0  0  0
   70.1018   70.2678   92.2020 C   0  0  0  0  0  0  0  0  0  0  0  0
   70.0573   68.7178   91.3716 Cl  0  0  0  0  0  0  0  0  0  0  0  0
   69.6452   71.4091   91.5313 C   0  0  0  0  0  0  0  0  0  0  0  0
   69.5260   79.9221   90.2571 N   0  0  0  0  0  0  0  0  0  0  0  0
   69.7085   78.5015   90.1889 C   0  0  0  0  0  0  0  0  0  0  0  0
   70.8334   78.0244   89.8766 O   0  0  0  0  0  0  0  0  0  0  0  0
   68.5967   77.6310   90.4447 N   0  0  0  0  0  0  0  0  0  0  0  0
   68.6261   80.2738   90.4463 H   0  0  0  0  0  0  0  0  0  0  0  0
   67.6983   78.0283   90.5092 H   0  0  0  0  0  0  0  0  0  0  0  0
   70.6217   80.8701   90.0573 C   0  0  0  0  0  0  0  0  0  0  0  0
   70.1249   82.1807   89.4259 C   0  0  0  0  0  0  0  0  0  0  0  0
   70.9122   83.4245   89.8742 C   0  0  0  0  0  0  0  0  0  0  0  0
   72.4339   83.2427   89.7400 C   0  0  0  0  0  0  0  0  0  0  0  0
   72.0301   85.1156   88.0560 C   0  0  0  0  0  0  0  0  0  0  0  0
   73.0337   84.1128   88.6251 C   0  0  0  0  0  0  0  0  0  0  0  0
   67.0670   75.4749   88.8099 C   0  0  0  0  0  0  0  0  0  0  0  0
   66.8928   74.6044   87.9164 O   0  0  0  0  0  0  0  0  0  0  0  0
   66.3546   76.6694   88.7463 O   0  0  0  0  0  0  0  0  0  0  0  0
   66.4769   77.3235   89.4060 H   0  0  0  0  0  0  0  0  0  0  0  0
 24 25  1  0  0  0
 25 23  1  0  0  0
 23 22  1  0  0  0
 22 21  1  0  0  0
 21 20  1  0  0  0
 20 14  1  0  0  0
 14 15  1  0  0  0
 15 16  2  0  0  0
 15 17  1  0  0  0
 17  1  1  0  0  0
  1  2  1  0  0  0
  2  3  1  0  0  0
  3  6  1  0  0  0
  6  7  2  0  0  0
  7  8  1  0  0  0
  8  9  2  0  0  0
  9 10  1  0  0  0
  9 11  1  0  0  0
 11 12  1  0  0  0
 11 13  2  0  0  0
  3  4  2  0  0  0
  4  5  1  0  0  0
  5 26  1  0  0  0
 26 27  2  0  0  0
 26 28  1  0  0  0
  5  1  2  0  0  0
 13  6  1  0  0  0
 14 18  1  0  0  0
 17 19  1  0  0  0
 28 29  1  0  0  0
M  END
> <score>
0.554324

> <minimizedAffinity>
-7.14185

$$$$
HIPS495


 29 30  0  0  0  0  0  0  0  0999 V2000
   66.9692   80.1291   88.6362 C   0  0  0  0  0  0  0  0  0  0  0  0
   67.7635   78.7020   88.2302 S   0  0  0  0  0  0  0  0  0  0  0  0
   67.3640   77.8506   89.6287 C   0  0  0  0  0  0  0  0  0  0  0  0
   66.6013   78.6929   90.4408 C   0  0  0  0  0  0  0  0  0  0  0  0
   66.3780   79.9701   89.8948 C   0  0  0  0  0  0  0  0  0  0  0  0
   67.7619   76.4511   89.9260 C   0  0  0  0  0  0  0  0  0  0  0  0
   68.6986   76.1808   90.9403 C   0  0  0  0  0  0  0  0  0  0  0  0
   69.0795   74.8672   91.2247 C   0  0  0  0  0  0  0  0  0  0  0  0
   68.5309   73.8013   90.5067 C   0  0  0  0  0  0  0  0  0  0  0  0
   69.0368   72.1624   90.8939 Cl  0  0  0  0  0  0  0  0  0  0  0  0
   67.5902   74.0545   89.4961 C   0  0  0  0  0  0  0  0  0  0  0  0
   66.8680   72.7411   88.5757 Cl  0  0  0  0  0  0  0  0  0  0  0  0
   67.2096   75.3715   89.2104 C   0  0  0  0  0  0  0  0  0  0  0  0
   67.8467   83.6491   87.4603 N   0  0  0  0  0  0  0  0  0  0  0  0
   67.9955   82.3789   88.1086 C   0  0  0  0  0  0  0  0  0  0  0  0
   68.9893   82.1643   88.8550 O   0  0  0  0  0  0  0  0  0  0  0  0
   67.0267   81.3464   87.8755 N   0  0  0  0  0  0  0  0  0  0  0  0
   67.0952   83.7758   86.8371 H   0  0  0  0  0  0  0  0  0  0  0  0
   66.3671   81.4791   87.1568 H   0  0  0  0  0  0  0  0  0  0  0  0
   68.7655   84.7645   87.6867 C   0  0  0  0  0  0  0  0  0  0  0  0
   69.8227   84.8584   86.5748 C   0  0  0  0  0  0  0  0  0  0  0  0
   71.1822   84.2466   86.9562 C   0  0  0  0  0  0  0  0  0  0  0  0
   71.6363   84.6469   88.3704 C   0  0  0  0  0  0  0  0  0  0  0  0
   72.6392   82.8498   89.8774 C   0  0  0  0  0  0  0  0  0  0  0  0
   72.9104   83.9095   88.8095 C   0  0  0  0  0  0  0  0  0  0  0  0
   65.5565   80.9826   90.5899 C   0  0  0  0  0  0  0  0  0  0  0  0
   66.0442   82.0968   90.9174 O   0  0  0  0  0  0  0  0  0  0  0  0
   64.2164   80.7189   90.8600 O   0  0  0  0  0  0  0  0  0  0  0  0
   63.8439   79.8932   90.6204 H   0  0  0  0  0  0  0  0  0  0  0  0
 24 25  1  0  0  0
 25 23  1  0  0  0
 23 22  1  0  0  0
 22 21  1  0  0  0
 21 20  1  0  0  0
 20 14  1  0  0  0
 14 15  1  0  0  0
 15 16  2  0  0  0
 15 17  1  0  0  0
 17  1  1  0  0  0
  1  2  1  0  0  0
  2  3  1  0  0  0
  3  6  1  0  0  0
  6  7  2  0  0  0
  7  8  1  0  0  0
  8  9  2  0  0  0
  9 10  1  0  0  0
  9 11  1  0  0  0
 11 12  1  0  0  0
 11 13  2  0  0  0
  3  4  2  0  0  0
  4  5  1  0  0  0
  5 26  1  0  0  0
 26 27  2  0  0  0
 26 28  1  0  0  0
  5  1  2  0  0  0
 13  6  1  0  0  0
 14 18  1  0  0  0
 17 19  1  0  0  0
 28 29  1  0  0  0
M  END
> <score>
0.554324

> <minimizedAffinity>
-7.03520

$$$$
HIPS5021


 23 25  0  0  0  0  0  0  0  0999 V2000
   68.1271   77.2756   92.4486 O   0  0  0  0  0  0  0  0  0  0  0  0
   68.4642   74.4174   94.8498 C   0  0  0  0  0  0  0  0  0  0  0  0
   68.8131   75.4367   93.9453 C   0  0  0  0  0  0  0  0  0  0  0  0
   67.8237   76.2506   93.3611 C   0  0  0  0  0  0  0  0  0  0  0  0
   66.4829   76.0350   93.6887 C   0  0  0  0  0  0  0  0  0  0  0  0
   66.1240   75.0208   94.5770 C   0  0  0  0  0  0  0  0  0  0  0  0
   67.0997   74.2038   95.1565 C   0  0  0  0  0  0  0  0  0  0  0  0
   66.6816   73.1922   96.0240 O   0  0  0  0  0  0  0  0  0  0  0  0
   65.7695   73.0780   96.2056 H   0  0  0  0  0  0  0  0  0  0  0  0
   69.5262   72.2939   94.8400 O   0  0  0  0  0  0  0  0  0  0  0  0
   69.5485   73.5568   95.4441 C   0  0  0  0  0  0  0  0  0  0  0  0
   70.2244   71.7400   95.2229 H   0  0  0  0  0  0  0  0  0  0  0  0
   68.9867   77.1398   91.3144 C   0  0  0  0  0  0  0  0  0  0  0  0
   68.2230   76.8015   90.0438 C   0  0  0  0  0  0  0  0  0  0  0  0
   67.9066   77.8311   89.1347 C   0  0  0  0  0  0  0  0  0  0  0  0
   67.1829   77.5671   87.9736 C   0  0  0  0  0  0  0  0  0  0  0  0
   66.7780   76.2694   87.6774 C   0  0  0  0  0  0  0  0  0  0  0  0
   67.1184   75.2121   88.5303 C   0  0  0  0  0  0  0  0  0  0  0  0
   66.7328   73.9023   88.2035 C   0  0  0  0  0  0  0  0  0  0  0  0
   67.0913   72.8365   89.0280 C   0  0  0  0  0  0  0  0  0  0  0  0
   67.8438   73.0653   90.1787 C   0  0  0  0  0  0  0  0  0  0  0  0
   68.2330   74.3624   90.5220 C   0  0  0  0  0  0  0  0  0  0  0  0
   67.8640   75.4632   89.7159 C   0  0  0  0  0  0  0  0  0  0  0  0
 10 11  1  0  0  0
 11  2  1  0  0  0
  2  3  2  0  0  0
  3  4  1  0  0  0
  4  1  1  0  0  0
  1 13  1  0  0  0
 13 14  1  0  0  0
 14 15  2  0  0  0
 15 16  1  0  0  0
 16 17  2  0  0  0
 17 18  1  0  0  0
 18 19  2  0  0  0
 19 20  1  0  0  0
 20 21  2  0  0  0
 21 22  1  0  0  0
 22 23  2  0  0  0
  4  5  2  0  0  0
  5  6  1  0  0  0
  6  7  2  0  0  0
  7  8  1  0  0  0
  7  2  1  0  0  0
 23 14  1  0  0  0
 23 18  1  0  0  0
 10 12  1  0  0  0
  8  9  1  0  0  0
M  END
> <score>
1.153769

> <minimizedAffinity>
-7.87826

$$$$
HIPS5021


 23 25  0  0  0  0  0  0  0  0999 V2000
   69.5448   80.1458   89.5228 O   0  0  0  0  0  0  0  0  0  0  0  0
   68.9687   76.9877   91.4577 C   0  0  0  0  0  0  0  0  0  0  0  0
   68.7079   78.1843   90.7657 C   0  0  0  0  0  0  0  0  0  0  0  0
   69.7597   78.9422   90.2160 C   0  0  0  0  0  0  0  0  0  0  0  0
   71.0739   78.4931   90.3657 C   0  0  0  0  0  0  0  0  0  0  0  0
   71.3456   77.3129   91.0585 C   0  0  0  0  0  0  0  0  0  0  0  0
   70.3076   76.5579   91.6131 C   0  0  0  0  0  0  0  0  0  0  0  0
   70.6393   75.3951   92.3121 O   0  0  0  0  0  0  0  0  0  0  0  0
   71.5367   75.1390   92.3963 H   0  0  0  0  0  0  0  0  0  0  0  0
   68.0997   75.9005   93.3812 O   0  0  0  0  0  0  0  0  0  0  0  0
   67.8194   76.2107   92.0449 C   0  0  0  0  0  0  0  0  0  0  0  0
   67.3595   75.4002   93.7591 H   0  0  0  0  0  0  0  0  0  0  0  0
   69.5190   81.4452   90.1183 C   0  0  0  0  0  0  0  0  0  0  0  0
   70.6699   82.3217   89.6501 C   0  0  0  0  0  0  0  0  0  0  0  0
   71.9470   82.1452   90.2196 C   0  0  0  0  0  0  0  0  0  0  0  0
   73.0207   82.9475   89.8389 C   0  0  0  0  0  0  0  0  0  0  0  0
   72.8553   83.9280   88.8656 C   0  0  0  0  0  0  0  0  0  0  0  0
   71.6141   84.0984   88.2398 C   0  0  0  0  0  0  0  0  0  0  0  0
   71.4683   85.0686   87.2355 C   0  0  0  0  0  0  0  0  0  0  0  0
   70.2464   85.2282   86.5830 C   0  0  0  0  0  0  0  0  0  0  0  0
   69.1636   84.4175   86.9187 C   0  0  0  0  0  0  0  0  0  0  0  0
   69.2889   83.4496   87.9184 C   0  0  0  0  0  0  0  0  0  0  0  0
   70.5094   83.2821   88.6111 C   0  0  0  0  0  0  0  0  0  0  0  0
 10 11  1  0  0  0
 11  2  1  0  0  0
  2  3  2  0  0  0
  3  4  1  0  0  0
  4  1  1  0  0  0
  1 13  1  0  0  0
 13 14  1  0  0  0
 14 15  2  0  0  0
 15 16  1  0  0  0
 16 17  2  0  0  0
 17 18  1  0  0  0
 18 19  2  0  0  0
 19 20  1  0  0  0
 20 21  2  0  0  0
 21 22  1  0  0  0
 22 23  2  0  0  0
  4  5  2  0  0  0
  5  6  1  0  0  0
  6  7  2  0  0  0
  7  8  1  0  0  0
  7  2  1  0  0  0
 23 14  1  0  0  0
 23 18  1  0  0  0
 10 12  1  0  0  0
  8  9  1  0  0  0
M  END
> <score>
1.153769

> <minimizedAffinity>
-7.78385

$$$$
HIPS5021


 23 25  0  0  0  0  0  0  0  0999 V2000
   68.8036   79.9211   89.2159 O   0  0  0  0  0  0  0  0  0  0  0  0
   71.1000   77.5277   90.9614 C   0  0  0  0  0  0  0  0  0  0  0  0
   70.6579   78.5722   90.1294 C   0  0  0  0  0  0  0  0  0  0  0  0
   69.2892   78.8902   90.0386 C   0  0  0  0  0  0  0  0  0  0  0  0
   68.3673   78.1538   90.7863 C   0  0  0  0  0  0  0  0  0  0  0  0
   68.7929   77.1092   91.6075 C   0  0  0  0  0  0  0  0  0  0  0  0
   70.1495   76.7826   91.6982 C   0  0  0  0  0  0  0  0  0  0  0  0
   70.5166   75.7155   92.5213 O   0  0  0  0  0  0  0  0  0  0  0  0
   69.8613   75.2428   92.9958 H   0  0  0  0  0  0  0  0  0  0  0  0
   73.0068   77.2643   92.3514 O   0  0  0  0  0  0  0  0  0  0  0  0
   72.5705   77.2062   91.0223 C   0  0  0  0  0  0  0  0  0  0  0  0
   73.9536   77.0573   92.3903 H   0  0  0  0  0  0  0  0  0  0  0  0
   68.5113   81.2516   89.6495 C   0  0  0  0  0  0  0  0  0  0  0  0
   69.1446   82.3063   88.7559 C   0  0  0  0  0  0  0  0  0  0  0  0
   68.3714   82.9045   87.7407 C   0  0  0  0  0  0  0  0  0  0  0  0
   68.9228   83.8535   86.8823 C   0  0  0  0  0  0  0  0  0  0  0  0
   70.2492   84.2475   87.0288 C   0  0  0  0  0  0  0  0  0  0  0  0
   71.0340   83.7138   88.0585 C   0  0  0  0  0  0  0  0  0  0  0  0
   72.3610   84.1440   88.2168 C   0  0  0  0  0  0  0  0  0  0  0  0
   73.1441   83.6436   89.2563 C   0  0  0  0  0  0  0  0  0  0  0  0
   72.6095   82.7183   90.1511 C   0  0  0  0  0  0  0  0  0  0  0  0
   71.2924   82.2755   90.0068 C   0  0  0  0  0  0  0  0  0  0  0  0
   70.4840   82.7496   88.9488 C   0  0  0  0  0  0  0  0  0  0  0  0
 10 11  1  0  0  0
 11  2  1  0  0  0
  2  3  2  0  0  0
  3  4  1  0  0  0
  4  1  1  0  0  0
  1 13  1  0  0  0
 13 14  1  0  0  0
 14 15  2  0  0  0
 15 16  1  0  0  0
 16 17  2  0  0  0
 17 18  1  0  0  0
 18 19  2  0  0  0
 19 20  1  0  0  0
 20 21  2  0  0  0
 21 22  1  0  0  0
 22 23  2  0  0  0
  4  5  2  0  0  0
  5  6  1  0  0  0
  6  7  2  0  0  0
  7  8  1  0  0  0
  7  2  1  0  0  0
 23 14  1  0  0  0
 23 18  1  0  0  0
 10 12  1  0  0  0
  8  9  1  0  0  0
M  END
> <score>
1.153769

> <minimizedAffinity>
-7.71581

$$$$
HIPS5022


 25 27  0  0  0  0  0  0  0  0999 V2000
   68.3933   77.1870   92.4919 N   0  0  0  0  0  0  0  0  0  0  0  0
   68.0409   78.0933   92.6462 H   0  0  0  0  0  0  0  0  0  0  0  0
   68.6290   74.1882   94.7806 C   0  0  0  0  0  0  0  0  0  0  0  0
   68.9723   75.1708   93.8331 C   0  0  0  0  0  0  0  0  0  0  0  0
   68.0505   76.1602   93.4439 C   0  0  0  0  0  0  0  0  0  0  0  0
   66.7651   76.1461   93.9994 C   0  0  0  0  0  0  0  0  0  0  0  0
   66.4074   75.1747   94.9339 C   0  0  0  0  0  0  0  0  0  0  0  0
   67.3281   74.1970   95.3331 C   0  0  0  0  0  0  0  0  0  0  0  0
   66.9458   73.2424   96.2759 O   0  0  0  0  0  0  0  0  0  0  0  0
   66.0804   73.2587   96.6348 H   0  0  0  0  0  0  0  0  0  0  0  0
   69.5530   72.5594   96.2691 O   0  0  0  0  0  0  0  0  0  0  0  0
   69.6434   73.1759   95.1735 C   0  0  0  0  0  0  0  0  0  0  0  0
   70.7152   72.8963   94.3284 O   0  0  0  0  0  0  0  0  0  0  0  0
   70.7966   73.3461   93.5105 H   0  0  0  0  0  0  0  0  0  0  0  0
   69.2316   76.9708   91.3098 C   0  0  0  0  0  0  0  0  0  0  0  0
   68.3727   76.6872   90.0882 C   0  0  0  0  0  0  0  0  0  0  0  0
   68.0192   77.7935   89.2927 C   0  0  0  0  0  0  0  0  0  0  0  0
   67.2690   77.6370   88.1307 C   0  0  0  0  0  0  0  0  0  0  0  0
   66.8433   76.3738   87.7364 C   0  0  0  0  0  0  0  0  0  0  0  0
   67.1483   75.2499   88.5143 C   0  0  0  0  0  0  0  0  0  0  0  0
   66.6973   73.9850   88.1046 C   0  0  0  0  0  0  0  0  0  0  0  0
   66.9754   72.8559   88.8715 C   0  0  0  0  0  0  0  0  0  0  0  0
   67.6962   72.9777   90.0564 C   0  0  0  0  0  0  0  0  0  0  0  0
   68.1535   74.2274   90.4817 C   0  0  0  0  0  0  0  0  0  0  0  0
   67.9050   75.3903   89.7140 C   0  0  0  0  0  0  0  0  0  0  0  0
 11 12  2  0  0  0
 12 13  1  0  0  0
 12  3  1  0  0  0
  3  4  2  0  0  0
  4  5  1  0  0  0
  5  1  1  0  0  0
  1 15  1  0  0  0
 15 16  1  0  0  0
 16 17  2  0  0  0
 17 18  1  0  0  0
 18 19  2  0  0  0
 19 20  1  0  0  0
 20 21  2  0  0  0
 21 22  1  0  0  0
 22 23  2  0  0  0
 23 24  1  0  0  0
 24 25  2  0  0  0
  5  6  2  0  0  0
  6  7  1  0  0  0
  7  8  2  0  0  0
  8  9  1  0  0  0
  8  3  1  0  0  0
 25 16  1  0  0  0
 25 20  1  0  0  0
 13 14  1  0  0  0
  1  2  1  0  0  0
  9 10  1  0  0  0
M  END
> <score>
0.427273

> <minimizedAffinity>
-8.40779

$$$$
HIPS5022


 25 27  0  0  0  0  0  0  0  0999 V2000
   70.6482   79.7348   90.0500 N   0  0  0  0  0  0  0  0  0  0  0  0
   71.6228   79.7097   89.9132 H   0  0  0  0  0  0  0  0  0  0  0  0
   69.5797   76.2778   91.1426 C   0  0  0  0  0  0  0  0  0  0  0  0
   70.2895   77.4909   91.0676 C   0  0  0  0  0  0  0  0  0  0  0  0
   69.9462   78.4779   90.1252 C   0  0  0  0  0  0  0  0  0  0  0  0
   68.8918   78.2309   89.2374 C   0  0  0  0  0  0  0  0  0  0  0  0
   68.1836   77.0308   89.2944 C   0  0  0  0  0  0  0  0  0  0  0  0
   68.5148   76.0525   90.2410 C   0  0  0  0  0  0  0  0  0  0  0  0
   67.7841   74.8648   90.2808 O   0  0  0  0  0  0  0  0  0  0  0  0
   67.0803   74.7272   89.6777 H   0  0  0  0  0  0  0  0  0  0  0  0
   70.2329   74.0857   91.8428 O   0  0  0  0  0  0  0  0  0  0  0  0
   69.9679   75.2744   92.1676 C   0  0  0  0  0  0  0  0  0  0  0  0
   70.0420   75.6395   93.5101 O   0  0  0  0  0  0  0  0  0  0  0  0
   69.8480   76.5193   93.7677 H   0  0  0  0  0  0  0  0  0  0  0  0
   70.0067   81.0473   90.1638 C   0  0  0  0  0  0  0  0  0  0  0  0
   70.9098   82.1354   89.6059 C   0  0  0  0  0  0  0  0  0  0  0  0
   72.2015   82.2298   90.1573 C   0  0  0  0  0  0  0  0  0  0  0  0
   73.1197   83.1655   89.6893 C   0  0  0  0  0  0  0  0  0  0  0  0
   72.7705   84.0383   88.6653 C   0  0  0  0  0  0  0  0  0  0  0  0
   71.4861   83.9976   88.1086 C   0  0  0  0  0  0  0  0  0  0  0  0
   71.1500   84.8971   87.0843 C   0  0  0  0  0  0  0  0  0  0  0  0
   69.8733   84.8849   86.5273 C   0  0  0  0  0  0  0  0  0  0  0  0
   68.9184   83.9843   86.9915 C   0  0  0  0  0  0  0  0  0  0  0  0
   69.2327   83.0815   88.0102 C   0  0  0  0  0  0  0  0  0  0  0  0
   70.5273   83.0551   88.5820 C   0  0  0  0  0  0  0  0  0  0  0  0
 11 12  2  0  0  0
 12 13  1  0  0  0
 12  3  1  0  0  0
  3  4  2  0  0  0
  4  5  1  0  0  0
  5  1  1  0  0  0
  1 15  1  0  0  0
 15 16  1  0  0  0
 16 17  2  0  0  0
 17 18  1  0  0  0
 18 19  2  0  0  0
 19 20  1  0  0  0
 20 21  2  0  0  0
 21 22  1  0  0  0
 22 23  2  0  0  0
 23 24  1  0  0  0
 24 25  2  0  0  0
  5  6  2  0  0  0
  6  7  1  0  0  0
  7  8  2  0  0  0
  8  9  1  0  0  0
  8  3  1  0  0  0
 25 16  1  0  0  0
 25 20  1  0  0  0
 13 14  1  0  0  0
  1  2  1  0  0  0
  9 10  1  0  0  0
M  END
> <score>
0.427273

> <minimizedAffinity>
-8.23863

$$$$
HIPS5022


 25 27  0  0  0  0  0  0  0  0999 V2000
   68.9834   77.1191   92.6300 N   0  0  0  0  0  0  0  0  0  0  0  0
   69.1847   78.0298   92.9452 H   0  0  0  0  0  0  0  0  0  0  0  0
   67.3418   74.6344   94.9576 C   0  0  0  0  0  0  0  0  0  0  0  0
   68.3295   75.3465   94.2515 C   0  0  0  0  0  0  0  0  0  0  0  0
   67.9837   76.3650   93.3441 C   0  0  0  0  0  0  0  0  0  0  0  0
   66.6300   76.6535   93.1316 C   0  0  0  0  0  0  0  0  0  0  0  0
   65.6394   75.9518   93.8181 C   0  0  0  0  0  0  0  0  0  0  0  0
   65.9819   74.9468   94.7322 C   0  0  0  0  0  0  0  0  0  0  0  0
   64.9706   74.2667   95.4111 O   0  0  0  0  0  0  0  0  0  0  0  0
   64.0727   74.4831   95.2529 H   0  0  0  0  0  0  0  0  0  0  0  0
   66.9862   73.2053   96.8427 O   0  0  0  0  0  0  0  0  0  0  0  0
   67.7576   73.5807   95.9193 C   0  0  0  0  0  0  0  0  0  0  0  0
   69.0159   72.9926   95.8105 O   0  0  0  0  0  0  0  0  0  0  0  0
   69.6010   73.2606   95.1295 H   0  0  0  0  0  0  0  0  0  0  0  0
   69.7198   76.6195   91.4659 C   0  0  0  0  0  0  0  0  0  0  0  0
   69.3633   75.1681   91.1886 C   0  0  0  0  0  0  0  0  0  0  0  0
   70.0358   74.1947   91.9512 C   0  0  0  0  0  0  0  0  0  0  0  0
   69.7537   72.8397   91.8032 C   0  0  0  0  0  0  0  0  0  0  0  0
   68.7999   72.4189   90.8836 C   0  0  0  0  0  0  0  0  0  0  0  0
   68.1284   73.3523   90.0841 C   0  0  0  0  0  0  0  0  0  0  0  0
   67.1783   72.9048   89.1523 C   0  0  0  0  0  0  0  0  0  0  0  0
   66.5102   73.8143   88.3357 C   0  0  0  0  0  0  0  0  0  0  0  0
   66.7890   75.1749   88.4332 C   0  0  0  0  0  0  0  0  0  0  0  0
   67.7313   75.6404   89.3536 C   0  0  0  0  0  0  0  0  0  0  0  0
   68.4115   74.7434   90.2116 C   0  0  0  0  0  0  0  0  0  0  0  0
 11 12  2  0  0  0
 12 13  1  0  0  0
 12  3  1  0  0  0
  3  4  2  0  0  0
  4  5  1  0  0  0
  5  1  1  0  0  0
  1 15  1  0  0  0
 15 16  1  0  0  0
 16 17  2  0  0  0
 17 18  1  0  0  0
 18 19  2  0  0  0
 19 20  1  0  0  0
 20 21  2  0  0  0
 21 22  1  0  0  0
 22 23  2  0  0  0
 23 24  1  0  0  0
 24 25  2  0  0  0
  5  6  2  0  0  0
  6  7  1  0  0  0
  7  8  2  0  0  0
  8  9  1  0  0  0
  8  3  1  0  0  0
 25 16  1  0  0  0
 25 20  1  0  0  0
 13 14  1  0  0  0
  1  2  1  0  0  0
  9 10  1  0  0  0
M  END
> <score>
0.427273

> <minimizedAffinity>
-8.00960

$$$$
HIPS5023


 22 24  0  0  0  0  0  0  0  0999 V2000
   66.8298   72.9261   86.8409 O   0  0  0  0  0  0  0  0  0  0  0  0
   66.2199   70.4234   84.1038 C   0  0  0  0  0  0  0  0  0  0  0  0
   66.9879   69.3571   84.6040 C   0  0  0  0  0  0  0  0  0  0  0  0
   67.6810   69.4895   85.8097 C   0  0  0  0  0  0  0  0  0  0  0  0
   67.6036   70.6778   86.5347 C   0  0  0  0  0  0  0  0  0  0  0  0
   66.8476   71.7575   86.0600 C   0  0  0  0  0  0  0  0  0  0  0  0
   66.1712   71.6300   84.8266 C   0  0  0  0  0  0  0  0  0  0  0  0
   65.1680   71.2730   82.1431 O   0  0  0  0  0  0  0  0  0  0  0  0
   65.4532   70.2665   82.8470 C   0  0  0  0  0  0  0  0  0  0  0  0
   65.0493   69.0050   82.4198 O   0  0  0  0  0  0  0  0  0  0  0  0
   65.2545   68.2485   82.9332 H   0  0  0  0  0  0  0  0  0  0  0  0
   66.3439   73.0632   88.1799 C   0  0  0  0  0  0  0  0  0  0  0  0
   67.1137   74.1538   88.8954 C   0  0  0  0  0  0  0  0  0  0  0  0
   66.9101   75.4778   88.4627 C   0  0  0  0  0  0  0  0  0  0  0  0
   67.5565   76.5470   89.0843 C   0  0  0  0  0  0  0  0  0  0  0  0
   68.4353   76.3195   90.1411 C   0  0  0  0  0  0  0  0  0  0  0  0
   68.6882   75.0118   90.5787 C   0  0  0  0  0  0  0  0  0  0  0  0
   69.5847   74.7975   91.6386 C   0  0  0  0  0  0  0  0  0  0  0  0
   69.8563   73.5023   92.0784 C   0  0  0  0  0  0  0  0  0  0  0  0
   69.2407   72.4100   91.4613 C   0  0  0  0  0  0  0  0  0  0  0  0
   68.3466   72.6047   90.4047 C   0  0  0  0  0  0  0  0  0  0  0  0
   68.0416   73.9073   89.9493 C   0  0  0  0  0  0  0  0  0  0  0  0
  8  9  2  0  0  0
  9 10  1  0  0  0
  9  2  1  0  0  0
  2  3  2  0  0  0
  3  4  1  0  0  0
  4  5  2  0  0  0
  5  6  1  0  0  0
  6  1  1  0  0  0
  1 12  1  0  0  0
 12 13  1  0  0  0
 13 14  2  0  0  0
 14 15  1  0  0  0
 15 16  2  0  0  0
 16 17  1  0  0  0
 17 18  2  0  0  0
 18 19  1  0  0  0
 19 20  2  0  0  0
 20 21  1  0  0  0
 21 22  2  0  0  0
  6  7  2  0  0  0
  7  2  1  0  0  0
 22 13  1  0  0  0
 22 17  1  0  0  0
 10 11  1  0  0  0
M  END
> <score>
0.410179

> <minimizedAffinity>
-8.52254

$$$$
HIPS5023


 22 24  0  0  0  0  0  0  0  0999 V2000
   70.5366   79.7422   89.8706 O   0  0  0  0  0  0  0  0  0  0  0  0
   69.5606   76.3536   91.1714 C   0  0  0  0  0  0  0  0  0  0  0  0
   68.5033   76.0737   90.2878 C   0  0  0  0  0  0  0  0  0  0  0  0
   68.1408   76.9968   89.3039 C   0  0  0  0  0  0  0  0  0  0  0  0
   68.8366   78.1988   89.1814 C   0  0  0  0  0  0  0  0  0  0  0  0
   69.8932   78.5054   90.0488 C   0  0  0  0  0  0  0  0  0  0  0  0
   70.2384   77.5821   91.0604 C   0  0  0  0  0  0  0  0  0  0  0  0
   70.2688   74.1808   91.8420 O   0  0  0  0  0  0  0  0  0  0  0  0
   69.9698   75.3563   92.1862 C   0  0  0  0  0  0  0  0  0  0  0  0
   70.0427   75.7074   93.5310 O   0  0  0  0  0  0  0  0  0  0  0  0
   69.8233   76.5775   93.8007 H   0  0  0  0  0  0  0  0  0  0  0  0
   70.0131   81.0398   90.1712 C   0  0  0  0  0  0  0  0  0  0  0  0
   70.9411   82.1057   89.6266 C   0  0  0  0  0  0  0  0  0  0  0  0
   72.2316   82.1839   90.1835 C   0  0  0  0  0  0  0  0  0  0  0  0
   73.1609   83.1169   89.7218 C   0  0  0  0  0  0  0  0  0  0  0  0
   72.8191   84.0065   88.7055 C   0  0  0  0  0  0  0  0  0  0  0  0
   71.5327   83.9803   88.1487 C   0  0  0  0  0  0  0  0  0  0  0  0
   71.1997   84.8903   87.1318 C   0  0  0  0  0  0  0  0  0  0  0  0
   69.9211   84.8855   86.5754 C   0  0  0  0  0  0  0  0  0  0  0  0
   68.9623   83.9771   87.0321 C   0  0  0  0  0  0  0  0  0  0  0  0
   69.2762   83.0650   88.0437 C   0  0  0  0  0  0  0  0  0  0  0  0
   70.5688   83.0379   88.6144 C   0  0  0  0  0  0  0  0  0  0  0  0
  8  9  2  0  0  0
  9 10  1  0  0  0
  9  2  1  0  0  0
  2  3  2  0  0  0
  3  4  1  0  0  0
  4  5  2  0  0  0
  5  6  1  0  0  0
  6  1  1  0  0  0
  1 12  1  0  0  0
 12 13  1  0  0  0
 13 14  2  0  0  0
 14 15  1  0  0  0
 15 16  2  0  0  0
 16 17  1  0  0  0
 17 18  2  0  0  0
 18 19  1  0  0  0
 19 20  2  0  0  0
 20 21  1  0  0  0
 21 22  2  0  0  0
  6  7  2  0  0  0
  7  2  1  0  0  0
 22 13  1  0  0  0
 22 17  1  0  0  0
 10 11  1  0  0  0
M  END
> <score>
0.410179

> <minimizedAffinity>
-8.05687

$$$$
HIPS5023


 22 24  0  0  0  0  0  0  0  0999 V2000
   68.9535   77.3889   92.4712 O   0  0  0  0  0  0  0  0  0  0  0  0
   67.2615   74.9807   94.8089 C   0  0  0  0  0  0  0  0  0  0  0  0
   65.9618   75.5160   94.7751 C   0  0  0  0  0  0  0  0  0  0  0  0
   65.6811   76.6429   93.9987 C   0  0  0  0  0  0  0  0  0  0  0  0
   66.6872   77.2372   93.2381 C   0  0  0  0  0  0  0  0  0  0  0  0
   67.9918   76.7268   93.2536 C   0  0  0  0  0  0  0  0  0  0  0  0
   68.2783   75.6044   94.0619 C   0  0  0  0  0  0  0  0  0  0  0  0
   66.6399   73.2199   96.2873 O   0  0  0  0  0  0  0  0  0  0  0  0
   67.5471   73.7621   95.5997 C   0  0  0  0  0  0  0  0  0  0  0  0
   68.8166   73.1919   95.5834 O   0  0  0  0  0  0  0  0  0  0  0  0
   69.5001   73.5845   95.0767 H   0  0  0  0  0  0  0  0  0  0  0  0
   69.6632   76.8622   91.3456 C   0  0  0  0  0  0  0  0  0  0  0  0
   68.7011   76.6172   90.2019 C   0  0  0  0  0  0  0  0  0  0  0  0
   68.3056   77.7335   89.4407 C   0  0  0  0  0  0  0  0  0  0  0  0
   67.4447   77.5949   88.3513 C   0  0  0  0  0  0  0  0  0  0  0  0
   66.9434   76.3418   88.0056 C   0  0  0  0  0  0  0  0  0  0  0  0
   67.2891   75.2117   88.7599 C   0  0  0  0  0  0  0  0  0  0  0  0
   66.7676   73.9566   88.4053 C   0  0  0  0  0  0  0  0  0  0  0  0
   67.0920   72.8244   89.1518 C   0  0  0  0  0  0  0  0  0  0  0  0
   67.9346   72.9352   90.2613 C   0  0  0  0  0  0  0  0  0  0  0  0
   68.4620   74.1763   90.6288 C   0  0  0  0  0  0  0  0  0  0  0  0
   68.1619   75.3372   89.8809 C   0  0  0  0  0  0  0  0  0  0  0  0
  8  9  2  0  0  0
  9 10  1  0  0  0
  9  2  1  0  0  0
  2  3  2  0  0  0
  3  4  1  0  0  0
  4  5  2  0  0  0
  5  6  1  0  0  0
  6  1  1  0  0  0
  1 12  1  0  0  0
 12 13  1  0  0  0
 13 14  2  0  0  0
 14 15  1  0  0  0
 15 16  2  0  0  0
 16 17  1  0  0  0
 17 18  2  0  0  0
 18 19  1  0  0  0
 19 20  2  0  0  0
 20 21  1  0  0  0
 21 22  2  0  0  0
  6  7  2  0  0  0
  7  2  1  0  0  0
 22 13  1  0  0  0
 22 17  1  0  0  0
 10 11  1  0  0  0
M  END
> <score>
0.410179

> <minimizedAffinity>
-8.02141

$$$$
HIPS5024


 28 30  0  0  0  0  0  0  0  0999 V2000
   67.0725   76.1219   91.9992 N   0  0  0  0  0  0  0  0  0  0  0  0
   66.4920   76.9159   91.9565 H   0  0  0  0  0  0  0  0  0  0  0  0
   68.2681   73.8858   94.7723 C   0  0  0  0  0  0  0  0  0  0  0  0
   68.2221   74.6453   93.5863 C   0  0  0  0  0  0  0  0  0  0  0  0
   67.0671   75.3522   93.2180 C   0  0  0  0  0  0  0  0  0  0  0  0
   65.9376   75.2891   94.0492 C   0  0  0  0  0  0  0  0  0  0  0  0
   65.9676   74.5427   95.2264 C   0  0  0  0  0  0  0  0  0  0  0  0
   67.1218   73.8409   95.5970 C   0  0  0  0  0  0  0  0  0  0  0  0
   67.1211   73.1036   96.7811 O   0  0  0  0  0  0  0  0  0  0  0  0
   66.3543   73.0821   97.3192 H   0  0  0  0  0  0  0  0  0  0  0  0
   69.6110   72.5700   96.2393 O   0  0  0  0  0  0  0  0  0  0  0  0
   69.5135   73.1554   95.1265 C   0  0  0  0  0  0  0  0  0  0  0  0
   70.5886   73.1038   94.2436 O   0  0  0  0  0  0  0  0  0  0  0  0
   70.5333   73.5332   93.4125 H   0  0  0  0  0  0  0  0  0  0  0  0
   67.8818   75.8050   90.8192 C   0  0  0  0  0  0  0  0  0  0  0  0
   69.0352   76.7828   90.6686 C   0  0  0  0  0  0  0  0  0  0  0  0
   70.2368   76.4633   91.3325 C   0  0  0  0  0  0  0  0  0  0  0  0
   71.3719   77.2570   91.1887 C   0  0  0  0  0  0  0  0  0  0  0  0
   71.3428   78.3664   90.3527 C   0  0  0  0  0  0  0  0  0  0  0  0
   70.1758   78.6938   89.6649 C   0  0  0  0  0  0  0  0  0  0  0  0
   68.9921   77.9373   89.8277 C   0  0  0  0  0  0  0  0  0  0  0  0
   67.7571   78.3050   89.0111 C   0  0  0  0  0  0  0  0  0  0  0  0
   67.6754   77.5887   87.6842 C   0  0  0  0  0  0  0  0  0  0  0  0
   67.0237   76.3479   87.5797 C   0  0  0  0  0  0  0  0  0  0  0  0
   66.9693   75.6830   86.3506 C   0  0  0  0  0  0  0  0  0  0  0  0
   67.5654   76.2491   85.2204 C   0  0  0  0  0  0  0  0  0  0  0  0
   68.2186   77.4808   85.3171 C   0  0  0  0  0  0  0  0  0  0  0  0
   68.2757   78.1493   86.5436 C   0  0  0  0  0  0  0  0  0  0  0  0
 11 12  2  0  0  0
 12 13  1  0  0  0
 12  3  1  0  0  0
  3  4  2  0  0  0
  4  5  1  0  0  0
  5  1  1  0  0  0
  1 15  1  0  0  0
 15 16  1  0  0  0
 16 17  2  0  0  0
 17 18  1  0  0  0
 18 19  2  0  0  0
 19 20  1  0  0  0
 20 21  2  0  0  0
 21 22  1  0  0  0
 22 23  1  0  0  0
 23 24  2  0  0  0
 24 25  1  0  0  0
 25 26  2  0  0  0
 26 27  1  0  0  0
 27 28  2  0  0  0
  5  6  2  0  0  0
  6  7  1  0  0  0
  7  8  2  0  0  0
  8  9  1  0  0  0
  8  3  1  0  0  0
 21 16  1  0  0  0
 28 23  1  0  0  0
 13 14  1  0  0  0
  1  2  1  0  0  0
  9 10  1  0  0  0
M  END
> <score>
0.00847

> <minimizedAffinity>
-8.44797

$$$$
HIPS5024


 28 30  0  0  0  0  0  0  0  0999 V2000
   69.1423   76.9951   92.2383 N   0  0  0  0  0  0  0  0  0  0  0  0
   69.8871   77.4988   92.6393 H   0  0  0  0  0  0  0  0  0  0  0  0
   67.3582   74.9173   94.8112 C   0  0  0  0  0  0  0  0  0  0  0  0
   68.3424   75.4081   93.9302 C   0  0  0  0  0  0  0  0  0  0  0  0
   68.1003   76.5259   93.1170 C   0  0  0  0  0  0  0  0  0  0  0  0
   66.8477   77.1561   93.1832 C   0  0  0  0  0  0  0  0  0  0  0  0
   65.8639   76.6831   94.0504 C   0  0  0  0  0  0  0  0  0  0  0  0
   66.1066   75.5703   94.8659 C   0  0  0  0  0  0  0  0  0  0  0  0
   65.1025   75.1213   95.7237 O   0  0  0  0  0  0  0  0  0  0  0  0
   64.2768   75.5634   95.7504 H   0  0  0  0  0  0  0  0  0  0  0  0
   66.7362   73.1656   96.3049 O   0  0  0  0  0  0  0  0  0  0  0  0
   67.6581   73.7327   95.6577 C   0  0  0  0  0  0  0  0  0  0  0  0
   68.9529   73.2299   95.7521 O   0  0  0  0  0  0  0  0  0  0  0  0
   69.6500   73.6388   95.2780 H   0  0  0  0  0  0  0  0  0  0  0  0
   69.1702   76.7747   90.7897 C   0  0  0  0  0  0  0  0  0  0  0  0
   68.6992   75.3728   90.4407 C   0  0  0  0  0  0  0  0  0  0  0  0
   69.3649   74.2991   91.0659 C   0  0  0  0  0  0  0  0  0  0  0  0
   68.9520   72.9838   90.8699 C   0  0  0  0  0  0  0  0  0  0  0  0
   67.8454   72.7140   90.0742 C   0  0  0  0  0  0  0  0  0  0  0  0
   67.1529   73.7569   89.4620 C   0  0  0  0  0  0  0  0  0  0  0  0
   67.5762   75.0991   89.6006 C   0  0  0  0  0  0  0  0  0  0  0  0
   66.7523   76.2087   88.9546 C   0  0  0  0  0  0  0  0  0  0  0  0
   67.1932   76.5491   87.5510 C   0  0  0  0  0  0  0  0  0  0  0  0
   66.9376   75.6673   86.4870 C   0  0  0  0  0  0  0  0  0  0  0  0
   67.3662   75.9822   85.1936 C   0  0  0  0  0  0  0  0  0  0  0  0
   68.0534   77.1754   84.9540 C   0  0  0  0  0  0  0  0  0  0  0  0
   68.3148   78.0556   86.0075 C   0  0  0  0  0  0  0  0  0  0  0  0
   67.8883   77.7451   87.3022 C   0  0  0  0  0  0  0  0  0  0  0  0
 11 12  2  0  0  0
 12 13  1  0  0  0
 12  3  1  0  0  0
  3  4  2  0  0  0
  4  5  1  0  0  0
  5  1  1  0  0  0
  1 15  1  0  0  0
 15 16  1  0  0  0
 16 17  2  0  0  0
 17 18  1  0  0  0
 18 19  2  0  0  0
 19 20  1  0  0  0
 20 21  2  0  0  0
 21 22  1  0  0  0
 22 23  1  0  0  0
 23 24  2  0  0  0
 24 25  1  0  0  0
 25 26  2  0  0  0
 26 27  1  0  0  0
 27 28  2  0  0  0
  5  6  2  0  0  0
  6  7  1  0  0  0
  7  8  2  0  0  0
  8  9  1  0  0  0
  8  3  1  0  0  0
 21 16  1  0  0  0
 28 23  1  0  0  0
 13 14  1  0  0  0
  1  2  1  0  0  0
  9 10  1  0  0  0
M  END
> <score>
0.00847

> <minimizedAffinity>
-8.02068

$$$$
HIPS5024


 28 30  0  0  0  0  0  0  0  0999 V2000
   68.0723   74.2009   89.9483 N   0  0  0  0  0  0  0  0  0  0  0  0
   68.6611   73.8706   89.2316 H   0  0  0  0  0  0  0  0  0  0  0  0
   67.7362   73.7243   93.6604 C   0  0  0  0  0  0  0  0  0  0  0  0
   67.4596   74.0602   92.3202 C   0  0  0  0  0  0  0  0  0  0  0  0
   68.4059   73.8486   91.3057 C   0  0  0  0  0  0  0  0  0  0  0  0
   69.6527   73.2986   91.6431 C   0  0  0  0  0  0  0  0  0  0  0  0
   69.9411   72.9601   92.9645 C   0  0  0  0  0  0  0  0  0  0  0  0
   68.9952   73.1666   93.9768 C   0  0  0  0  0  0  0  0  0  0  0  0
   69.3132   72.8171   95.2891 O   0  0  0  0  0  0  0  0  0  0  0  0
   70.1517   72.4481   95.4856 H   0  0  0  0  0  0  0  0  0  0  0  0
   65.8351   74.8619   94.5426 O   0  0  0  0  0  0  0  0  0  0  0  0
   66.7036   73.9617   94.7031 C   0  0  0  0  0  0  0  0  0  0  0  0
   66.6754   73.2008   95.8686 O   0  0  0  0  0  0  0  0  0  0  0  0
   67.3130   72.5278   96.0043 H   0  0  0  0  0  0  0  0  0  0  0  0
   66.9179   75.0163   89.5606 C   0  0  0  0  0  0  0  0  0  0  0  0
   67.2559   75.9189   88.3859 C   0  0  0  0  0  0  0  0  0  0  0  0
   67.0091   75.4099   87.0949 C   0  0  0  0  0  0  0  0  0  0  0  0
   67.2122   76.1926   85.9613 C   0  0  0  0  0  0  0  0  0  0  0  0
   67.6325   77.5104   86.0928 C   0  0  0  0  0  0  0  0  0  0  0  0
   67.8620   78.0487   87.3576 C   0  0  0  0  0  0  0  0  0  0  0  0
   67.7130   77.2656   88.5258 C   0  0  0  0  0  0  0  0  0  0  0  0
   67.9240   77.9170   89.8890 C   0  0  0  0  0  0  0  0  0  0  0  0
   69.3213   77.7393   90.4333 C   0  0  0  0  0  0  0  0  0  0  0  0
   70.4302   78.2535   89.7398 C   0  0  0  0  0  0  0  0  0  0  0  0
   71.7221   78.0678   90.2420 C   0  0  0  0  0  0  0  0  0  0  0  0
   71.9163   77.3673   91.4356 C   0  0  0  0  0  0  0  0  0  0  0  0
   70.8189   76.8496   92.1291 C   0  0  0  0  0  0  0  0  0  0  0  0
   69.5255   77.0326   91.6311 C   0  0  0  0  0  0  0  0  0  0  0  0
 11 12  2  0  0  0
 12 13  1  0  0  0
 12  3  1  0  0  0
  3  4  2  0  0  0
  4  5  1  0  0  0
  5  1  1  0  0  0
  1 15  1  0  0  0
 15 16  1  0  0  0
 16 17  2  0  0  0
 17 18  1  0  0  0
 18 19  2  0  0  0
 19 20  1  0  0  0
 20 21  2  0  0  0
 21 22  1  0  0  0
 22 23  1  0  0  0
 23 24  2  0  0  0
 24 25  1  0  0  0
 25 26  2  0  0  0
 26 27  1  0  0  0
 27 28  2  0  0  0
  5  6  2  0  0  0
  6  7  1  0  0  0
  7  8  2  0  0  0
  8  9  1  0  0  0
  8  3  1  0  0  0
 21 16  1  0  0  0
 28 23  1  0  0  0
 13 14  1  0  0  0
  1  2  1  0  0  0
  9 10  1  0  0  0
M  END
> <score>
0.00847

> <minimizedAffinity>
-7.96128

$$$$
HIPS5025


 25 27  0  0  0  0  0  0  0  0999 V2000
   67.8846   78.9225   89.2265 N   0  0  0  0  0  0  0  0  0  0  0  0
   67.6869   79.0796   88.2749 H   0  0  0  0  0  0  0  0  0  0  0  0
   69.2455   75.9041   91.0466 C   0  0  0  0  0  0  0  0  0  0  0  0
   69.0360   77.2383   90.6539 C   0  0  0  0  0  0  0  0  0  0  0  0
   68.1038   77.5627   89.6515 C   0  0  0  0  0  0  0  0  0  0  0  0
   67.3611   76.5344   89.0584 C   0  0  0  0  0  0  0  0  0  0  0  0
   67.5677   75.2057   89.4291 C   0  0  0  0  0  0  0  0  0  0  0  0
   68.5193   74.8743   90.3986 C   0  0  0  0  0  0  0  0  0  0  0  0
   68.7337   73.5194   90.6613 O   0  0  0  0  0  0  0  0  0  0  0  0
   68.2314   72.8696   90.2103 H   0  0  0  0  0  0  0  0  0  0  0  0
   71.0217   76.5229   92.5122 O   0  0  0  0  0  0  0  0  0  0  0  0
   70.2009   75.6402   92.1452 C   0  0  0  0  0  0  0  0  0  0  0  0
   70.2377   74.3830   92.7431 O   0  0  0  0  0  0  0  0  0  0  0  0
   69.6315   73.7198   92.4771 H   0  0  0  0  0  0  0  0  0  0  0  0
   67.9361   80.0860   90.1139 C   0  0  0  0  0  0  0  0  0  0  0  0
   68.8610   81.1383   89.5590 C   0  0  0  0  0  0  0  0  0  0  0  0
   68.4326   81.9635   88.5073 C   0  0  0  0  0  0  0  0  0  0  0  0
   69.2846   82.9343   87.9747 C   0  0  0  0  0  0  0  0  0  0  0  0
   70.5782   83.0966   88.4901 C   0  0  0  0  0  0  0  0  0  0  0  0
   71.4445   84.0650   87.9589 C   0  0  0  0  0  0  0  0  0  0  0  0
   72.7322   84.2164   88.4813 C   0  0  0  0  0  0  0  0  0  0  0  0
   73.1639   83.4057   89.5345 C   0  0  0  0  0  0  0  0  0  0  0  0
   72.3108   82.4381   90.0731 C   0  0  0  0  0  0  0  0  0  0  0  0
   71.0152   82.2757   89.5577 C   0  0  0  0  0  0  0  0  0  0  0  0
   70.1508   81.3067   90.0890 C   0  0  0  0  0  0  0  0  0  0  0  0
 11 12  2  0  0  0
 12 13  1  0  0  0
 12  3  1  0  0  0
  3  4  2  0  0  0
  4  5  1  0  0  0
  5  1  1  0  0  0
  1 15  1  0  0  0
 15 16  1  0  0  0
 16 17  2  0  0  0
 17 18  1  0  0  0
 18 19  2  0  0  0
 19 20  1  0  0  0
 20 21  2  0  0  0
 21 22  1  0  0  0
 22 23  2  0  0  0
 23 24  1  0  0  0
 24 25  2  0  0  0
  5  6  2  0  0  0
  6  7  1  0  0  0
  7  8  2  0  0  0
  8  9  1  0  0  0
  8  3  1  0  0  0
 25 16  1  0  0  0
 24 19  1  0  0  0
 13 14  1  0  0  0
  1  2  1  0  0  0
  9 10  1  0  0  0
M  END
> <score>
0.564025

> <minimizedAffinity>
-8.11071

$$$$
HIPS5025


 25 27  0  0  0  0  0  0  0  0999 V2000
   66.9977   76.8435   91.9576 N   0  0  0  0  0  0  0  0  0  0  0  0
   66.4441   77.6532   92.0412 H   0  0  0  0  0  0  0  0  0  0  0  0
   68.1054   74.2048   94.4245 C   0  0  0  0  0  0  0  0  0  0  0  0
   68.1216   75.1119   93.3498 C   0  0  0  0  0  0  0  0  0  0  0  0
   67.0048   75.9175   93.0623 C   0  0  0  0  0  0  0  0  0  0  0  0
   65.8725   75.8231   93.8806 C   0  0  0  0  0  0  0  0  0  0  0  0
   65.8379   74.9188   94.9419 C   0  0  0  0  0  0  0  0  0  0  0  0
   66.9314   74.0893   95.2094 C   0  0  0  0  0  0  0  0  0  0  0  0
   66.7979   73.1494   96.2339 O   0  0  0  0  0  0  0  0  0  0  0  0
   66.0039   73.1063   96.7295 H   0  0  0  0  0  0  0  0  0  0  0  0
   69.4764   72.8166   95.7953 O   0  0  0  0  0  0  0  0  0  0  0  0
   69.3340   73.4287   94.7033 C   0  0  0  0  0  0  0  0  0  0  0  0
   70.3729   73.4211   93.7759 O   0  0  0  0  0  0  0  0  0  0  0  0
   70.2767   73.8733   92.9609 H   0  0  0  0  0  0  0  0  0  0  0  0
   67.7581   76.6614   90.7195 C   0  0  0  0  0  0  0  0  0  0  0  0
   68.7472   77.7828   90.5326 C   0  0  0  0  0  0  0  0  0  0  0  0
   70.1234   77.5287   90.6427 C   0  0  0  0  0  0  0  0  0  0  0  0
   71.0507   78.5616   90.4846 C   0  0  0  0  0  0  0  0  0  0  0  0
   70.6143   79.8652   90.2095 C   0  0  0  0  0  0  0  0  0  0  0  0
   71.5368   80.9116   90.0543 C   0  0  0  0  0  0  0  0  0  0  0  0
   71.0887   82.2071   89.7808 C   0  0  0  0  0  0  0  0  0  0  0  0
   69.7210   82.4676   89.6601 C   0  0  0  0  0  0  0  0  0  0  0  0
   68.7918   81.4342   89.8116 C   0  0  0  0  0  0  0  0  0  0  0  0
   69.2285   80.1287   90.0865 C   0  0  0  0  0  0  0  0  0  0  0  0
   68.3052   79.0840   90.2423 C   0  0  0  0  0  0  0  0  0  0  0  0
 11 12  2  0  0  0
 12 13  1  0  0  0
 12  3  1  0  0  0
  3  4  2  0  0  0
  4  5  1  0  0  0
  5  1  1  0  0  0
  1 15  1  0  0  0
 15 16  1  0  0  0
 16 17  2  0  0  0
 17 18  1  0  0  0
 18 19  2  0  0  0
 19 20  1  0  0  0
 20 21  2  0  0  0
 21 22  1  0  0  0
 22 23  2  0  0  0
 23 24  1  0  0  0
 24 25  2  0  0  0
  5  6  2  0  0  0
  6  7  1  0  0  0
  7  8  2  0  0  0
  8  9  1  0  0  0
  8  3  1  0  0  0
 25 16  1  0  0  0
 24 19  1  0  0  0
 13 14  1  0  0  0
  1  2  1  0  0  0
  9 10  1  0  0  0
M  END
> <score>
0.564025

> <minimizedAffinity>
-7.95191

$$$$
HIPS5025


 25 27  0  0  0  0  0  0  0  0999 V2000
   70.3134   80.9167   90.1319 N   0  0  0  0  0  0  0  0  0  0  0  0
   69.3762   80.9099   90.4333 H   0  0  0  0  0  0  0  0  0  0  0  0
   70.5505   84.0370   88.0146 C   0  0  0  0  0  0  0  0  0  0  0  0
   70.0410   82.8702   88.6123 C   0  0  0  0  0  0  0  0  0  0  0  0
   70.8133   82.1219   89.5193 C   0  0  0  0  0  0  0  0  0  0  0  0
   72.1004   82.5684   89.8427 C   0  0  0  0  0  0  0  0  0  0  0  0
   72.6231   83.7166   89.2478 C   0  0  0  0  0  0  0  0  0  0  0  0
   71.8736   84.4436   88.3177 C   0  0  0  0  0  0  0  0  0  0  0  0
   72.4884   85.5342   87.6987 O   0  0  0  0  0  0  0  0  0  0  0  0
   73.3658   85.7699   87.9283 H   0  0  0  0  0  0  0  0  0  0  0  0
   68.4375   84.9345   87.3701 O   0  0  0  0  0  0  0  0  0  0  0  0
   69.6641   84.8051   87.1126 C   0  0  0  0  0  0  0  0  0  0  0  0
   70.1744   85.3422   85.9334 O   0  0  0  0  0  0  0  0  0  0  0  0
   71.0852   85.2513   85.7329 H   0  0  0  0  0  0  0  0  0  0  0  0
   71.1048   79.7019   90.3365 C   0  0  0  0  0  0  0  0  0  0  0  0
   70.2346   78.4760   90.2335 C   0  0  0  0  0  0  0  0  0  0  0  0
   69.1403   78.4654   89.3543 C   0  0  0  0  0  0  0  0  0  0  0  0
   68.3177   77.3403   89.2585 C   0  0  0  0  0  0  0  0  0  0  0  0
   68.5805   76.2060   90.0393 C   0  0  0  0  0  0  0  0  0  0  0  0
   67.7573   75.0722   89.9553 C   0  0  0  0  0  0  0  0  0  0  0  0
   68.0299   73.9477   90.7397 C   0  0  0  0  0  0  0  0  0  0  0  0
   69.1225   73.9458   91.6109 C   0  0  0  0  0  0  0  0  0  0  0  0
   69.9506   75.0682   91.7035 C   0  0  0  0  0  0  0  0  0  0  0  0
   69.6881   76.2039   90.9214 C   0  0  0  0  0  0  0  0  0  0  0  0
   70.5112   77.3368   91.0071 C   0  0  0  0  0  0  0  0  0  0  0  0
 11 12  2  0  0  0
 12 13  1  0  0  0
 12  3  1  0  0  0
  3  4  2  0  0  0
  4  5  1  0  0  0
  5  1  1  0  0  0
  1 15  1  0  0  0
 15 16  1  0  0  0
 16 17  2  0  0  0
 17 18  1  0  0  0
 18 19  2  0  0  0
 19 20  1  0  0  0
 20 21  2  0  0  0
 21 22  1  0  0  0
 22 23  2  0  0  0
 23 24  1  0  0  0
 24 25  2  0  0  0
  5  6  2  0  0  0
  6  7  1  0  0  0
  7  8  2  0  0  0
  8  9  1  0  0  0
  8  3  1  0  0  0
 25 16  1  0  0  0
 24 19  1  0  0  0
 13 14  1  0  0  0
  1  2  1  0  0  0
  9 10  1  0  0  0
M  END
> <score>
0.564025

> <minimizedAffinity>
-7.94029

$$$$
HIPS5026


 24 26  0  0  0  0  0  0  0  0999 V2000
   68.6267   74.1149   94.8491 C   0  0  0  0  0  0  0  0  0  0  0  0
   69.0214   75.1163   93.9457 C   0  0  0  0  0  0  0  0  0  0  0  0
   68.1292   76.1265   93.5453 C   0  0  0  0  0  0  0  0  0  0  0  0
   66.8415   76.1480   94.0845 C   0  0  0  0  0  0  0  0  0  0  0  0
   66.4326   75.1594   94.9806 C   0  0  0  0  0  0  0  0  0  0  0  0
   67.3011   74.1260   95.3501 C   0  0  0  0  0  0  0  0  0  0  0  0
   66.7998   73.1217   96.1812 O   0  0  0  0  0  0  0  0  0  0  0  0
   65.9166   73.1673   96.4908 H   0  0  0  0  0  0  0  0  0  0  0  0
   69.6309   73.1024   95.2435 C   0  0  0  0  0  0  0  0  0  0  0  0
   69.5466   72.5139   96.3559 O   0  0  0  0  0  0  0  0  0  0  0  0
   70.7067   71.8118   93.4223 C   0  0  0  0  0  0  0  0  0  0  0  0
   70.7147   72.8491   94.3949 O   0  0  0  0  0  0  0  0  0  0  0  0
   68.4828   77.1208   92.6175 O   0  0  0  0  0  0  0  0  0  0  0  0
   69.3312   76.9219   91.4839 C   0  0  0  0  0  0  0  0  0  0  0  0
   68.5034   76.6519   90.2391 C   0  0  0  0  0  0  0  0  0  0  0  0
   68.1601   77.7707   89.4586 C   0  0  0  0  0  0  0  0  0  0  0  0
   67.3538   77.6433   88.3308 C   0  0  0  0  0  0  0  0  0  0  0  0
   66.8710   76.3956   87.9518 C   0  0  0  0  0  0  0  0  0  0  0  0
   67.2079   75.2531   88.6887 C   0  0  0  0  0  0  0  0  0  0  0  0
   66.7122   74.0022   88.2879 C   0  0  0  0  0  0  0  0  0  0  0  0
   67.0440   72.8520   89.0003 C   0  0  0  0  0  0  0  0  0  0  0  0
   67.8827   72.9356   90.1085 C   0  0  0  0  0  0  0  0  0  0  0  0
   68.3887   74.1704   90.5218 C   0  0  0  0  0  0  0  0  0  0  0  0
   68.0479   75.3600   89.8350 C   0  0  0  0  0  0  0  0  0  0  0  0
 11 12  1  0  0  0
 12  9  1  0  0  0
  9 10  2  0  0  0
  9  1  1  0  0  0
  1  2  2  0  0  0
  2  3  1  0  0  0
  3 13  1  0  0  0
 13 14  1  0  0  0
 14 15  1  0  0  0
 15 16  2  0  0  0
 16 17  1  0  0  0
 17 18  2  0  0  0
 18 19  1  0  0  0
 19 20  2  0  0  0
 20 21  1  0  0  0
 21 22  2  0  0  0
 22 23  1  0  0  0
 23 24  2  0  0  0
  3  4  2  0  0  0
  4  5  1  0  0  0
  5  6  2  0  0  0
  6  7  1  0  0  0
  6  1  1  0  0  0
 24 15  1  0  0  0
 24 19  1  0  0  0
  7  8  1  0  0  0
M  END
> <score>
1.153769

> <minimizedAffinity>
-8.35083

$$$$
HIPS5026


 24 26  0  0  0  0  0  0  0  0999 V2000
   69.6179   76.4238   91.1355 C   0  0  0  0  0  0  0  0  0  0  0  0
   70.3077   77.6436   91.0315 C   0  0  0  0  0  0  0  0  0  0  0  0
   69.9243   78.6174   90.0927 C   0  0  0  0  0  0  0  0  0  0  0  0
   68.8179   78.3753   89.2762 C   0  0  0  0  0  0  0  0  0  0  0  0
   68.1235   77.1679   89.3648 C   0  0  0  0  0  0  0  0  0  0  0  0
   68.5259   76.1763   90.2667 C   0  0  0  0  0  0  0  0  0  0  0  0
   67.8418   74.9590   90.2420 O   0  0  0  0  0  0  0  0  0  0  0  0
   67.1245   74.8366   89.6516 H   0  0  0  0  0  0  0  0  0  0  0  0
   70.0639   75.4611   92.1668 C   0  0  0  0  0  0  0  0  0  0  0  0
   70.2670   74.2519   91.8713 O   0  0  0  0  0  0  0  0  0  0  0  0
   69.1073   76.3992   94.2512 C   0  0  0  0  0  0  0  0  0  0  0  0
   70.1974   75.8927   93.4915 O   0  0  0  0  0  0  0  0  0  0  0  0
   70.6150   79.8317   89.9406 O   0  0  0  0  0  0  0  0  0  0  0  0
   70.0565   81.1281   90.1679 C   0  0  0  0  0  0  0  0  0  0  0  0
   70.9353   82.2029   89.5512 C   0  0  0  0  0  0  0  0  0  0  0  0
   72.2418   82.3142   90.0604 C   0  0  0  0  0  0  0  0  0  0  0  0
   73.1100   83.3043   89.6085 C   0  0  0  0  0  0  0  0  0  0  0  0
   72.6972   84.2077   88.6354 C   0  0  0  0  0  0  0  0  0  0  0  0
   71.4119   84.1173   88.0861 C   0  0  0  0  0  0  0  0  0  0  0  0
   71.0153   85.0376   87.1028 C   0  0  0  0  0  0  0  0  0  0  0  0
   69.7454   84.9586   86.5355 C   0  0  0  0  0  0  0  0  0  0  0  0
   68.8655   83.9552   86.9322 C   0  0  0  0  0  0  0  0  0  0  0  0
   69.2420   83.0282   87.9070 C   0  0  0  0  0  0  0  0  0  0  0  0
   70.5152   83.0989   88.5213 C   0  0  0  0  0  0  0  0  0  0  0  0
 11 12  1  0  0  0
 12  9  1  0  0  0
  9 10  2  0  0  0
  9  1  1  0  0  0
  1  2  2  0  0  0
  2  3  1  0  0  0
  3 13  1  0  0  0
 13 14  1  0  0  0
 14 15  1  0  0  0
 15 16  2  0  0  0
 16 17  1  0  0  0
 17 18  2  0  0  0
 18 19  1  0  0  0
 19 20  2  0  0  0
 20 21  1  0  0  0
 21 22  2  0  0  0
 22 23  1  0  0  0
 23 24  2  0  0  0
  3  4  2  0  0  0
  4  5  1  0  0  0
  5  6  2  0  0  0
  6  7  1  0  0  0
  6  1  1  0  0  0
 24 15  1  0  0  0
 24 19  1  0  0  0
  7  8  1  0  0  0
M  END
> <score>
1.153769

> <minimizedAffinity>
-8.16707

$$$$
HIPS5026


 24 26  0  0  0  0  0  0  0  0999 V2000
   68.9874   76.9542   91.2694 C   0  0  0  0  0  0  0  0  0  0  0  0
   68.7647   78.1667   90.5949 C   0  0  0  0  0  0  0  0  0  0  0  0
   69.8367   78.9869   90.2017 C   0  0  0  0  0  0  0  0  0  0  0  0
   71.1432   78.5671   90.4592 C   0  0  0  0  0  0  0  0  0  0  0  0
   71.3817   77.3670   91.1306 C   0  0  0  0  0  0  0  0  0  0  0  0
   70.3184   76.5666   91.5636 C   0  0  0  0  0  0  0  0  0  0  0  0
   70.6254   75.4241   92.3059 O   0  0  0  0  0  0  0  0  0  0  0  0
   71.5197   75.2035   92.4780 H   0  0  0  0  0  0  0  0  0  0  0  0
   67.8094   76.1329   91.6258 C   0  0  0  0  0  0  0  0  0  0  0  0
   66.8249   76.6474   92.2230 O   0  0  0  0  0  0  0  0  0  0  0  0
   67.9863   74.2404   90.0361 C   0  0  0  0  0  0  0  0  0  0  0  0
   67.8250   74.7609   91.3495 O   0  0  0  0  0  0  0  0  0  0  0  0
   69.6454   80.2209   89.5572 O   0  0  0  0  0  0  0  0  0  0  0  0
   69.6557   81.4957   90.2045 C   0  0  0  0  0  0  0  0  0  0  0  0
   70.7562   82.3743   89.6344 C   0  0  0  0  0  0  0  0  0  0  0  0
   72.0380   82.2159   90.1917 C   0  0  0  0  0  0  0  0  0  0  0  0
   73.1047   83.0126   89.7848 C   0  0  0  0  0  0  0  0  0  0  0  0
   72.9200   83.9868   88.8100 C   0  0  0  0  0  0  0  0  0  0  0  0
   71.6647   84.1617   88.2137 C   0  0  0  0  0  0  0  0  0  0  0  0
   71.4996   85.1492   87.2295 C   0  0  0  0  0  0  0  0  0  0  0  0
   70.2624   85.3323   86.6160 C   0  0  0  0  0  0  0  0  0  0  0  0
   69.1836   84.5252   86.9672 C   0  0  0  0  0  0  0  0  0  0  0  0
   69.3280   83.5351   87.9421 C   0  0  0  0  0  0  0  0  0  0  0  0
   70.5649   83.3430   88.6025 C   0  0  0  0  0  0  0  0  0  0  0  0
 11 12  1  0  0  0
 12  9  1  0  0  0
  9 10  2  0  0  0
  9  1  1  0  0  0
  1  2  2  0  0  0
  2  3  1  0  0  0
  3 13  1  0  0  0
 13 14  1  0  0  0
 14 15  1  0  0  0
 15 16  2  0  0  0
 16 17  1  0  0  0
 17 18  2  0  0  0
 18 19  1  0  0  0
 19 20  2  0  0  0
 20 21  1  0  0  0
 21 22  2  0  0  0
 22 23  1  0  0  0
 23 24  2  0  0  0
  3  4  2  0  0  0
  4  5  1  0  0  0
  5  6  2  0  0  0
  6  7  1  0  0  0
  6  1  1  0  0  0
 24 15  1  0  0  0
 24 19  1  0  0  0
  7  8  1  0  0  0
M  END
> <score>
1.153769

> <minimizedAffinity>
-8.05234

$$$$
HIPS5027


 23 25  0  0  0  0  0  0  0  0999 V2000
   70.3058   75.5069   92.3289 O   0  0  0  0  0  0  0  0  0  0  0  0
   66.6932   72.9360   88.6872 C   0  0  0  0  0  0  0  0  0  0  0  0
   67.6392   73.6771   89.6002 C   0  0  0  0  0  0  0  0  0  0  0  0
   68.4044   72.9282   90.5133 C   0  0  0  0  0  0  0  0  0  0  0  0
   69.2757   73.5534   91.4010 C   0  0  0  0  0  0  0  0  0  0  0  0
   69.4347   74.9389   91.3860 C   0  0  0  0  0  0  0  0  0  0  0  0
   68.6957   75.7026   90.4580 C   0  0  0  0  0  0  0  0  0  0  0  0
   67.7867   75.0965   89.5657 C   0  0  0  0  0  0  0  0  0  0  0  0
   67.0026   75.9845   88.6540 C   0  0  0  0  0  0  0  0  0  0  0  0
   66.2525   76.8906   89.1027 O   0  0  0  0  0  0  0  0  0  0  0  0
   67.0994   75.8209   87.2740 O   0  0  0  0  0  0  0  0  0  0  0  0
   67.6520   75.1525   86.9191 H   0  0  0  0  0  0  0  0  0  0  0  0
   70.0062   76.5837   93.2150 C   0  0  0  0  0  0  0  0  0  0  0  0
   68.5179   76.5922   93.4797 C   0  0  0  0  0  0  0  0  0  0  0  0
   67.7453   77.6245   92.9226 C   0  0  0  0  0  0  0  0  0  0  0  0
   66.3761   77.7095   93.1734 C   0  0  0  0  0  0  0  0  0  0  0  0
   65.7504   76.7650   93.9840 C   0  0  0  0  0  0  0  0  0  0  0  0
   66.4913   75.7251   94.5636 C   0  0  0  0  0  0  0  0  0  0  0  0
   65.8486   74.7744   95.3786 C   0  0  0  0  0  0  0  0  0  0  0  0
   66.5813   73.7535   95.9819 C   0  0  0  0  0  0  0  0  0  0  0  0
   67.9601   73.6739   95.7903 C   0  0  0  0  0  0  0  0  0  0  0  0
   68.6149   74.5982   94.9679 C   0  0  0  0  0  0  0  0  0  0  0  0
   67.8925   75.6360   94.3296 C   0  0  0  0  0  0  0  0  0  0  0  0
  2  3  1  0  0  0
  3  4  2  0  0  0
  4  5  1  0  0  0
  5  6  2  0  0  0
  6  1  1  0  0  0
  1 13  1  0  0  0
 13 14  1  0  0  0
 14 15  2  0  0  0
 15 16  1  0  0  0
 16 17  2  0  0  0
 17 18  1  0  0  0
 18 19  2  0  0  0
 19 20  1  0  0  0
 20 21  2  0  0  0
 21 22  1  0  0  0
 22 23  2  0  0  0
  6  7  1  0  0  0
  7  8  2  0  0  0
  8  9  1  0  0  0
  9 10  2  0  0  0
  9 11  1  0  0  0
  8  3  1  0  0  0
 23 14  1  0  0  0
 23 18  1  0  0  0
 11 12  1  0  0  0
M  END
> <score>
0.632401

> <minimizedAffinity>
-8.51326

$$$$
HIPS5027


 23 25  0  0  0  0  0  0  0  0999 V2000
   70.5644   79.7678   89.9262 O   0  0  0  0  0  0  0  0  0  0  0  0
   67.7757   74.7602   90.1890 C   0  0  0  0  0  0  0  0  0  0  0  0
   68.5360   76.0640   90.1930 C   0  0  0  0  0  0  0  0  0  0  0  0
   68.2084   77.0269   89.2207 C   0  0  0  0  0  0  0  0  0  0  0  0
   68.8901   78.2388   89.1534 C   0  0  0  0  0  0  0  0  0  0  0  0
   69.8965   78.5416   90.0703 C   0  0  0  0  0  0  0  0  0  0  0  0
   70.2187   77.5987   91.0691 C   0  0  0  0  0  0  0  0  0  0  0  0
   69.5616   76.3527   91.1429 C   0  0  0  0  0  0  0  0  0  0  0  0
   70.0032   75.3893   92.1972 C   0  0  0  0  0  0  0  0  0  0  0  0
   70.4967   74.2698   91.9004 O   0  0  0  0  0  0  0  0  0  0  0  0
   69.8774   75.7276   93.5426 O   0  0  0  0  0  0  0  0  0  0  0  0
   69.5127   76.5559   93.7853 H   0  0  0  0  0  0  0  0  0  0  0  0
   70.0117   81.0630   90.1535 C   0  0  0  0  0  0  0  0  0  0  0  0
   70.9647   82.0988   89.6022 C   0  0  0  0  0  0  0  0  0  0  0  0
   72.2494   82.1913   90.1624 C   0  0  0  0  0  0  0  0  0  0  0  0
   73.1528   83.1600   89.7264 C   0  0  0  0  0  0  0  0  0  0  0  0
   72.7926   84.0549   88.7212 C   0  0  0  0  0  0  0  0  0  0  0  0
   71.5159   83.9974   88.1443 C   0  0  0  0  0  0  0  0  0  0  0  0
   71.1633   84.9044   87.1273 C   0  0  0  0  0  0  0  0  0  0  0  0
   69.8872   84.8734   86.5674 C   0  0  0  0  0  0  0  0  0  0  0  0
   68.9464   83.9491   87.0196 C   0  0  0  0  0  0  0  0  0  0  0  0
   69.2836   83.0260   88.0164 C   0  0  0  0  0  0  0  0  0  0  0  0
   70.5780   83.0245   88.5915 C   0  0  0  0  0  0  0  0  0  0  0  0
  2  3  1  0  0  0
  3  4  2  0  0  0
  4  5  1  0  0  0
  5  6  2  0  0  0
  6  1  1  0  0  0
  1 13  1  0  0  0
 13 14  1  0  0  0
 14 15  2  0  0  0
 15 16  1  0  0  0
 16 17  2  0  0  0
 17 18  1  0  0  0
 18 19  2  0  0  0
 19 20  1  0  0  0
 20 21  2  0  0  0
 21 22  1  0  0  0
 22 23  2  0  0  0
  6  7  1  0  0  0
  7  8  2  0  0  0
  8  9  1  0  0  0
  9 10  2  0  0  0
  9 11  1  0  0  0
  8  3  1  0  0  0
 23 14  1  0  0  0
 23 18  1  0  0  0
 11 12  1  0  0  0
M  END
> <score>
0.632401

> <minimizedAffinity>
-8.46207

$$$$
HIPS5027


 23 25  0  0  0  0  0  0  0  0999 V2000
   68.4017   80.0549   89.0525 O   0  0  0  0  0  0  0  0  0  0  0  0
   69.0031   74.6860   90.9851 C   0  0  0  0  0  0  0  0  0  0  0  0
   68.8969   76.1216   90.5315 C   0  0  0  0  0  0  0  0  0  0  0  0
   67.8077   76.4818   89.7167 C   0  0  0  0  0  0  0  0  0  0  0  0
   67.6662   77.7831   89.2428 C   0  0  0  0  0  0  0  0  0  0  0  0
   68.5866   78.7716   89.5904 C   0  0  0  0  0  0  0  0  0  0  0  0
   69.6696   78.4339   90.4292 C   0  0  0  0  0  0  0  0  0  0  0  0
   69.8506   77.1171   90.9015 C   0  0  0  0  0  0  0  0  0  0  0  0
   71.0556   76.8329   91.7393 C   0  0  0  0  0  0  0  0  0  0  0  0
   70.9581   76.5859   92.9699 O   0  0  0  0  0  0  0  0  0  0  0  0
   72.3210   76.8319   91.1567 O   0  0  0  0  0  0  0  0  0  0  0  0
   72.4159   77.0132   90.2423 H   0  0  0  0  0  0  0  0  0  0  0  0
   68.5115   81.2903   89.7569 C   0  0  0  0  0  0  0  0  0  0  0  0
   69.1249   82.3195   88.8352 C   0  0  0  0  0  0  0  0  0  0  0  0
   68.3509   82.8101   87.7707 C   0  0  0  0  0  0  0  0  0  0  0  0
   68.8817   83.7241   86.8610 C   0  0  0  0  0  0  0  0  0  0  0  0
   70.1951   84.1681   86.9964 C   0  0  0  0  0  0  0  0  0  0  0  0
   70.9999   83.6941   88.0423 C   0  0  0  0  0  0  0  0  0  0  0  0
   72.3248   84.1515   88.1717 C   0  0  0  0  0  0  0  0  0  0  0  0
   73.1414   83.6650   89.1912 C   0  0  0  0  0  0  0  0  0  0  0  0
   72.6536   82.7120   90.0845 C   0  0  0  0  0  0  0  0  0  0  0  0
   71.3330   82.2588   89.9845 C   0  0  0  0  0  0  0  0  0  0  0  0
   70.4763   82.7482   88.9681 C   0  0  0  0  0  0  0  0  0  0  0  0
  2  3  1  0  0  0
  3  4  2  0  0  0
  4  5  1  0  0  0
  5  6  2  0  0  0
  6  1  1  0  0  0
  1 13  1  0  0  0
 13 14  1  0  0  0
 14 15  2  0  0  0
 15 16  1  0  0  0
 16 17  2  0  0  0
 17 18  1  0  0  0
 18 19  2  0  0  0
 19 20  1  0  0  0
 20 21  2  0  0  0
 21 22  1  0  0  0
 22 23  2  0  0  0
  6  7  1  0  0  0
  7  8  2  0  0  0
  8  9  1  0  0  0
  9 10  2  0  0  0
  9 11  1  0  0  0
  8  3  1  0  0  0
 23 14  1  0  0  0
 23 18  1  0  0  0
 11 12  1  0  0  0
M  END
> <score>
0.632401

> <minimizedAffinity>
-8.15468

$$$$
HIPS5028


 25 27  0  0  0  0  0  0  0  0999 V2000
   69.6093   76.3985   91.1137 C   0  0  0  0  0  0  0  0  0  0  0  0
   70.2996   77.6214   91.0202 C   0  0  0  0  0  0  0  0  0  0  0  0
   69.9052   78.6032   90.0942 C   0  0  0  0  0  0  0  0  0  0  0  0
   68.8508   78.3324   89.2199 C   0  0  0  0  0  0  0  0  0  0  0  0
   68.1693   77.1186   89.2875 C   0  0  0  0  0  0  0  0  0  0  0  0
   68.5323   76.1525   90.2365 C   0  0  0  0  0  0  0  0  0  0  0  0
   67.8173   74.9573   90.3103 O   0  0  0  0  0  0  0  0  0  0  0  0
   67.1032   74.8016   89.7240 H   0  0  0  0  0  0  0  0  0  0  0  0
   70.0990   73.9921   91.7493 N   0  0  0  0  0  0  0  0  0  0  0  0
   70.0376   75.3779   92.0989 C   0  0  0  0  0  0  0  0  0  0  0  0
   70.3557   75.7284   93.2667 O   0  0  0  0  0  0  0  0  0  0  0  0
   70.3860   73.3282   92.4172 H   0  0  0  0  0  0  0  0  0  0  0  0
   69.8543   73.7023   90.8408 H   0  0  0  0  0  0  0  0  0  0  0  0
   70.5639   79.8352   89.9766 O   0  0  0  0  0  0  0  0  0  0  0  0
   69.9476   81.1187   90.1088 C   0  0  0  0  0  0  0  0  0  0  0  0
   70.8629   82.1896   89.5632 C   0  0  0  0  0  0  0  0  0  0  0  0
   72.1696   82.2439   90.0831 C   0  0  0  0  0  0  0  0  0  0  0  0
   73.0794   83.2035   89.6425 C   0  0  0  0  0  0  0  0  0  0  0  0
   72.7129   84.1201   88.6624 C   0  0  0  0  0  0  0  0  0  0  0  0
   71.4283   84.0764   88.1024 C   0  0  0  0  0  0  0  0  0  0  0  0
   71.0790   84.9967   87.1000 C   0  0  0  0  0  0  0  0  0  0  0  0
   69.8131   84.9571   86.5177 C   0  0  0  0  0  0  0  0  0  0  0  0
   68.8839   84.0070   86.9338 C   0  0  0  0  0  0  0  0  0  0  0  0
   69.2098   83.0914   87.9385 C   0  0  0  0  0  0  0  0  0  0  0  0
   70.4859   83.1033   88.5414 C   0  0  0  0  0  0  0  0  0  0  0  0
  9 10  1  0  0  0
 10 11  2  0  0  0
 10  1  1  0  0  0
  1  2  2  0  0  0
  2  3  1  0  0  0
  3 14  1  0  0  0
 14 15  1  0  0  0
 15 16  1  0  0  0
 16 17  2  0  0  0
 17 18  1  0  0  0
 18 19  2  0  0  0
 19 20  1  0  0  0
 20 21  2  0  0  0
 21 22  1  0  0  0
 22 23  2  0  0  0
 23 24  1  0  0  0
 24 25  2  0  0  0
  3  4  2  0  0  0
  4  5  1  0  0  0
  5  6  2  0  0  0
  6  7  1  0  0  0
  6  1  1  0  0  0
 25 16  1  0  0  0
 25 20  1  0  0  0
  9 12  1  0  0  0
  9 13  1  0  0  0
  7  8  1  0  0  0
M  END
> <score>
1.153769

> <minimizedAffinity>
-8.19794

$$$$
HIPS5028


 25 27  0  0  0  0  0  0  0  0999 V2000
   68.4009   74.1695   94.7164 C   0  0  0  0  0  0  0  0  0  0  0  0
   68.7907   75.1635   93.7994 C   0  0  0  0  0  0  0  0  0  0  0  0
   67.8965   76.1764   93.4105 C   0  0  0  0  0  0  0  0  0  0  0  0
   66.5889   76.1574   93.8997 C   0  0  0  0  0  0  0  0  0  0  0  0
   66.1822   75.1688   94.7941 C   0  0  0  0  0  0  0  0  0  0  0  0
   67.0820   74.1801   95.2168 C   0  0  0  0  0  0  0  0  0  0  0  0
   66.6658   73.2187   96.1373 O   0  0  0  0  0  0  0  0  0  0  0  0
   65.7880   73.2326   96.4648 H   0  0  0  0  0  0  0  0  0  0  0  0
   70.2868   72.5607   94.1783 N   0  0  0  0  0  0  0  0  0  0  0  0
   69.3591   73.1126   95.1171 C   0  0  0  0  0  0  0  0  0  0  0  0
   69.3639   72.6876   96.3032 O   0  0  0  0  0  0  0  0  0  0  0  0
   70.9161   71.8590   94.4627 H   0  0  0  0  0  0  0  0  0  0  0  0
   70.2959   72.8825   93.2480 H   0  0  0  0  0  0  0  0  0  0  0  0
   68.2505   77.1865   92.5050 O   0  0  0  0  0  0  0  0  0  0  0  0
   69.1459   77.0312   91.4010 C   0  0  0  0  0  0  0  0  0  0  0  0
   68.3644   76.7641   90.1360 C   0  0  0  0  0  0  0  0  0  0  0  0
   68.1016   77.8644   89.2987 C   0  0  0  0  0  0  0  0  0  0  0  0
   67.3819   77.7114   88.1150 C   0  0  0  0  0  0  0  0  0  0  0  0
   66.9219   76.4561   87.7308 C   0  0  0  0  0  0  0  0  0  0  0  0
   67.1903   75.3337   88.5270 C   0  0  0  0  0  0  0  0  0  0  0  0
   66.7354   74.0695   88.1163 C   0  0  0  0  0  0  0  0  0  0  0  0
   67.0086   72.9389   88.8847 C   0  0  0  0  0  0  0  0  0  0  0  0
   67.7293   73.0593   90.0701 C   0  0  0  0  0  0  0  0  0  0  0  0
   68.1792   74.3108   90.5005 C   0  0  0  0  0  0  0  0  0  0  0  0
   67.9233   75.4720   89.7400 C   0  0  0  0  0  0  0  0  0  0  0  0
  9 10  1  0  0  0
 10 11  2  0  0  0
 10  1  1  0  0  0
  1  2  2  0  0  0
  2  3  1  0  0  0
  3 14  1  0  0  0
 14 15  1  0  0  0
 15 16  1  0  0  0
 16 17  2  0  0  0
 17 18  1  0  0  0
 18 19  2  0  0  0
 19 20  1  0  0  0
 20 21  2  0  0  0
 21 22  1  0  0  0
 22 23  2  0  0  0
 23 24  1  0  0  0
 24 25  2  0  0  0
  3  4  2  0  0  0
  4  5  1  0  0  0
  5  6  2  0  0  0
  6  7  1  0  0  0
  6  1  1  0  0  0
 25 16  1  0  0  0
 25 20  1  0  0  0
  9 12  1  0  0  0
  9 13  1  0  0  0
  7  8  1  0  0  0
M  END
> <score>
1.153769

> <minimizedAffinity>
-8.13316

$$$$
HIPS5028


 25 27  0  0  0  0  0  0  0  0999 V2000
   69.0687   76.9081   91.2900 C   0  0  0  0  0  0  0  0  0  0  0  0
   68.8018   78.1339   90.6521 C   0  0  0  0  0  0  0  0  0  0  0  0
   69.8500   78.9552   90.2008 C   0  0  0  0  0  0  0  0  0  0  0  0
   71.1705   78.5714   90.4429 C   0  0  0  0  0  0  0  0  0  0  0  0
   71.4508   77.3693   91.0901 C   0  0  0  0  0  0  0  0  0  0  0  0
   70.4097   76.5271   91.5057 C   0  0  0  0  0  0  0  0  0  0  0  0
   70.7109   75.3131   92.1223 O   0  0  0  0  0  0  0  0  0  0  0  0
   71.6043   75.0674   92.2619 H   0  0  0  0  0  0  0  0  0  0  0  0
   67.8783   74.6707   91.3992 N   0  0  0  0  0  0  0  0  0  0  0  0
   67.9502   76.0544   91.7549 C   0  0  0  0  0  0  0  0  0  0  0  0
   67.0431   76.5478   92.4770 O   0  0  0  0  0  0  0  0  0  0  0  0
   67.1276   74.1190   91.7174 H   0  0  0  0  0  0  0  0  0  0  0  0
   68.5796   74.2702   90.8361 H   0  0  0  0  0  0  0  0  0  0  0  0
   69.6233   80.1791   89.5557 O   0  0  0  0  0  0  0  0  0  0  0  0
   69.5685   81.4553   90.1983 C   0  0  0  0  0  0  0  0  0  0  0  0
   70.6793   82.3406   89.6838 C   0  0  0  0  0  0  0  0  0  0  0  0
   71.9548   82.1674   90.2529 C   0  0  0  0  0  0  0  0  0  0  0  0
   73.0364   82.9452   89.8435 C   0  0  0  0  0  0  0  0  0  0  0  0
   72.8753   83.9018   88.8465 C   0  0  0  0  0  0  0  0  0  0  0  0
   71.6249   84.0811   88.2381 C   0  0  0  0  0  0  0  0  0  0  0  0
   71.4821   85.0381   87.2195 C   0  0  0  0  0  0  0  0  0  0  0  0
   70.2517   85.2178   86.5895 C   0  0  0  0  0  0  0  0  0  0  0  0
   69.1535   84.4526   86.9736 C   0  0  0  0  0  0  0  0  0  0  0  0
   69.2740   83.5044   87.9937 C   0  0  0  0  0  0  0  0  0  0  0  0
   70.5088   83.2958   88.6448 C   0  0  0  0  0  0  0  0  0  0  0  0
  9 10  1  0  0  0
 10 11  2  0  0  0
 10  1  1  0  0  0
  1  2  2  0  0  0
  2  3  1  0  0  0
  3 14  1  0  0  0
 14 15  1  0  0  0
 15 16  1  0  0  0
 16 17  2  0  0  0
 17 18  1  0  0  0
 18 19  2  0  0  0
 19 20  1  0  0  0
 20 21  2  0  0  0
 21 22  1  0  0  0
 22 23  2  0  0  0
 23 24  1  0  0  0
 24 25  2  0  0  0
  3  4  2  0  0  0
  4  5  1  0  0  0
  5  6  2  0  0  0
  6  7  1  0  0  0
  6  1  1  0  0  0
 25 16  1  0  0  0
 25 20  1  0  0  0
  9 12  1  0  0  0
  9 13  1  0  0  0
  7  8  1  0  0  0
M  END
> <score>
1.153769

> <minimizedAffinity>
-8.02492

$$$$
HIPS5029


 31 33  0  0  0  0  0  0  0  0999 V2000
   69.7123   77.0924   90.9133 C   0  0  0  0  0  0  0  0  0  0  0  0
   68.4090   77.6133   90.9551 C   0  0  0  0  0  0  0  0  0  0  0  0
   68.1626   78.9497   90.6464 C   0  0  0  0  0  0  0  0  0  0  0  0
   69.2187   79.7955   90.2729 C   0  0  0  0  0  0  0  0  0  0  0  0
   70.5179   79.2806   90.2163 C   0  0  0  0  0  0  0  0  0  0  0  0
   70.7866   77.9377   90.5383 C   0  0  0  0  0  0  0  0  0  0  0  0
   69.9488   75.1261   92.4794 C   0  0  0  0  0  0  0  0  0  0  0  0
   69.9449   75.8774   93.4912 O   0  0  0  0  0  0  0  0  0  0  0  0
   69.9198   75.6923   91.1637 N   0  0  0  0  0  0  0  0  0  0  0  0
   70.0483   75.0930   90.3932 H   0  0  0  0  0  0  0  0  0  0  0  0
   70.0136   73.7316   92.6143 O   0  0  0  0  0  0  0  0  0  0  0  0
   68.6311   72.7953   90.8247 C   0  0  0  0  0  0  0  0  0  0  0  0
   68.9596   72.7996   92.3299 C   0  0  0  0  0  0  0  0  0  0  0  0
   67.7047   73.1310   93.1593 C   0  0  0  0  0  0  0  0  0  0  0  0
   69.4660   71.4058   92.7311 C   0  0  0  0  0  0  0  0  0  0  0  0
   72.1940   77.4698   90.5076 C   0  0  0  0  0  0  0  0  0  0  0  0
   72.7299   76.9653   91.5300 O   0  0  0  0  0  0  0  0  0  0  0  0
   72.9522   77.6217   89.3498 O   0  0  0  0  0  0  0  0  0  0  0  0
   72.5658   77.9956   88.5824 H   0  0  0  0  0  0  0  0  0  0  0  0
   69.0269   81.1504   89.9554 O   0  0  0  0  0  0  0  0  0  0  0  0
   69.5313   82.2528   90.7116 C   0  0  0  0  0  0  0  0  0  0  0  0
   70.5933   82.9979   89.9242 C   0  0  0  0  0  0  0  0  0  0  0  0
   71.9328   82.6938   90.2298 C   0  0  0  0  0  0  0  0  0  0  0  0
   72.9848   83.3139   89.5616 C   0  0  0  0  0  0  0  0  0  0  0  0
   72.7283   84.2623   88.5787 C   0  0  0  0  0  0  0  0  0  0  0  0
   71.4093   84.6118   88.2607 C   0  0  0  0  0  0  0  0  0  0  0  0
   71.1724   85.5821   87.2740 C   0  0  0  0  0  0  0  0  0  0  0  0
   69.8695   85.9546   86.9509 C   0  0  0  0  0  0  0  0  0  0  0  0
   68.7928   85.3683   87.6108 C   0  0  0  0  0  0  0  0  0  0  0  0
   69.0071   84.4018   88.5965 C   0  0  0  0  0  0  0  0  0  0  0  0
   70.3186   83.9926   88.9377 C   0  0  0  0  0  0  0  0  0  0  0  0
 12 13  1  0  0  0
 13 14  1  0  0  0
 13 15  1  0  0  0
 13 11  1  0  0  0
 11  7  1  0  0  0
  7  8  2  0  0  0
  7  9  1  0  0  0
  9  1  1  0  0  0
  1  2  2  0  0  0
  2  3  1  0  0  0
  3  4  2  0  0  0
  4 20  1  0  0  0
 20 21  1  0  0  0
 21 22  1  0  0  0
 22 23  2  0  0  0
 23 24  1  0  0  0
 24 25  2  0  0  0
 25 26  1  0  0  0
 26 27  2  0  0  0
 27 28  1  0  0  0
 28 29  2  0  0  0
 29 30  1  0  0  0
 30 31  2  0  0  0
  4  5  1  0  0  0
  5  6  2  0  0  0
  6 16  1  0  0  0
 16 17  2  0  0  0
 16 18  1  0  0  0
  6  1  1  0  0  0
 31 22  1  0  0  0
 31 26  1  0  0  0
  9 10  1  0  0  0
 18 19  1  0  0  0
M  END
> <score>
1.153769

> <minimizedAffinity>
-8.77065

$$$$
HIPS5029


 31 33  0  0  0  0  0  0  0  0999 V2000
   69.4344   76.8157   90.8292 C   0  0  0  0  0  0  0  0  0  0  0  0
   68.0659   77.0445   90.6132 C   0  0  0  0  0  0  0  0  0  0  0  0
   67.6221   78.2307   90.0317 C   0  0  0  0  0  0  0  0  0  0  0  0
   68.5438   79.2133   89.6381 C   0  0  0  0  0  0  0  0  0  0  0  0
   69.9094   78.9871   89.8379 C   0  0  0  0  0  0  0  0  0  0  0  0
   70.3741   77.8016   90.4363 C   0  0  0  0  0  0  0  0  0  0  0  0
   70.0271   75.3038   92.7624 C   0  0  0  0  0  0  0  0  0  0  0  0
   69.9479   76.2548   93.5856 O   0  0  0  0  0  0  0  0  0  0  0  0
   69.8619   75.5506   91.3609 N   0  0  0  0  0  0  0  0  0  0  0  0
   70.0504   74.8178   90.7311 H   0  0  0  0  0  0  0  0  0  0  0  0
   70.3084   73.9982   93.1907 O   0  0  0  0  0  0  0  0  0  0  0  0
   67.9463   73.4087   93.4425 C   0  0  0  0  0  0  0  0  0  0  0  0
   69.3999   73.1061   93.8535 C   0  0  0  0  0  0  0  0  0  0  0  0
   69.5641   73.2025   95.3820 C   0  0  0  0  0  0  0  0  0  0  0  0
   69.7558   71.6805   93.4049 C   0  0  0  0  0  0  0  0  0  0  0  0
   71.8316   77.6481   90.6658 C   0  0  0  0  0  0  0  0  0  0  0  0
   72.6484   77.7273   89.7099 O   0  0  0  0  0  0  0  0  0  0  0  0
   72.3092   77.3741   91.9446 O   0  0  0  0  0  0  0  0  0  0  0  0
   71.7124   77.3124   92.6643 H   0  0  0  0  0  0  0  0  0  0  0  0
   68.1507   80.4276   89.0513 O   0  0  0  0  0  0  0  0  0  0  0  0
   68.2856   81.7156   89.6549 C   0  0  0  0  0  0  0  0  0  0  0  0
   69.0781   82.6458   88.7549 C   0  0  0  0  0  0  0  0  0  0  0  0
   68.3873   83.2069   87.6649 C   0  0  0  0  0  0  0  0  0  0  0  0
   69.0177   84.0793   86.7821 C   0  0  0  0  0  0  0  0  0  0  0  0
   70.3572   84.4058   86.9567 C   0  0  0  0  0  0  0  0  0  0  0  0
   71.0881   83.8500   88.0150 C   0  0  0  0  0  0  0  0  0  0  0  0
   72.4438   84.1826   88.1656 C   0  0  0  0  0  0  0  0  0  0  0  0
   73.1931   83.6319   89.2028 C   0  0  0  0  0  0  0  0  0  0  0  0
   72.6006   82.7420   90.0947 C   0  0  0  0  0  0  0  0  0  0  0  0
   71.2534   82.3972   89.9616 C   0  0  0  0  0  0  0  0  0  0  0  0
   70.4623   82.9503   88.9262 C   0  0  0  0  0  0  0  0  0  0  0  0
 12 13  1  0  0  0
 13 14  1  0  0  0
 13 15  1  0  0  0
 13 11  1  0  0  0
 11  7  1  0  0  0
  7  8  2  0  0  0
  7  9  1  0  0  0
  9  1  1  0  0  0
  1  2  2  0  0  0
  2  3  1  0  0  0
  3  4  2  0  0  0
  4 20  1  0  0  0
 20 21  1  0  0  0
 21 22  1  0  0  0
 22 23  2  0  0  0
 23 24  1  0  0  0
 24 25  2  0  0  0
 25 26  1  0  0  0
 26 27  2  0  0  0
 27 28  1  0  0  0
 28 29  2  0  0  0
 29 30  1  0  0  0
 30 31  2  0  0  0
  4  5  1  0  0  0
  5  6  2  0  0  0
  6 16  1  0  0  0
 16 17  2  0  0  0
 16 18  1  0  0  0
  6  1  1  0  0  0
 31 22  1  0  0  0
 31 26  1  0  0  0
  9 10  1  0  0  0
 18 19  1  0  0  0
M  END
> <score>
1.153769

> <minimizedAffinity>
-8.58672

$$$$
HIPS5029


 31 33  0  0  0  0  0  0  0  0999 V2000
   69.4800   74.0876   91.8078 C   0  0  0  0  0  0  0  0  0  0  0  0
   68.6885   73.4247   90.8560 C   0  0  0  0  0  0  0  0  0  0  0  0
   68.0046   74.1375   89.8730 C   0  0  0  0  0  0  0  0  0  0  0  0
   68.1097   75.5358   89.8114 C   0  0  0  0  0  0  0  0  0  0  0  0
   68.9066   76.2021   90.7480 C   0  0  0  0  0  0  0  0  0  0  0  0
   69.5926   75.4996   91.7556 C   0  0  0  0  0  0  0  0  0  0  0  0
   69.6408   72.6954   93.9079 C   0  0  0  0  0  0  0  0  0  0  0  0
   68.4418   72.9377   94.2111 O   0  0  0  0  0  0  0  0  0  0  0  0
   70.2314   73.3160   92.7597 N   0  0  0  0  0  0  0  0  0  0  0  0
   71.1993   73.2088   92.6155 H   0  0  0  0  0  0  0  0  0  0  0  0
   70.4289   71.8457   94.6978 O   0  0  0  0  0  0  0  0  0  0  0  0
   72.4716   70.8742   93.7627 C   0  0  0  0  0  0  0  0  0  0  0  0
   71.0418   70.6180   94.2760 C   0  0  0  0  0  0  0  0  0  0  0  0
   70.1898   69.9315   93.1918 C   0  0  0  0  0  0  0  0  0  0  0  0
   71.1132   69.7006   95.5062 C   0  0  0  0  0  0  0  0  0  0  0  0
   70.3789   76.2724   92.7482 C   0  0  0  0  0  0  0  0  0  0  0  0
   70.0031   76.3547   93.9479 O   0  0  0  0  0  0  0  0  0  0  0  0
   71.5274   76.9508   92.3495 O   0  0  0  0  0  0  0  0  0  0  0  0
   71.8178   76.8980   91.4602 H   0  0  0  0  0  0  0  0  0  0  0  0
   67.4392   76.3031   88.8445 O   0  0  0  0  0  0  0  0  0  0  0  0
   66.2735   77.0939   89.0838 C   0  0  0  0  0  0  0  0  0  0  0  0
   66.6010   78.5719   88.9781 C   0  0  0  0  0  0  0  0  0  0  0  0
   66.8049   79.0805   87.6820 C   0  0  0  0  0  0  0  0  0  0  0  0
   67.1026   80.4240   87.4719 C   0  0  0  0  0  0  0  0  0  0  0  0
   67.2162   81.2933   88.5501 C   0  0  0  0  0  0  0  0  0  0  0  0
   67.0448   80.8226   89.8586 C   0  0  0  0  0  0  0  0  0  0  0  0
   67.1772   81.7147   90.9347 C   0  0  0  0  0  0  0  0  0  0  0  0
   67.0237   81.2661   92.2445 C   0  0  0  0  0  0  0  0  0  0  0  0
   66.7428   79.9254   92.4939 C   0  0  0  0  0  0  0  0  0  0  0  0
   66.6083   79.0214   91.4373 C   0  0  0  0  0  0  0  0  0  0  0  0
   66.7453   79.4493   90.0950 C   0  0  0  0  0  0  0  0  0  0  0  0
 12 13  1  0  0  0
 13 14  1  0  0  0
 13 15  1  0  0  0
 13 11  1  0  0  0
 11  7  1  0  0  0
  7  8  2  0  0  0
  7  9  1  0  0  0
  9  1  1  0  0  0
  1  2  2  0  0  0
  2  3  1  0  0  0
  3  4  2  0  0  0
  4 20  1  0  0  0
 20 21  1  0  0  0
 21 22  1  0  0  0
 22 23  2  0  0  0
 23 24  1  0  0  0
 24 25  2  0  0  0
 25 26  1  0  0  0
 26 27  2  0  0  0
 27 28  1  0  0  0
 28 29  2  0  0  0
 29 30  1  0  0  0
 30 31  2  0  0  0
  4  5  1  0  0  0
  5  6  2  0  0  0
  6 16  1  0  0  0
 16 17  2  0  0  0
 16 18  1  0  0  0
  6  1  1  0  0  0
 31 22  1  0  0  0
 31 26  1  0  0  0
  9 10  1  0  0  0
 18 19  1  0  0  0
M  END
> <score>
1.153769

> <minimizedAffinity>
-8.50571

$$$$
HIPS5030


 24 26  0  0  0  0  0  0  0  0999 V2000
   67.4098   73.8002   89.4538 C   0  0  0  0  0  0  0  0  0  0  0  0
   68.1089   72.9014   90.2818 C   0  0  0  0  0  0  0  0  0  0  0  0
   69.0619   73.3599   91.1937 C   0  0  0  0  0  0  0  0  0  0  0  0
   69.3292   74.7361   91.3114 C   0  0  0  0  0  0  0  0  0  0  0  0
   68.6775   75.6280   90.4529 C   0  0  0  0  0  0  0  0  0  0  0  0
   67.7158   75.1833   89.5258 C   0  0  0  0  0  0  0  0  0  0  0  0
   67.0316   76.1889   88.6699 C   0  0  0  0  0  0  0  0  0  0  0  0
   66.4815   77.2074   89.1718 O   0  0  0  0  0  0  0  0  0  0  0  0
   66.9903   76.0130   87.2865 O   0  0  0  0  0  0  0  0  0  0  0  0
   67.3939   75.2622   86.8975 H   0  0  0  0  0  0  0  0  0  0  0  0
   66.6516   72.4398   87.4868 C   0  0  0  0  0  0  0  0  0  0  0  0
   66.4231   73.3502   88.5598 O   0  0  0  0  0  0  0  0  0  0  0  0
   70.1967   75.2751   92.2780 O   0  0  0  0  0  0  0  0  0  0  0  0
   69.9874   76.4740   93.0234 C   0  0  0  0  0  0  0  0  0  0  0  0
   68.5304   76.5520   93.4105 C   0  0  0  0  0  0  0  0  0  0  0  0
   67.7363   77.5652   92.8471 C   0  0  0  0  0  0  0  0  0  0  0  0
   66.3787   77.6626   93.1596 C   0  0  0  0  0  0  0  0  0  0  0  0
   65.7846   76.7457   94.0244 C   0  0  0  0  0  0  0  0  0  0  0  0
   66.5458   75.7162   94.5920 C   0  0  0  0  0  0  0  0  0  0  0  0
   65.9383   74.7920   95.4613 C   0  0  0  0  0  0  0  0  0  0  0  0
   66.6901   73.7647   96.0342 C   0  0  0  0  0  0  0  0  0  0  0  0
   68.0541   73.6565   95.7580 C   0  0  0  0  0  0  0  0  0  0  0  0
   68.6754   74.5670   94.9027 C   0  0  0  0  0  0  0  0  0  0  0  0
   67.9333   75.6093   94.2936 C   0  0  0  0  0  0  0  0  0  0  0  0
 11 12  1  0  0  0
 12  1  1  0  0  0
  1  2  2  0  0  0
  2  3  1  0  0  0
  3  4  2  0  0  0
  4 13  1  0  0  0
 13 14  1  0  0  0
 14 15  1  0  0  0
 15 16  2  0  0  0
 16 17  1  0  0  0
 17 18  2  0  0  0
 18 19  1  0  0  0
 19 20  2  0  0  0
 20 21  1  0  0  0
 21 22  2  0  0  0
 22 23  1  0  0  0
 23 24  2  0  0  0
  4  5  1  0  0  0
  5  6  2  0  0  0
  6  7  1  0  0  0
  7  8  2  0  0  0
  7  9  1  0  0  0
  6  1  1  0  0  0
 24 15  1  0  0  0
 24 19  1  0  0  0
  9 10  1  0  0  0
M  END
> <score>
1.153769

> <minimizedAffinity>
-7.99730

$$$$
HIPS5030


 24 26  0  0  0  0  0  0  0  0999 V2000
   68.5090   76.0488   90.2219 C   0  0  0  0  0  0  0  0  0  0  0  0
   68.0694   76.9871   89.2687 C   0  0  0  0  0  0  0  0  0  0  0  0
   68.6476   78.2559   89.1922 C   0  0  0  0  0  0  0  0  0  0  0  0
   69.6949   78.6137   90.0608 C   0  0  0  0  0  0  0  0  0  0  0  0
   70.0977   77.7053   91.0455 C   0  0  0  0  0  0  0  0  0  0  0  0
   69.5243   76.4228   91.1390 C   0  0  0  0  0  0  0  0  0  0  0  0
   70.0261   75.4916   92.1845 C   0  0  0  0  0  0  0  0  0  0  0  0
   70.2053   75.8786   93.3719 O   0  0  0  0  0  0  0  0  0  0  0  0
   70.3077   74.1648   91.8578 O   0  0  0  0  0  0  0  0  0  0  0  0
   70.1801   73.8611   90.9807 H   0  0  0  0  0  0  0  0  0  0  0  0
   67.3477   74.0821   89.1836 C   0  0  0  0  0  0  0  0  0  0  0  0
   67.9576   74.7574   90.2811 O   0  0  0  0  0  0  0  0  0  0  0  0
   70.3915   79.8319   89.9710 O   0  0  0  0  0  0  0  0  0  0  0  0
   69.8357   81.1352   90.1426 C   0  0  0  0  0  0  0  0  0  0  0  0
   70.8294   82.1527   89.6369 C   0  0  0  0  0  0  0  0  0  0  0  0
   72.1199   82.1691   90.1927 C   0  0  0  0  0  0  0  0  0  0  0  0
   73.0784   83.0787   89.7409 C   0  0  0  0  0  0  0  0  0  0  0  0
   72.7756   83.9758   88.7188 C   0  0  0  0  0  0  0  0  0  0  0  0
   71.5026   83.9758   88.1347 C   0  0  0  0  0  0  0  0  0  0  0  0
   71.2052   84.8820   87.1006 C   0  0  0  0  0  0  0  0  0  0  0  0
   69.9380   84.8912   86.5150 C   0  0  0  0  0  0  0  0  0  0  0  0
   68.9530   84.0090   86.9621 C   0  0  0  0  0  0  0  0  0  0  0  0
   69.2275   83.1068   87.9903 C   0  0  0  0  0  0  0  0  0  0  0  0
   70.5101   83.0636   88.5911 C   0  0  0  0  0  0  0  0  0  0  0  0
 11 12  1  0  0  0
 12  1  1  0  0  0
  1  2  2  0  0  0
  2  3  1  0  0  0
  3  4  2  0  0  0
  4 13  1  0  0  0
 13 14  1  0  0  0
 14 15  1  0  0  0
 15 16  2  0  0  0
 16 17  1  0  0  0
 17 18  2  0  0  0
 18 19  1  0  0  0
 19 20  2  0  0  0
 20 21  1  0  0  0
 21 22  2  0  0  0
 22 23  1  0  0  0
 23 24  2  0  0  0
  4  5  1  0  0  0
  5  6  2  0  0  0
  6  7  1  0  0  0
  7  8  2  0  0  0
  7  9  1  0  0  0
  6  1  1  0  0  0
 24 15  1  0  0  0
 24 19  1  0  0  0
  9 10  1  0  0  0
M  END
> <score>
1.153769

> <minimizedAffinity>
-7.97495

$$$$
HIPS5030


 24 26  0  0  0  0  0  0  0  0999 V2000
   68.9797   76.0962   90.7390 C   0  0  0  0  0  0  0  0  0  0  0  0
   70.1859   76.4263   91.3858 C   0  0  0  0  0  0  0  0  0  0  0  0
   70.8266   77.6408   91.1314 C   0  0  0  0  0  0  0  0  0  0  0  0
   70.2662   78.5657   90.2317 C   0  0  0  0  0  0  0  0  0  0  0  0
   69.0974   78.2193   89.5453 C   0  0  0  0  0  0  0  0  0  0  0  0
   68.4394   76.9983   89.7872 C   0  0  0  0  0  0  0  0  0  0  0  0
   67.1794   76.7091   89.0518 C   0  0  0  0  0  0  0  0  0  0  0  0
   66.2421   77.5525   89.0057 O   0  0  0  0  0  0  0  0  0  0  0  0
   67.0195   75.4869   88.3984 O   0  0  0  0  0  0  0  0  0  0  0  0
   67.7058   74.8494   88.4226 H   0  0  0  0  0  0  0  0  0  0  0  0
   68.8974   73.5962   90.9335 C   0  0  0  0  0  0  0  0  0  0  0  0
   68.3098   74.8924   91.0170 O   0  0  0  0  0  0  0  0  0  0  0  0
   70.8003   79.8472   90.0077 O   0  0  0  0  0  0  0  0  0  0  0  0
   70.0929   81.0831   90.1008 C   0  0  0  0  0  0  0  0  0  0  0  0
   70.9813   82.1868   89.5801 C   0  0  0  0  0  0  0  0  0  0  0  0
   72.2841   82.3028   90.0940 C   0  0  0  0  0  0  0  0  0  0  0  0
   73.1483   83.2952   89.6265 C   0  0  0  0  0  0  0  0  0  0  0  0
   72.7379   84.1781   88.6299 C   0  0  0  0  0  0  0  0  0  0  0  0
   71.4503   84.0803   88.0875 C   0  0  0  0  0  0  0  0  0  0  0  0
   71.0442   84.9729   87.0789 C   0  0  0  0  0  0  0  0  0  0  0  0
   69.7616   84.8847   86.5349 C   0  0  0  0  0  0  0  0  0  0  0  0
   68.8685   83.9175   86.9991 C   0  0  0  0  0  0  0  0  0  0  0  0
   69.2513   83.0270   88.0026 C   0  0  0  0  0  0  0  0  0  0  0  0
   70.5527   83.0824   88.5607 C   0  0  0  0  0  0  0  0  0  0  0  0
 11 12  1  0  0  0
 12  1  1  0  0  0
  1  2  2  0  0  0
  2  3  1  0  0  0
  3  4  2  0  0  0
  4 13  1  0  0  0
 13 14  1  0  0  0
 14 15  1  0  0  0
 15 16  2  0  0  0
 16 17  1  0  0  0
 17 18  2  0  0  0
 18 19  1  0  0  0
 19 20  2  0  0  0
 20 21  1  0  0  0
 21 22  2  0  0  0
 22 23  1  0  0  0
 23 24  2  0  0  0
  4  5  1  0  0  0
  5  6  2  0  0  0
  6  7  1  0  0  0
  7  8  2  0  0  0
  7  9  1  0  0  0
  6  1  1  0  0  0
 24 15  1  0  0  0
 24 19  1  0  0  0
  9 10  1  0  0  0
M  END
> <score>
1.153769

> <minimizedAffinity>
-7.84204

$$$$
HIPS5031


 25 27  0  0  0  0  0  0  0  0999 V2000
   68.0566   76.9914   92.6646 O   0  0  0  0  0  0  0  0  0  0  0  0
   68.4774   74.1034   94.9474 C   0  0  0  0  0  0  0  0  0  0  0  0
   68.7379   75.1248   94.0173 C   0  0  0  0  0  0  0  0  0  0  0  0
   67.7274   75.9939   93.5935 C   0  0  0  0  0  0  0  0  0  0  0  0
   66.4287   75.8380   94.1062 C   0  0  0  0  0  0  0  0  0  0  0  0
   66.1605   74.8433   95.0471 C   0  0  0  0  0  0  0  0  0  0  0  0
   67.1740   73.9879   95.4929 C   0  0  0  0  0  0  0  0  0  0  0  0
   66.8547   73.0694   96.4956 O   0  0  0  0  0  0  0  0  0  0  0  0
   65.9802   73.0251   96.8292 H   0  0  0  0  0  0  0  0  0  0  0  0
   69.5202   72.4725   96.3394 O   0  0  0  0  0  0  0  0  0  0  0  0
   69.5762   73.1765   95.2956 C   0  0  0  0  0  0  0  0  0  0  0  0
   70.6591   73.0328   94.4326 O   0  0  0  0  0  0  0  0  0  0  0  0
   70.7098   73.5517   93.6541 H   0  0  0  0  0  0  0  0  0  0  0  0
   69.0918   76.8830   91.6911 C   0  0  0  0  0  0  0  0  0  0  0  0
   68.4734   76.7877   90.3162 C   0  0  0  0  0  0  0  0  0  0  0  0
   68.4516   77.9385   89.5137 C   0  0  0  0  0  0  0  0  0  0  0  0
   67.9115   77.9058   88.2314 C   0  0  0  0  0  0  0  0  0  0  0  0
   67.3834   76.7250   87.7103 C   0  0  0  0  0  0  0  0  0  0  0  0
   66.6610   76.7980   85.9312 Br  0  0  0  0  0  0  0  0  0  0  0  0
   67.3994   75.5437   88.4855 C   0  0  0  0  0  0  0  0  0  0  0  0
   66.8812   74.3344   87.9794 C   0  0  0  0  0  0  0  0  0  0  0  0
   66.9090   73.1719   88.7494 C   0  0  0  0  0  0  0  0  0  0  0  0
   67.4514   73.1926   90.0314 C   0  0  0  0  0  0  0  0  0  0  0  0
   67.9688   74.3767   90.5563 C   0  0  0  0  0  0  0  0  0  0  0  0
   67.9516   75.5705   89.8002 C   0  0  0  0  0  0  0  0  0  0  0  0
 10 11  2  0  0  0
 11 12  1  0  0  0
 11  2  1  0  0  0
  2  3  2  0  0  0
  3  4  1  0  0  0
  4  1  1  0  0  0
  1 14  1  0  0  0
 14 15  1  0  0  0
 15 16  2  0  0  0
 16 17  1  0  0  0
 17 18  2  0  0  0
 18 19  1  0  0  0
 18 20  1  0  0  0
 20 21  2  0  0  0
 21 22  1  0  0  0
 22 23  2  0  0  0
 23 24  1  0  0  0
 24 25  2  0  0  0
  4  5  2  0  0  0
  5  6  1  0  0  0
  6  7  2  0  0  0
  7  8  1  0  0  0
  7  2  1  0  0  0
 25 15  1  0  0  0
 25 20  1  0  0  0
 12 13  1  0  0  0
  8  9  1  0  0  0
M  END
> <score>
-0.584178

> <minimizedAffinity>
-8.41255

$$$$
HIPS5031


 25 27  0  0  0  0  0  0  0  0999 V2000
   68.6023   77.0830   92.8529 O   0  0  0  0  0  0  0  0  0  0  0  0
   68.5968   74.0934   95.0417 C   0  0  0  0  0  0  0  0  0  0  0  0
   69.0169   75.1246   94.1835 C   0  0  0  0  0  0  0  0  0  0  0  0
   68.1157   76.0808   93.7044 C   0  0  0  0  0  0  0  0  0  0  0  0
   66.7661   76.0042   94.0871 C   0  0  0  0  0  0  0  0  0  0  0  0
   66.3393   74.9997   94.9563 C   0  0  0  0  0  0  0  0  0  0  0  0
   67.2422   74.0561   95.4582 C   0  0  0  0  0  0  0  0  0  0  0  0
   66.7641   73.1293   96.3874 O   0  0  0  0  0  0  0  0  0  0  0  0
   65.8607   73.1386   96.6360 H   0  0  0  0  0  0  0  0  0  0  0  0
   69.4432   72.4269   96.5220 O   0  0  0  0  0  0  0  0  0  0  0  0
   69.5888   73.0756   95.4514 C   0  0  0  0  0  0  0  0  0  0  0  0
   70.6658   72.7852   94.6183 O   0  0  0  0  0  0  0  0  0  0  0  0
   70.7827   73.2620   93.8202 H   0  0  0  0  0  0  0  0  0  0  0  0
   69.4549   76.8532   91.7343 C   0  0  0  0  0  0  0  0  0  0  0  0
   68.7295   75.9959   90.7240 C   0  0  0  0  0  0  0  0  0  0  0  0
   68.6962   74.6081   90.9286 C   0  0  0  0  0  0  0  0  0  0  0  0
   68.0273   73.7704   90.0410 C   0  0  0  0  0  0  0  0  0  0  0  0
   67.3680   74.2918   88.9282 C   0  0  0  0  0  0  0  0  0  0  0  0
   66.4813   73.0415   87.7693 Br  0  0  0  0  0  0  0  0  0  0  0  0
   67.3702   75.6858   88.6971 C   0  0  0  0  0  0  0  0  0  0  0  0
   66.7033   76.2398   87.5856 C   0  0  0  0  0  0  0  0  0  0  0  0
   66.7046   77.6179   87.3706 C   0  0  0  0  0  0  0  0  0  0  0  0
   67.3665   78.4651   88.2550 C   0  0  0  0  0  0  0  0  0  0  0  0
   68.0356   77.9419   89.3613 C   0  0  0  0  0  0  0  0  0  0  0  0
   68.0537   76.5496   89.6029 C   0  0  0  0  0  0  0  0  0  0  0  0
 10 11  2  0  0  0
 11 12  1  0  0  0
 11  2  1  0  0  0
  2  3  2  0  0  0
  3  4  1  0  0  0
  4  1  1  0  0  0
  1 14  1  0  0  0
 14 15  1  0  0  0
 15 16  2  0  0  0
 16 17  1  0  0  0
 17 18  2  0  0  0
 18 19  1  0  0  0
 18 20  1  0  0  0
 20 21  2  0  0  0
 21 22  1  0  0  0
 22 23  2  0  0  0
 23 24  1  0  0  0
 24 25  2  0  0  0
  4  5  2  0  0  0
  5  6  1  0  0  0
  6  7  2  0  0  0
  7  8  1  0  0  0
  7  2  1  0  0  0
 25 15  1  0  0  0
 25 20  1  0  0  0
 12 13  1  0  0  0
  8  9  1  0  0  0
M  END
> <score>
-0.584178

> <minimizedAffinity>
-8.26897

$$$$
HIPS5031


 25 27  0  0  0  0  0  0  0  0999 V2000
   68.2535   79.5518   89.6201 O   0  0  0  0  0  0  0  0  0  0  0  0
   69.2993   76.2874   91.0266 C   0  0  0  0  0  0  0  0  0  0  0  0
   69.1870   77.6677   90.7847 C   0  0  0  0  0  0  0  0  0  0  0  0
   68.3170   78.1638   89.8085 C   0  0  0  0  0  0  0  0  0  0  0  0
   67.5453   77.2631   89.0555 C   0  0  0  0  0  0  0  0  0  0  0  0
   67.6294   75.8921   89.3001 C   0  0  0  0  0  0  0  0  0  0  0  0
   68.4796   75.3931   90.2930 C   0  0  0  0  0  0  0  0  0  0  0  0
   68.4531   74.0187   90.5406 O   0  0  0  0  0  0  0  0  0  0  0  0
   67.8966   73.4617   90.0324 H   0  0  0  0  0  0  0  0  0  0  0  0
   70.2383   74.6634   92.4983 O   0  0  0  0  0  0  0  0  0  0  0  0
   70.2915   75.8296   92.0234 C   0  0  0  0  0  0  0  0  0  0  0  0
   71.3334   76.6729   92.3994 O   0  0  0  0  0  0  0  0  0  0  0  0
   71.3817   77.5417   92.0518 H   0  0  0  0  0  0  0  0  0  0  0  0
   69.0862   80.4991   90.2836 C   0  0  0  0  0  0  0  0  0  0  0  0
   69.3652   81.6548   89.3517 C   0  0  0  0  0  0  0  0  0  0  0  0
   68.3324   82.0979   88.5114 C   0  0  0  0  0  0  0  0  0  0  0  0
   68.5257   83.1701   87.6453 C   0  0  0  0  0  0  0  0  0  0  0  0
   69.7508   83.8346   87.5960 C   0  0  0  0  0  0  0  0  0  0  0  0
   69.9051   85.2979   86.3601 Br  0  0  0  0  0  0  0  0  0  0  0  0
   70.8096   83.4235   88.4365 C   0  0  0  0  0  0  0  0  0  0  0  0
   72.0548   84.0839   88.4138 C   0  0  0  0  0  0  0  0  0  0  0  0
   73.0911   83.6756   89.2532 C   0  0  0  0  0  0  0  0  0  0  0  0
   72.9066   82.6074   90.1268 C   0  0  0  0  0  0  0  0  0  0  0  0
   71.6848   81.9359   90.1672 C   0  0  0  0  0  0  0  0  0  0  0  0
   70.6180   82.3256   89.3264 C   0  0  0  0  0  0  0  0  0  0  0  0
 10 11  2  0  0  0
 11 12  1  0  0  0
 11  2  1  0  0  0
  2  3  2  0  0  0
  3  4  1  0  0  0
  4  1  1  0  0  0
  1 14  1  0  0  0
 14 15  1  0  0  0
 15 16  2  0  0  0
 16 17  1  0  0  0
 17 18  2  0  0  0
 18 19  1  0  0  0
 18 20  1  0  0  0
 20 21  2  0  0  0
 21 22  1  0  0  0
 22 23  2  0  0  0
 23 24  1  0  0  0
 24 25  2  0  0  0
  4  5  2  0  0  0
  5  6  1  0  0  0
  6  7  2  0  0  0
  7  8  1  0  0  0
  7  2  1  0  0  0
 25 15  1  0  0  0
 25 20  1  0  0  0
 12 13  1  0  0  0
  8  9  1  0  0  0
M  END
> <score>
-0.584178

> <minimizedAffinity>
-8.01250

$$$$
HIPS5038


 25 27  0  0  0  0  0  0  0  0999 V2000
   67.0041   76.6407   92.0401 N   0  0  0  0  0  0  0  0  0  0  0  0
   66.1650   77.1097   91.8273 H   0  0  0  0  0  0  0  0  0  0  0  0
   68.2070   74.1424   94.5196 C   0  0  0  0  0  0  0  0  0  0  0  0
   68.1505   75.0177   93.4448 C   0  0  0  0  0  0  0  0  0  0  0  0
   67.0231   75.7556   93.1509 C   0  0  0  0  0  0  0  0  0  0  0  0
   65.9088   75.6241   93.9494 C   0  0  0  0  0  0  0  0  0  0  0  0
   65.9299   74.7624   95.0268 C   0  0  0  0  0  0  0  0  0  0  0  0
   67.0673   74.0356   95.3011 C   0  0  0  0  0  0  0  0  0  0  0  0
   67.1415   73.1526   96.3765 O   0  0  0  0  0  0  0  0  0  0  0  0
   66.4021   73.0382   96.9406 H   0  0  0  0  0  0  0  0  0  0  0  0
   69.5854   72.7800   95.9084 O   0  0  0  0  0  0  0  0  0  0  0  0
   69.4053   73.3692   94.8175 C   0  0  0  0  0  0  0  0  0  0  0  0
   70.3957   73.2757   93.8557 O   0  0  0  0  0  0  0  0  0  0  0  0
   70.2891   73.7059   93.0301 H   0  0  0  0  0  0  0  0  0  0  0  0
   68.1555   76.8829   91.2117 C   0  0  0  0  0  0  0  0  0  0  0  0
   67.7500   76.7430   89.7928 C   0  0  0  0  0  0  0  0  0  0  0  0
   67.6504   77.8502   88.9830 C   0  0  0  0  0  0  0  0  0  0  0  0
   67.2731   77.7640   87.6524 C   0  0  0  0  0  0  0  0  0  0  0  0
   66.9939   76.5012   87.1554 C   0  0  0  0  0  0  0  0  0  0  0  0
   67.0811   75.3672   87.9307 C   0  0  0  0  0  0  0  0  0  0  0  0
   67.4655   75.5002   89.2675 C   0  0  0  0  0  0  0  0  0  0  0  0
   67.5567   74.3594   90.0597 O   0  0  0  0  0  0  0  0  0  0  0  0
   67.5495   73.0868   89.4442 C   0  0  0  0  0  0  0  0  0  0  0  0
   66.4531   73.1008   88.3927 C   0  0  0  0  0  0  0  0  0  0  0  0
   66.8056   74.0952   87.4485 O   0  0  0  0  0  0  0  0  0  0  0  0
 11 12  2  0  0  0
 12 13  1  0  0  0
 12  3  1  0  0  0
  3  4  2  0  0  0
  4  5  1  0  0  0
  5  1  1  0  0  0
  1 15  1  0  0  0
 15 16  1  0  0  0
 16 17  2  0  0  0
 17 18  1  0  0  0
 18 19  2  0  0  0
 19 20  1  0  0  0
 20 21  2  0  0  0
 21 22  1  0  0  0
 22 23  1  0  0  0
 23 24  1  0  0  0
 24 25  1  0  0  0
  5  6  2  0  0  0
  6  7  1  0  0  0
  7  8  2  0  0  0
  8  9  1  0  0  0
  8  3  1  0  0  0
 21 16  1  0  0  0
 25 20  1  0  0  0
 13 14  1  0  0  0
  1  2  1  0  0  0
  9 10  1  0  0  0
M  END
> <score>
1.153769

> <minimizedAffinity>
-7.35698

$$$$
HIPS5038


 25 27  0  0  0  0  0  0  0  0999 V2000
   69.6373   80.4442   89.6825 N   0  0  0  0  0  0  0  0  0  0  0  0
   69.3135   80.4723   88.7533 H   0  0  0  0  0  0  0  0  0  0  0  0
   69.2266   77.0836   91.2235 C   0  0  0  0  0  0  0  0  0  0  0  0
   68.9566   78.3231   90.6621 C   0  0  0  0  0  0  0  0  0  0  0  0
   69.9545   79.1821   90.2520 C   0  0  0  0  0  0  0  0  0  0  0  0
   71.2697   78.8022   90.4021 C   0  0  0  0  0  0  0  0  0  0  0  0
   71.5746   77.5762   90.9570 C   0  0  0  0  0  0  0  0  0  0  0  0
   70.5611   76.7347   91.3593 C   0  0  0  0  0  0  0  0  0  0  0  0
   70.8144   75.4865   91.9245 O   0  0  0  0  0  0  0  0  0  0  0  0
   71.6974   75.1957   92.0417 H   0  0  0  0  0  0  0  0  0  0  0  0
   67.3266   76.4900   92.5359 O   0  0  0  0  0  0  0  0  0  0  0  0
   68.1615   76.1868   91.6523 C   0  0  0  0  0  0  0  0  0  0  0  0
   68.0598   74.9401   91.0606 O   0  0  0  0  0  0  0  0  0  0  0  0
   68.6701   74.6854   90.3967 H   0  0  0  0  0  0  0  0  0  0  0  0
   69.7679   81.6834   90.4023 C   0  0  0  0  0  0  0  0  0  0  0  0
   70.7908   82.5142   89.7236 C   0  0  0  0  0  0  0  0  0  0  0  0
   72.0921   82.5209   90.1688 C   0  0  0  0  0  0  0  0  0  0  0  0
   73.0784   83.2842   89.5648 C   0  0  0  0  0  0  0  0  0  0  0  0
   72.7028   84.0554   88.4767 C   0  0  0  0  0  0  0  0  0  0  0  0
   71.4123   84.0780   87.9986 C   0  0  0  0  0  0  0  0  0  0  0  0
   70.4494   83.2928   88.6378 C   0  0  0  0  0  0  0  0  0  0  0  0
   69.1416   83.3087   88.1618 O   0  0  0  0  0  0  0  0  0  0  0  0
   68.8737   83.8709   86.8927 C   0  0  0  0  0  0  0  0  0  0  0  0
   69.6471   85.1754   86.8051 C   0  0  0  0  0  0  0  0  0  0  0  0
   71.0197   84.8442   86.9098 O   0  0  0  0  0  0  0  0  0  0  0  0
 11 12  2  0  0  0
 12 13  1  0  0  0
 12  3  1  0  0  0
  3  4  2  0  0  0
  4  5  1  0  0  0
  5  1  1  0  0  0
  1 15  1  0  0  0
 15 16  1  0  0  0
 16 17  2  0  0  0
 17 18  1  0  0  0
 18 19  2  0  0  0
 19 20  1  0  0  0
 20 21  2  0  0  0
 21 22  1  0  0  0
 22 23  1  0  0  0
 23 24  1  0  0  0
 24 25  1  0  0  0
  5  6  2  0  0  0
  6  7  1  0  0  0
  7  8  2  0  0  0
  8  9  1  0  0  0
  8  3  1  0  0  0
 21 16  1  0  0  0
 25 20  1  0  0  0
 13 14  1  0  0  0
  1  2  1  0  0  0
  9 10  1  0  0  0
M  END
> <score>
1.153769

> <minimizedAffinity>
-7.22499

$$$$
HIPS5038


 25 27  0  0  0  0  0  0  0  0999 V2000
   69.1086   80.9046   89.4629 N   0  0  0  0  0  0  0  0  0  0  0  0
   68.8033   81.1762   88.5672 H   0  0  0  0  0  0  0  0  0  0  0  0
   70.1628   77.6061   90.8212 C   0  0  0  0  0  0  0  0  0  0  0  0
   70.1424   78.9506   90.4802 C   0  0  0  0  0  0  0  0  0  0  0  0
   69.0917   79.5236   89.7951 C   0  0  0  0  0  0  0  0  0  0  0  0
   68.0198   78.7385   89.4330 C   0  0  0  0  0  0  0  0  0  0  0  0
   68.0069   77.3970   89.7558 C   0  0  0  0  0  0  0  0  0  0  0  0
   69.0677   76.8466   90.4407 C   0  0  0  0  0  0  0  0  0  0  0  0
   69.1042   75.4985   90.7915 O   0  0  0  0  0  0  0  0  0  0  0  0
   68.3920   74.9350   90.5612 H   0  0  0  0  0  0  0  0  0  0  0  0
   72.4345   76.9245   91.0661 O   0  0  0  0  0  0  0  0  0  0  0  0
   71.2803   77.0148   91.5452 C   0  0  0  0  0  0  0  0  0  0  0  0
   71.0656   76.5281   92.8227 O   0  0  0  0  0  0  0  0  0  0  0  0
   70.2129   76.5818   93.2073 H   0  0  0  0  0  0  0  0  0  0  0  0
   69.5518   81.9245   90.3761 C   0  0  0  0  0  0  0  0  0  0  0  0
   70.6582   82.6768   89.7378 C   0  0  0  0  0  0  0  0  0  0  0  0
   71.9506   82.5303   90.1847 C   0  0  0  0  0  0  0  0  0  0  0  0
   73.0133   83.2157   89.6179 C   0  0  0  0  0  0  0  0  0  0  0  0
   72.7249   84.0700   88.5658 C   0  0  0  0  0  0  0  0  0  0  0  0
   71.4464   84.2460   88.0874 C   0  0  0  0  0  0  0  0  0  0  0  0
   70.4046   83.5348   88.6885 C   0  0  0  0  0  0  0  0  0  0  0  0
   69.1081   83.7058   88.2119 O   0  0  0  0  0  0  0  0  0  0  0  0
   68.9066   84.3497   86.9695 C   0  0  0  0  0  0  0  0  0  0  0  0
   69.8095   85.5711   86.9432 C   0  0  0  0  0  0  0  0  0  0  0  0
   71.1405   85.0970   87.0345 O   0  0  0  0  0  0  0  0  0  0  0  0
 11 12  2  0  0  0
 12 13  1  0  0  0
 12  3  1  0  0  0
  3  4  2  0  0  0
  4  5  1  0  0  0
  5  1  1  0  0  0
  1 15  1  0  0  0
 15 16  1  0  0  0
 16 17  2  0  0  0
 17 18  1  0  0  0
 18 19  2  0  0  0
 19 20  1  0  0  0
 20 21  2  0  0  0
 21 22  1  0  0  0
 22 23  1  0  0  0
 23 24  1  0  0  0
 24 25  1  0  0  0
  5  6  2  0  0  0
  6  7  1  0  0  0
  7  8  2  0  0  0
  8  9  1  0  0  0
  8  3  1  0  0  0
 21 16  1  0  0  0
 25 20  1  0  0  0
 13 14  1  0  0  0
  1  2  1  0  0  0
  9 10  1  0  0  0
M  END
> <score>
1.153769

> <minimizedAffinity>
-7.19810

$$$$
HIPS5039


 25 27  0  0  0  0  0  0  0  0999 V2000
   68.2460   77.0991   92.4091 N   0  0  0  0  0  0  0  0  0  0  0  0
   67.8426   77.9881   92.5359 H   0  0  0  0  0  0  0  0  0  0  0  0
   68.5459   74.1369   94.7383 C   0  0  0  0  0  0  0  0  0  0  0  0
   68.8723   75.1209   93.7860 C   0  0  0  0  0  0  0  0  0  0  0  0
   67.9234   76.0722   93.3681 C   0  0  0  0  0  0  0  0  0  0  0  0
   66.6289   76.0177   93.8994 C   0  0  0  0  0  0  0  0  0  0  0  0
   66.2882   75.0450   94.8387 C   0  0  0  0  0  0  0  0  0  0  0  0
   67.2353   74.1055   95.2666 C   0  0  0  0  0  0  0  0  0  0  0  0
   66.8692   73.1484   96.2133 O   0  0  0  0  0  0  0  0  0  0  0  0
   65.9972   73.1381   96.5559 H   0  0  0  0  0  0  0  0  0  0  0  0
   69.5033   72.5653   96.2667 O   0  0  0  0  0  0  0  0  0  0  0  0
   69.5872   73.1648   95.1612 C   0  0  0  0  0  0  0  0  0  0  0  0
   70.6775   72.9046   94.3337 O   0  0  0  0  0  0  0  0  0  0  0  0
   70.7545   73.3421   93.5087 H   0  0  0  0  0  0  0  0  0  0  0  0
   69.1329   76.9101   91.2594 C   0  0  0  0  0  0  0  0  0  0  0  0
   68.3343   76.6401   90.0082 C   0  0  0  0  0  0  0  0  0  0  0  0
   68.0062   77.6991   89.1317 C   0  0  0  0  0  0  0  0  0  0  0  0
   67.2619   77.4605   87.9571 C   0  0  0  0  0  0  0  0  0  0  0  0
   66.8248   76.1638   87.6415 C   0  0  0  0  0  0  0  0  0  0  0  0
   67.1452   75.1347   88.5235 C   0  0  0  0  0  0  0  0  0  0  0  0
   66.8166   73.8381   88.4059 N   0  0  0  0  0  0  0  0  0  0  0  0
   67.3344   73.2243   89.4922 C   0  0  0  0  0  0  0  0  0  0  0  0
   67.9953   74.1372   90.3052 C   0  0  0  0  0  0  0  0  0  0  0  0
   67.8681   75.3591   89.6692 C   0  0  0  0  0  0  0  0  0  0  0  0
   66.3032   73.4203   87.6772 H   0  0  0  0  0  0  0  0  0  0  0  0
 11 12  2  0  0  0
 12 13  1  0  0  0
 12  3  1  0  0  0
  3  4  2  0  0  0
  4  5  1  0  0  0
  5  1  1  0  0  0
  1 15  1  0  0  0
 15 16  1  0  0  0
 16 17  2  0  0  0
 17 18  1  0  0  0
 18 19  2  0  0  0
 19 20  1  0  0  0
 20 21  1  0  0  0
 21 22  1  0  0  0
 22 23  2  0  0  0
 23 24  1  0  0  0
  5  6  2  0  0  0
  6  7  1  0  0  0
  7  8  2  0  0  0
  8  9  1  0  0  0
  8  3  1  0  0  0
 24 16  1  0  0  0
 24 20  2  0  0  0
 13 14  1  0  0  0
  1  2  1  0  0  0
 21 25  1  0  0  0
  9 10  1  0  0  0
M  END
> <score>
1.153769

> <minimizedAffinity>
-7.36224

$$$$
HIPS5039


 25 27  0  0  0  0  0  0  0  0999 V2000
   68.1315   77.1708   92.5017 N   0  0  0  0  0  0  0  0  0  0  0  0
   67.7278   78.0556   92.6545 H   0  0  0  0  0  0  0  0  0  0  0  0
   68.5027   74.1776   94.7804 C   0  0  0  0  0  0  0  0  0  0  0  0
   68.8028   75.1803   93.8391 C   0  0  0  0  0  0  0  0  0  0  0  0
   67.8358   76.1251   93.4490 C   0  0  0  0  0  0  0  0  0  0  0  0
   66.5496   76.0451   93.9969 C   0  0  0  0  0  0  0  0  0  0  0  0
   66.2348   75.0536   94.9255 C   0  0  0  0  0  0  0  0  0  0  0  0
   67.2001   74.1204   95.3259 C   0  0  0  0  0  0  0  0  0  0  0  0
   66.8598   73.1442   96.2625 O   0  0  0  0  0  0  0  0  0  0  0  0
   65.9928   73.1168   96.6167 H   0  0  0  0  0  0  0  0  0  0  0  0
   69.5003   72.5935   96.2696 O   0  0  0  0  0  0  0  0  0  0  0  0
   69.5625   73.2132   95.1739 C   0  0  0  0  0  0  0  0  0  0  0  0
   70.6463   72.9828   94.3292 O   0  0  0  0  0  0  0  0  0  0  0  0
   70.7072   73.4356   93.5111 H   0  0  0  0  0  0  0  0  0  0  0  0
   68.9915   77.0068   91.3279 C   0  0  0  0  0  0  0  0  0  0  0  0
   68.2623   76.2714   90.2309 C   0  0  0  0  0  0  0  0  0  0  0  0
   68.1248   74.8659   90.2865 C   0  0  0  0  0  0  0  0  0  0  0  0
   67.4435   74.1658   89.2685 C   0  0  0  0  0  0  0  0  0  0  0  0
   66.8956   74.8542   88.1740 C   0  0  0  0  0  0  0  0  0  0  0  0
   67.0525   76.2374   88.1286 C   0  0  0  0  0  0  0  0  0  0  0  0
   66.6119   77.0695   87.1712 N   0  0  0  0  0  0  0  0  0  0  0  0
   66.9997   78.3073   87.5485 C   0  0  0  0  0  0  0  0  0  0  0  0
   67.6918   78.2607   88.7526 C   0  0  0  0  0  0  0  0  0  0  0  0
   67.7153   76.9257   89.1146 C   0  0  0  0  0  0  0  0  0  0  0  0
   66.1092   76.8271   86.3602 H   0  0  0  0  0  0  0  0  0  0  0  0
 11 12  2  0  0  0
 12 13  1  0  0  0
 12  3  1  0  0  0
  3  4  2  0  0  0
  4  5  1  0  0  0
  5  1  1  0  0  0
  1 15  1  0  0  0
 15 16  1  0  0  0
 16 17  2  0  0  0
 17 18  1  0  0  0
 18 19  2  0  0  0
 19 20  1  0  0  0
 20 21  1  0  0  0
 21 22  1  0  0  0
 22 23  2  0  0  0
 23 24  1  0  0  0
  5  6  2  0  0  0
  6  7  1  0  0  0
  7  8  2  0  0  0
  8  9  1  0  0  0
  8  3  1  0  0  0
 24 16  1  0  0  0
 24 20  2  0  0  0
 13 14  1  0  0  0
  1  2  1  0  0  0
 21 25  1  0  0  0
  9 10  1  0  0  0
M  END
> <score>
1.153769

> <minimizedAffinity>
-7.31138

$$$$
HIPS5039


 25 27  0  0  0  0  0  0  0  0999 V2000
   70.0138   75.3999   92.1549 N   0  0  0  0  0  0  0  0  0  0  0  0
   70.9507   75.0979   92.1370 H   0  0  0  0  0  0  0  0  0  0  0  0
   67.5429   75.0771   89.3124 C   0  0  0  0  0  0  0  0  0  0  0  0
   68.4081   75.6440   90.2673 C   0  0  0  0  0  0  0  0  0  0  0  0
   69.1085   74.8381   91.1838 C   0  0  0  0  0  0  0  0  0  0  0  0
   68.9187   73.4511   91.1507 C   0  0  0  0  0  0  0  0  0  0  0  0
   68.0600   72.8750   90.2151 C   0  0  0  0  0  0  0  0  0  0  0  0
   67.3723   73.6742   89.2925 C   0  0  0  0  0  0  0  0  0  0  0  0
   66.5257   73.0704   88.3626 O   0  0  0  0  0  0  0  0  0  0  0  0
   66.4211   72.1392   88.3597 H   0  0  0  0  0  0  0  0  0  0  0  0
   66.1040   76.9073   88.7623 O   0  0  0  0  0  0  0  0  0  0  0  0
   66.8388   75.9681   88.3540 C   0  0  0  0  0  0  0  0  0  0  0  0
   66.9833   75.7722   86.9822 O   0  0  0  0  0  0  0  0  0  0  0  0
   67.5259   75.0784   86.6626 H   0  0  0  0  0  0  0  0  0  0  0  0
   69.6350   76.3889   93.1662 C   0  0  0  0  0  0  0  0  0  0  0  0
   68.3206   76.0193   93.8078 C   0  0  0  0  0  0  0  0  0  0  0  0
   67.1622   76.7865   93.5487 C   0  0  0  0  0  0  0  0  0  0  0  0
   65.9262   76.4508   94.1403 C   0  0  0  0  0  0  0  0  0  0  0  0
   65.8263   75.3503   95.0069 C   0  0  0  0  0  0  0  0  0  0  0  0
   66.9807   74.6140   95.2618 C   0  0  0  0  0  0  0  0  0  0  0  0
   67.0944   73.5403   96.0601 N   0  0  0  0  0  0  0  0  0  0  0  0
   68.3922   73.1700   96.0011 C   0  0  0  0  0  0  0  0  0  0  0  0
   69.1073   74.0146   95.1606 C   0  0  0  0  0  0  0  0  0  0  0  0
   68.1875   74.9350   94.6909 C   0  0  0  0  0  0  0  0  0  0  0  0
   66.3784   73.1108   96.5818 H   0  0  0  0  0  0  0  0  0  0  0  0
 11 12  2  0  0  0
 12 13  1  0  0  0
 12  3  1  0  0  0
  3  4  2  0  0  0
  4  5  1  0  0  0
  5  1  1  0  0  0
  1 15  1  0  0  0
 15 16  1  0  0  0
 16 17  2  0  0  0
 17 18  1  0  0  0
 18 19  2  0  0  0
 19 20  1  0  0  0
 20 21  1  0  0  0
 21 22  1  0  0  0
 22 23  2  0  0  0
 23 24  1  0  0  0
  5  6  2  0  0  0
  6  7  1  0  0  0
  7  8  2  0  0  0
  8  9  1  0  0  0
  8  3  1  0  0  0
 24 16  1  0  0  0
 24 20  2  0  0  0
 13 14  1  0  0  0
  1  2  1  0  0  0
 21 25  1  0  0  0
  9 10  1  0  0  0
M  END
> <score>
1.153769

> <minimizedAffinity>
-7.13176

$$$$
HIPS505


 32 34  0  0  0  0  0  0  0  0999 V2000
   67.7179   74.1851   93.2501 C   0  0  0  0  0  0  0  0  0  0  0  0
   67.9083   74.8760   92.0391 C   0  0  0  0  0  0  0  0  0  0  0  0
   67.2156   76.0851   91.9662 C   0  0  0  0  0  0  0  0  0  0  0  0
   66.3602   76.2733   93.4069 S   0  0  0  0  0  0  0  0  0  0  0  0
   66.8581   74.8418   94.1356 C   0  0  0  0  0  0  0  0  0  0  0  0
   67.2067   77.0361   90.8248 C   0  0  0  0  0  0  0  0  0  0  0  0
   67.2480   78.4232   91.0432 C   0  0  0  0  0  0  0  0  0  0  0  0
   67.2377   79.3106   89.9676 C   0  0  0  0  0  0  0  0  0  0  0  0
   67.1837   78.8360   88.6547 C   0  0  0  0  0  0  0  0  0  0  0  0
   67.1744   80.0179   87.3481 Cl  0  0  0  0  0  0  0  0  0  0  0  0
   67.1364   77.4465   88.4066 C   0  0  0  0  0  0  0  0  0  0  0  0
   67.1473   76.5594   89.5020 C   0  0  0  0  0  0  0  0  0  0  0  0
   67.0769   76.9183   86.9885 C   0  0  0  0  0  0  0  0  0  0  0  0
   67.0151   75.5366   87.0104 F   0  0  0  0  0  0  0  0  0  0  0  0
   68.2092   77.3121   86.2985 F   0  0  0  0  0  0  0  0  0  0  0  0
   65.9684   77.3908   86.3068 F   0  0  0  0  0  0  0  0  0  0  0  0
   70.1739   73.6396   94.6345 O   0  0  0  0  0  0  0  0  0  0  0  0
   69.5649   72.6795   94.0879 C   0  0  0  0  0  0  0  0  0  0  0  0
   70.1498   71.3703   94.0799 N   0  0  0  0  0  0  0  0  0  0  0  0
   68.2726   72.8838   93.4996 N   0  0  0  0  0  0  0  0  0  0  0  0
   69.6349   70.6235   93.6973 H   0  0  0  0  0  0  0  0  0  0  0  0
   67.7395   72.0931   93.2549 H   0  0  0  0  0  0  0  0  0  0  0  0
   71.4809   71.1034   94.6182 C   0  0  0  0  0  0  0  0  0  0  0  0
   72.3714   70.5656   93.5433 C   0  0  0  0  0  0  0  0  0  0  0  0
   72.0610   69.5419   92.6709 C   0  0  0  0  0  0  0  0  0  0  0  0
   73.1803   69.3746   91.8845 C   0  0  0  0  0  0  0  0  0  0  0  0
   74.1017   70.3029   92.3265 C   0  0  0  0  0  0  0  0  0  0  0  0
   73.5907   70.9968   93.3175 O   0  0  0  0  0  0  0  0  0  0  0  0
   66.4696   74.4277   95.4947 C   0  0  0  0  0  0  0  0  0  0  0  0
   65.9299   75.2608   96.2708 O   0  0  0  0  0  0  0  0  0  0  0  0
   66.7144   73.1338   95.9432 O   0  0  0  0  0  0  0  0  0  0  0  0
   67.1153   72.5081   95.3724 H   0  0  0  0  0  0  0  0  0  0  0  0
 17 18  2  0  0  0
 18 19  1  0  0  0
 19 23  1  0  0  0
 23 24  1  0  0  0
 24 25  2  0  0  0
 25 26  1  0  0  0
 26 27  2  0  0  0
 27 28  1  0  0  0
 18 20  1  0  0  0
 20  1  1  0  0  0
  1  2  1  0  0  0
  2  3  2  0  0  0
  3  6  1  0  0  0
  6  7  2  0  0  0
  7  8  1  0  0  0
  8  9  2  0  0  0
  9 10  1  0  0  0
  9 11  1  0  0  0
 11 13  1  0  0  0
 13 14  1  0  0  0
 13 15  1  0  0  0
 13 16  1  0  0  0
 11 12  2  0  0  0
  3  4  1  0  0  0
  4  5  1  0  0  0
  5 29  1  0  0  0
 29 30  2  0  0  0
 29 31  1  0  0  0
 28 24  1  0  0  0
  5  1  2  0  0  0
 12  6  1  0  0  0
 19 21  1  0  0  0
 20 22  1  0  0  0
 31 32  1  0  0  0
M  END
> <score>
-0.479346

> <minimizedAffinity>
-8.08537

$$$$
HIPS505


 32 34  0  0  0  0  0  0  0  0999 V2000
   69.4384   78.3806   90.5121 C   0  0  0  0  0  0  0  0  0  0  0  0
   69.0954   79.6395   89.9852 C   0  0  0  0  0  0  0  0  0  0  0  0
   70.1781   80.5105   89.8585 C   0  0  0  0  0  0  0  0  0  0  0  0
   71.5503   79.7072   90.4192 S   0  0  0  0  0  0  0  0  0  0  0  0
   70.7969   78.2578   90.8190 C   0  0  0  0  0  0  0  0  0  0  0  0
   70.1417   81.9037   89.3437 C   0  0  0  0  0  0  0  0  0  0  0  0
   71.1884   82.7998   89.6172 C   0  0  0  0  0  0  0  0  0  0  0  0
   71.1475   84.1066   89.1324 C   0  0  0  0  0  0  0  0  0  0  0  0
   70.0641   84.5481   88.3686 C   0  0  0  0  0  0  0  0  0  0  0  0
   70.0835   86.2123   87.7909 Cl  0  0  0  0  0  0  0  0  0  0  0  0
   68.9959   83.6696   88.0828 C   0  0  0  0  0  0  0  0  0  0  0  0
   69.0486   82.3510   88.5784 C   0  0  0  0  0  0  0  0  0  0  0  0
   67.8151   84.1351   87.2568 C   0  0  0  0  0  0  0  0  0  0  0  0
   66.9430   83.0799   87.0584 F   0  0  0  0  0  0  0  0  0  0  0  0
   68.2591   84.5950   86.0302 F   0  0  0  0  0  0  0  0  0  0  0  0
   67.1213   85.1596   87.8779 F   0  0  0  0  0  0  0  0  0  0  0  0
   67.5505   78.4268   92.6753 O   0  0  0  0  0  0  0  0  0  0  0  0
   67.6306   77.3850   91.9684 C   0  0  0  0  0  0  0  0  0  0  0  0
   66.8631   76.2237   92.3124 N   0  0  0  0  0  0  0  0  0  0  0  0
   68.4640   77.3656   90.8008 N   0  0  0  0  0  0  0  0  0  0  0  0
   66.8972   75.4399   91.7177 H   0  0  0  0  0  0  0  0  0  0  0  0
   68.3630   76.6197   90.1662 H   0  0  0  0  0  0  0  0  0  0  0  0
   66.0328   76.1603   93.5121 C   0  0  0  0  0  0  0  0  0  0  0  0
   66.6050   75.1752   94.4814 C   0  0  0  0  0  0  0  0  0  0  0  0
   65.9772   74.6931   95.6124 C   0  0  0  0  0  0  0  0  0  0  0  0
   66.8844   73.8403   96.2032 C   0  0  0  0  0  0  0  0  0  0  0  0
   68.0065   73.8569   95.3991 C   0  0  0  0  0  0  0  0  0  0  0  0
   67.8100   74.6635   94.3814 O   0  0  0  0  0  0  0  0  0  0  0  0
   71.5028   77.0773   91.3458 C   0  0  0  0  0  0  0  0  0  0  0  0
   72.6893   76.8485   90.9884 O   0  0  0  0  0  0  0  0  0  0  0  0
   70.8676   76.1952   92.2139 O   0  0  0  0  0  0  0  0  0  0  0  0
   69.9854   76.3579   92.4845 H   0  0  0  0  0  0  0  0  0  0  0  0
 17 18  2  0  0  0
 18 19  1  0  0  0
 19 23  1  0  0  0
 23 24  1  0  0  0
 24 25  2  0  0  0
 25 26  1  0  0  0
 26 27  2  0  0  0
 27 28  1  0  0  0
 18 20  1  0  0  0
 20  1  1  0  0  0
  1  2  1  0  0  0
  2  3  2  0  0  0
  3  6  1  0  0  0
  6  7  2  0  0  0
  7  8  1  0  0  0
  8  9  2  0  0  0
  9 10  1  0  0  0
  9 11  1  0  0  0
 11 13  1  0  0  0
 13 14  1  0  0  0
 13 15  1  0  0  0
 13 16  1  0  0  0
 11 12  2  0  0  0
  3  4  1  0  0  0
  4  5  1  0  0  0
  5 29  1  0  0  0
 29 30  2  0  0  0
 29 31  1  0  0  0
 28 24  1  0  0  0
  5  1  2  0  0  0
 12  6  1  0  0  0
 19 21  1  0  0  0
 20 22  1  0  0  0
 31 32  1  0  0  0
M  END
> <score>
-0.479346

> <minimizedAffinity>
-7.98007

$$$$
HIPS505


 32 34  0  0  0  0  0  0  0  0999 V2000
   69.2929   78.3819   90.5145 C   0  0  0  0  0  0  0  0  0  0  0  0
   68.8910   79.5960   89.9277 C   0  0  0  0  0  0  0  0  0  0  0  0
   69.9308   80.5112   89.7597 C   0  0  0  0  0  0  0  0  0  0  0  0
   71.3387   79.8029   90.3588 S   0  0  0  0  0  0  0  0  0  0  0  0
   70.6548   78.3397   90.8275 C   0  0  0  0  0  0  0  0  0  0  0  0
   69.8287   81.8748   89.1786 C   0  0  0  0  0  0  0  0  0  0  0  0
   68.5978   82.3706   88.7176 C   0  0  0  0  0  0  0  0  0  0  0  0
   68.5090   83.6506   88.1717 C   0  0  0  0  0  0  0  0  0  0  0  0
   69.6426   84.4612   88.0716 C   0  0  0  0  0  0  0  0  0  0  0  0
   69.4518   86.0665   87.3711 Cl  0  0  0  0  0  0  0  0  0  0  0  0
   70.8936   83.9860   88.5228 C   0  0  0  0  0  0  0  0  0  0  0  0
   70.9708   82.6903   89.0727 C   0  0  0  0  0  0  0  0  0  0  0  0
   72.1305   84.8536   88.4197 C   0  0  0  0  0  0  0  0  0  0  0  0
   72.5602   84.8946   87.1055 F   0  0  0  0  0  0  0  0  0  0  0  0
   73.1351   84.3256   89.2104 F   0  0  0  0  0  0  0  0  0  0  0  0
   71.8882   86.1512   88.8369 F   0  0  0  0  0  0  0  0  0  0  0  0
   67.4359   78.4183   92.7044 O   0  0  0  0  0  0  0  0  0  0  0  0
   67.5511   77.3582   92.0305 C   0  0  0  0  0  0  0  0  0  0  0  0
   66.8398   76.1769   92.4240 N   0  0  0  0  0  0  0  0  0  0  0  0
   68.3677   77.3360   90.8512 N   0  0  0  0  0  0  0  0  0  0  0  0
   66.8994   75.3761   91.8545 H   0  0  0  0  0  0  0  0  0  0  0  0
   68.2902   76.5659   90.2428 H   0  0  0  0  0  0  0  0  0  0  0  0
   66.0303   76.1175   93.6380 C   0  0  0  0  0  0  0  0  0  0  0  0
   66.6112   75.1252   94.5948 C   0  0  0  0  0  0  0  0  0  0  0  0
   65.9958   74.6388   95.7306 C   0  0  0  0  0  0  0  0  0  0  0  0
   66.9074   73.7799   96.3056 C   0  0  0  0  0  0  0  0  0  0  0  0
   68.0196   73.7976   95.4879 C   0  0  0  0  0  0  0  0  0  0  0  0
   67.8132   74.6105   94.4772 O   0  0  0  0  0  0  0  0  0  0  0  0
   71.4154   77.2212   91.4105 C   0  0  0  0  0  0  0  0  0  0  0  0
   70.9080   76.5388   92.3403 O   0  0  0  0  0  0  0  0  0  0  0  0
   72.6995   76.9235   90.9657 O   0  0  0  0  0  0  0  0  0  0  0  0
   73.0842   77.4261   90.2748 H   0  0  0  0  0  0  0  0  0  0  0  0
 17 18  2  0  0  0
 18 19  1  0  0  0
 19 23  1  0  0  0
 23 24  1  0  0  0
 24 25  2  0  0  0
 25 26  1  0  0  0
 26 27  2  0  0  0
 27 28  1  0  0  0
 18 20  1  0  0  0
 20  1  1  0  0  0
  1  2  1  0  0  0
  2  3  2  0  0  0
  3  6  1  0  0  0
  6  7  2  0  0  0
  7  8  1  0  0  0
  8  9  2  0  0  0
  9 10  1  0  0  0
  9 11  1  0  0  0
 11 13  1  0  0  0
 13 14  1  0  0  0
 13 15  1  0  0  0
 13 16  1  0  0  0
 11 12  2  0  0  0
  3  4  1  0  0  0
  4  5  1  0  0  0
  5 29  1  0  0  0
 29 30  2  0  0  0
 29 31  1  0  0  0
 28 24  1  0  0  0
  5  1  2  0  0  0
 12  6  1  0  0  0
 19 21  1  0  0  0
 20 22  1  0  0  0
 31 32  1  0  0  0
M  END
> <score>
-0.479346

> <minimizedAffinity>
-7.84566

$$$$
HIPS5076


 20 22  0  0  0  0  0  0  0  0999 V2000
   70.0713   76.5542   93.2612 C   0  0  0  0  0  0  0  0  0  0  0  0
   68.5715   76.5858   93.5092 C   0  0  0  0  0  0  0  0  0  0  0  0
   67.8002   77.6252   92.9511 C   0  0  0  0  0  0  0  0  0  0  0  0
   66.4201   77.6749   93.1363 C   0  0  0  0  0  0  0  0  0  0  0  0
   65.7779   76.7056   93.9006 C   0  0  0  0  0  0  0  0  0  0  0  0
   66.5170   75.6861   94.5131 C   0  0  0  0  0  0  0  0  0  0  0  0
   65.8621   74.7330   95.3092 C   0  0  0  0  0  0  0  0  0  0  0  0
   66.5898   73.7305   95.9492 C   0  0  0  0  0  0  0  0  0  0  0  0
   67.9752   73.6743   95.8088 C   0  0  0  0  0  0  0  0  0  0  0  0
   68.6437   74.6117   95.0174 C   0  0  0  0  0  0  0  0  0  0  0  0
   67.9280   75.6251   94.3402 C   0  0  0  0  0  0  0  0  0  0  0  0
   70.4422   75.5958   92.2675 O   0  0  0  0  0  0  0  0  0  0  0  0
   66.7823   72.7736   89.0881 O   0  0  0  0  0  0  0  0  0  0  0  0
   67.6991   73.4528   89.8873 C   0  0  0  0  0  0  0  0  0  0  0  0
   68.4771   72.7633   90.8265 C   0  0  0  0  0  0  0  0  0  0  0  0
   69.3944   73.4550   91.6237 C   0  0  0  0  0  0  0  0  0  0  0  0
   69.5414   74.8502   91.4885 C   0  0  0  0  0  0  0  0  0  0  0  0
   68.7594   75.5301   90.5468 C   0  0  0  0  0  0  0  0  0  0  0  0
   67.8434   74.8365   89.7502 C   0  0  0  0  0  0  0  0  0  0  0  0
   66.6812   71.8462   89.1756 H   0  0  0  0  0  0  0  0  0  0  0  0
 13 14  1  0  0  0
 14 15  2  0  0  0
 15 16  1  0  0  0
 16 17  2  0  0  0
 17 12  1  0  0  0
 12  1  1  0  0  0
  1  2  1  0  0  0
  2  3  2  0  0  0
  3  4  1  0  0  0
  4  5  2  0  0  0
  5  6  1  0  0  0
  6  7  2  0  0  0
  7  8  1  0  0  0
  8  9  2  0  0  0
  9 10  1  0  0  0
 10 11  2  0  0  0
 17 18  1  0  0  0
 18 19  2  0  0  0
 19 14  1  0  0  0
 11  2  1  0  0  0
 11  6  1  0  0  0
 13 20  1  0  0  0
M  END
> <score>
-0.008624

> <minimizedAffinity>
-7.79644

$$$$
HIPS5076


 20 22  0  0  0  0  0  0  0  0999 V2000
   69.6932   81.5623   90.2769 C   0  0  0  0  0  0  0  0  0  0  0  0
   70.7081   82.4898   89.6276 C   0  0  0  0  0  0  0  0  0  0  0  0
   72.0367   82.4988   90.0982 C   0  0  0  0  0  0  0  0  0  0  0  0
   73.0006   83.3175   89.5134 C   0  0  0  0  0  0  0  0  0  0  0  0
   72.6605   84.1638   88.4626 C   0  0  0  0  0  0  0  0  0  0  0  0
   71.3397   84.2200   88.0012 C   0  0  0  0  0  0  0  0  0  0  0  0
   71.0018   85.1022   86.9625 C   0  0  0  0  0  0  0  0  0  0  0  0
   69.6845   85.1900   86.5141 C   0  0  0  0  0  0  0  0  0  0  0  0
   68.6924   84.4071   87.1015 C   0  0  0  0  0  0  0  0  0  0  0  0
   69.0106   83.5206   88.1334 C   0  0  0  0  0  0  0  0  0  0  0  0
   70.3416   83.3961   88.5924 C   0  0  0  0  0  0  0  0  0  0  0  0
   69.6363   80.2825   89.6423 O   0  0  0  0  0  0  0  0  0  0  0  0
   70.7634   75.3870   92.1387 O   0  0  0  0  0  0  0  0  0  0  0  0
   70.5078   76.6052   91.5133 C   0  0  0  0  0  0  0  0  0  0  0  0
   71.5585   77.3892   91.0191 C   0  0  0  0  0  0  0  0  0  0  0  0
   71.2905   78.6106   90.3931 C   0  0  0  0  0  0  0  0  0  0  0  0
   69.9622   79.0614   90.2562 C   0  0  0  0  0  0  0  0  0  0  0  0
   68.9191   78.2703   90.7532 C   0  0  0  0  0  0  0  0  0  0  0  0
   69.1891   77.0492   91.3781 C   0  0  0  0  0  0  0  0  0  0  0  0
   71.6452   75.0843   92.2321 H   0  0  0  0  0  0  0  0  0  0  0  0
 13 14  1  0  0  0
 14 15  2  0  0  0
 15 16  1  0  0  0
 16 17  2  0  0  0
 17 12  1  0  0  0
 12  1  1  0  0  0
  1  2  1  0  0  0
  2  3  2  0  0  0
  3  4  1  0  0  0
  4  5  2  0  0  0
  5  6  1  0  0  0
  6  7  2  0  0  0
  7  8  1  0  0  0
  8  9  2  0  0  0
  9 10  1  0  0  0
 10 11  2  0  0  0
 17 18  1  0  0  0
 18 19  2  0  0  0
 19 14  1  0  0  0
 11  2  1  0  0  0
 11  6  1  0  0  0
 13 20  1  0  0  0
M  END
> <score>
-0.008624

> <minimizedAffinity>
-7.75947

$$$$
HIPS5076


 20 22  0  0  0  0  0  0  0  0999 V2000
   69.1051   76.9347   91.4556 C   0  0  0  0  0  0  0  0  0  0  0  0
   68.3178   76.6958   90.1769 C   0  0  0  0  0  0  0  0  0  0  0  0
   67.9651   77.7940   89.3668 C   0  0  0  0  0  0  0  0  0  0  0  0
   67.2647   77.6128   88.1760 C   0  0  0  0  0  0  0  0  0  0  0  0
   66.8779   76.3379   87.7748 C   0  0  0  0  0  0  0  0  0  0  0  0
   67.1657   75.2278   88.5783 C   0  0  0  0  0  0  0  0  0  0  0  0
   66.7410   73.9504   88.1793 C   0  0  0  0  0  0  0  0  0  0  0  0
   66.9946   72.8408   88.9847 C   0  0  0  0  0  0  0  0  0  0  0  0
   67.6648   72.9953   90.1968 C   0  0  0  0  0  0  0  0  0  0  0  0
   68.0984   74.2580   90.6083 C   0  0  0  0  0  0  0  0  0  0  0  0
   67.8736   75.3962   89.8010 C   0  0  0  0  0  0  0  0  0  0  0  0
   68.2593   77.1755   92.5827 O   0  0  0  0  0  0  0  0  0  0  0  0
   66.6472   73.2095   96.2075 O   0  0  0  0  0  0  0  0  0  0  0  0
   67.0235   74.1993   95.3025 C   0  0  0  0  0  0  0  0  0  0  0  0
   66.0616   74.8691   94.5350 C   0  0  0  0  0  0  0  0  0  0  0  0
   66.4505   75.8610   93.6293 C   0  0  0  0  0  0  0  0  0  0  0  0
   67.8123   76.1926   93.4817 C   0  0  0  0  0  0  0  0  0  0  0  0
   68.7660   75.5176   94.2535 C   0  0  0  0  0  0  0  0  0  0  0  0
   68.3750   74.5267   95.1590 C   0  0  0  0  0  0  0  0  0  0  0  0
   65.7429   72.9858   96.3080 H   0  0  0  0  0  0  0  0  0  0  0  0
 13 14  1  0  0  0
 14 15  2  0  0  0
 15 16  1  0  0  0
 16 17  2  0  0  0
 17 12  1  0  0  0
 12  1  1  0  0  0
  1  2  1  0  0  0
  2  3  2  0  0  0
  3  4  1  0  0  0
  4  5  2  0  0  0
  5  6  1  0  0  0
  6  7  2  0  0  0
  7  8  1  0  0  0
  8  9  2  0  0  0
  9 10  1  0  0  0
 10 11  2  0  0  0
 17 18  1  0  0  0
 18 19  2  0  0  0
 19 14  1  0  0  0
 11  2  1  0  0  0
 11  6  1  0  0  0
 13 20  1  0  0  0
M  END
> <score>
-0.008624

> <minimizedAffinity>
-7.62118

$$$$
HIPS5160


 28 30  0  0  0  0  0  0  0  0999 V2000
   69.3572   72.0444   93.9063 N   0  0  0  0  0  0  0  0  0  0  0  0
   68.5489   71.6506   94.3074 H   0  0  0  0  0  0  0  0  0  0  0  0
   72.4392   70.2865   92.6736 C   0  0  0  0  0  0  0  0  0  0  0  0
   71.5736   71.1154   93.4124 C   0  0  0  0  0  0  0  0  0  0  0  0
   70.2034   71.1849   93.1170 C   0  0  0  0  0  0  0  0  0  0  0  0
   69.6953   70.4153   92.0573 C   0  0  0  0  0  0  0  0  0  0  0  0
   70.5406   69.5896   91.3169 C   0  0  0  0  0  0  0  0  0  0  0  0
   71.9074   69.5165   91.6145 C   0  0  0  0  0  0  0  0  0  0  0  0
   72.7280   68.6807   90.8565 O   0  0  0  0  0  0  0  0  0  0  0  0
   72.3634   68.1752   90.1568 H   0  0  0  0  0  0  0  0  0  0  0  0
   74.4425   69.1584   93.3339 O   0  0  0  0  0  0  0  0  0  0  0  0
   73.8815   70.2448   93.0279 C   0  0  0  0  0  0  0  0  0  0  0  0
   74.6358   71.4158   93.0258 O   0  0  0  0  0  0  0  0  0  0  0  0
   74.2337   72.2317   92.8007 H   0  0  0  0  0  0  0  0  0  0  0  0
   69.6192   73.4641   94.1516 C   0  0  0  0  0  0  0  0  0  0  0  0
   68.3393   74.2705   94.0911 C   0  0  0  0  0  0  0  0  0  0  0  0
   67.3736   74.0831   95.0982 C   0  0  0  0  0  0  0  0  0  0  0  0
   66.1765   74.8011   95.0808 C   0  0  0  0  0  0  0  0  0  0  0  0
   65.9302   75.7249   94.0661 C   0  0  0  0  0  0  0  0  0  0  0  0
   66.8867   75.9439   93.0742 C   0  0  0  0  0  0  0  0  0  0  0  0
   68.0989   75.2395   93.0848 C   0  0  0  0  0  0  0  0  0  0  0  0
   69.3005   75.6155   91.7967 S   0  0  0  0  0  0  0  0  0  0  0  0
   68.3222   74.8330   90.5127 C   0  0  0  0  0  0  0  0  0  0  0  0
   67.7183   75.6092   89.5148 C   0  0  0  0  0  0  0  0  0  0  0  0
   66.9529   74.9963   88.5176 C   0  0  0  0  0  0  0  0  0  0  0  0
   66.7940   73.6071   88.5116 C   0  0  0  0  0  0  0  0  0  0  0  0
   67.4034   72.8292   89.5011 C   0  0  0  0  0  0  0  0  0  0  0  0
   68.1692   73.4402   90.4990 C   0  0  0  0  0  0  0  0  0  0  0  0
 11 12  2  0  0  0
 12 13  1  0  0  0
 12  3  1  0  0  0
  3  4  2  0  0  0
  4  5  1  0  0  0
  5  1  1  0  0  0
  1 15  1  0  0  0
 15 16  1  0  0  0
 16 17  2  0  0  0
 17 18  1  0  0  0
 18 19  2  0  0  0
 19 20  1  0  0  0
 20 21  2  0  0  0
 21 22  1  0  0  0
 22 23  1  0  0  0
 23 24  2  0  0  0
 24 25  1  0  0  0
 25 26  2  0  0  0
 26 27  1  0  0  0
 27 28  2  0  0  0
  5  6  2  0  0  0
  6  7  1  0  0  0
  7  8  2  0  0  0
  8  9  1  0  0  0
  8  3  1  0  0  0
 21 16  1  0  0  0
 28 23  1  0  0  0
 13 14  1  0  0  0
  1  2  1  0  0  0
  9 10  1  0  0  0
M  END
> <score>
-0.102641

> <minimizedAffinity>
-8.38967

$$$$
HIPS5160


 28 30  0  0  0  0  0  0  0  0999 V2000
   66.9809   76.8331   92.5835 N   0  0  0  0  0  0  0  0  0  0  0  0
   66.7513   77.7578   92.8317 H   0  0  0  0  0  0  0  0  0  0  0  0
   68.1701   74.0887   94.8556 C   0  0  0  0  0  0  0  0  0  0  0  0
   68.1277   75.0706   93.8476 C   0  0  0  0  0  0  0  0  0  0  0  0
   66.9727   75.8357   93.6241 C   0  0  0  0  0  0  0  0  0  0  0  0
   65.8388   75.6057   94.4210 C   0  0  0  0  0  0  0  0  0  0  0  0
   65.8661   74.6366   95.4233 C   0  0  0  0  0  0  0  0  0  0  0  0
   67.0204   73.8760   95.6495 C   0  0  0  0  0  0  0  0  0  0  0  0
   67.0176   72.9142   96.6602 O   0  0  0  0  0  0  0  0  0  0  0  0
   66.2490   72.7828   97.1798 H   0  0  0  0  0  0  0  0  0  0  0  0
   69.5984   72.6312   96.1035 O   0  0  0  0  0  0  0  0  0  0  0  0
   69.4181   73.3075   95.0553 C   0  0  0  0  0  0  0  0  0  0  0  0
   70.4107   73.3142   94.0782 O   0  0  0  0  0  0  0  0  0  0  0  0
   70.2920   73.8119   93.2932 H   0  0  0  0  0  0  0  0  0  0  0  0
   67.3080   76.5632   91.1818 C   0  0  0  0  0  0  0  0  0  0  0  0
   68.6057   77.2364   90.7882 C   0  0  0  0  0  0  0  0  0  0  0  0
   69.8124   76.7409   91.3175 C   0  0  0  0  0  0  0  0  0  0  0  0
   71.0327   77.3327   90.9862 C   0  0  0  0  0  0  0  0  0  0  0  0
   71.0685   78.4190   90.1132 C   0  0  0  0  0  0  0  0  0  0  0  0
   69.8856   78.9073   89.5575 C   0  0  0  0  0  0  0  0  0  0  0  0
   68.6534   78.3161   89.8709 C   0  0  0  0  0  0  0  0  0  0  0  0
   67.1786   78.9747   89.0739 S   0  0  0  0  0  0  0  0  0  0  0  0
   67.3580   77.9166   87.6364 C   0  0  0  0  0  0  0  0  0  0  0  0
   68.0104   78.3893   86.4901 C   0  0  0  0  0  0  0  0  0  0  0  0
   68.1449   77.5632   85.3697 C   0  0  0  0  0  0  0  0  0  0  0  0
   67.6337   76.2619   85.3939 C   0  0  0  0  0  0  0  0  0  0  0  0
   66.9903   75.7846   86.5401 C   0  0  0  0  0  0  0  0  0  0  0  0
   66.8549   76.6091   87.6615 C   0  0  0  0  0  0  0  0  0  0  0  0
 11 12  2  0  0  0
 12 13  1  0  0  0
 12  3  1  0  0  0
  3  4  2  0  0  0
  4  5  1  0  0  0
  5  1  1  0  0  0
  1 15  1  0  0  0
 15 16  1  0  0  0
 16 17  2  0  0  0
 17 18  1  0  0  0
 18 19  2  0  0  0
 19 20  1  0  0  0
 20 21  2  0  0  0
 21 22  1  0  0  0
 22 23  1  0  0  0
 23 24  2  0  0  0
 24 25  1  0  0  0
 25 26  2  0  0  0
 26 27  1  0  0  0
 27 28  2  0  0  0
  5  6  2  0  0  0
  6  7  1  0  0  0
  7  8  2  0  0  0
  8  9  1  0  0  0
  8  3  1  0  0  0
 21 16  1  0  0  0
 28 23  1  0  0  0
 13 14  1  0  0  0
  1  2  1  0  0  0
  9 10  1  0  0  0
M  END
> <score>
-0.102641

> <minimizedAffinity>
-7.94986

$$$$
HIPS5160


 28 30  0  0  0  0  0  0  0  0999 V2000
   66.9173   77.2616   92.4417 N   0  0  0  0  0  0  0  0  0  0  0  0
   66.6040   78.1538   92.7157 H   0  0  0  0  0  0  0  0  0  0  0  0
   68.1419   74.4013   94.5460 C   0  0  0  0  0  0  0  0  0  0  0  0
   68.0799   75.4283   93.5850 C   0  0  0  0  0  0  0  0  0  0  0  0
   66.9296   76.2184   93.4364 C   0  0  0  0  0  0  0  0  0  0  0  0
   65.8204   75.9681   94.2613 C   0  0  0  0  0  0  0  0  0  0  0  0
   65.8672   74.9544   95.2177 C   0  0  0  0  0  0  0  0  0  0  0  0
   67.0169   74.1687   95.3693 C   0  0  0  0  0  0  0  0  0  0  0  0
   67.0342   73.1624   96.3355 O   0  0  0  0  0  0  0  0  0  0  0  0
   66.2820   73.0181   96.8752 H   0  0  0  0  0  0  0  0  0  0  0  0
   70.2604   73.6153   93.7615 O   0  0  0  0  0  0  0  0  0  0  0  0
   69.3839   73.5950   94.6670 C   0  0  0  0  0  0  0  0  0  0  0  0
   69.5950   72.8012   95.7919 O   0  0  0  0  0  0  0  0  0  0  0  0
   68.9532   72.7750   96.4740 H   0  0  0  0  0  0  0  0  0  0  0  0
   67.3398   77.0832   91.0510 C   0  0  0  0  0  0  0  0  0  0  0  0
   68.5232   77.9695   90.7255 C   0  0  0  0  0  0  0  0  0  0  0  0
   69.8017   77.3861   90.6395 C   0  0  0  0  0  0  0  0  0  0  0  0
   70.9226   78.1649   90.3464 C   0  0  0  0  0  0  0  0  0  0  0  0
   70.7836   79.5340   90.1230 C   0  0  0  0  0  0  0  0  0  0  0  0
   69.5211   80.1255   90.1775 C   0  0  0  0  0  0  0  0  0  0  0  0
   68.3842   79.3547   90.4586 C   0  0  0  0  0  0  0  0  0  0  0  0
   66.7859   80.1853   90.4627 S   0  0  0  0  0  0  0  0  0  0  0  0
   67.2222   81.2531   89.0888 C   0  0  0  0  0  0  0  0  0  0  0  0
   67.5125   82.6055   89.3116 C   0  0  0  0  0  0  0  0  0  0  0  0
   67.8483   83.4361   88.2378 C   0  0  0  0  0  0  0  0  0  0  0  0
   67.9005   82.9168   86.9405 C   0  0  0  0  0  0  0  0  0  0  0  0
   67.6202   81.5651   86.7167 C   0  0  0  0  0  0  0  0  0  0  0  0
   67.2844   80.7329   87.7892 C   0  0  0  0  0  0  0  0  0  0  0  0
 11 12  2  0  0  0
 12 13  1  0  0  0
 12  3  1  0  0  0
  3  4  2  0  0  0
  4  5  1  0  0  0
  5  1  1  0  0  0
  1 15  1  0  0  0
 15 16  1  0  0  0
 16 17  2  0  0  0
 17 18  1  0  0  0
 18 19  2  0  0  0
 19 20  1  0  0  0
 20 21  2  0  0  0
 21 22  1  0  0  0
 22 23  1  0  0  0
 23 24  2  0  0  0
 24 25  1  0  0  0
 25 26  2  0  0  0
 26 27  1  0  0  0
 27 28  2  0  0  0
  5  6  2  0  0  0
  6  7  1  0  0  0
  7  8  2  0  0  0
  8  9  1  0  0  0
  8  3  1  0  0  0
 21 16  1  0  0  0
 28 23  1  0  0  0
 13 14  1  0  0  0
  1  2  1  0  0  0
  9 10  1  0  0  0
M  END
> <score>
-0.102641

> <minimizedAffinity>
-7.74232

$$$$
HIPS5163


 21 22  0  0  0  0  0  0  0  0999 V2000
   69.3827   73.1609   91.5927 C   0  0  0  0  0  0  0  0  0  0  0  0
   68.4550   72.5522   90.7270 C   0  0  0  0  0  0  0  0  0  0  0  0
   67.6929   73.3186   89.8257 C   0  0  0  0  0  0  0  0  0  0  0  0
   67.8587   74.7091   89.8100 C   0  0  0  0  0  0  0  0  0  0  0  0
   68.7584   75.3264   90.6787 C   0  0  0  0  0  0  0  0  0  0  0  0
   69.5087   74.5709   91.5846 C   0  0  0  0  0  0  0  0  0  0  0  0
   70.3335   75.2574   92.4783 O   0  0  0  0  0  0  0  0  0  0  0  0
   70.3896   76.1919   92.4407 H   0  0  0  0  0  0  0  0  0  0  0  0
   70.7155   72.7589   93.5180 O   0  0  0  0  0  0  0  0  0  0  0  0
   70.2201   72.2975   92.4543 C   0  0  0  0  0  0  0  0  0  0  0  0
   70.4184   70.9574   92.1349 O   0  0  0  0  0  0  0  0  0  0  0  0
   70.0544   70.6048   91.3467 H   0  0  0  0  0  0  0  0  0  0  0  0
   66.7522   72.7146   88.9157 N   0  0  0  0  0  0  0  0  0  0  0  0
   66.1324   72.0410   89.2781 H   0  0  0  0  0  0  0  0  0  0  0  0
   66.6541   73.0331   87.4900 C   0  0  0  0  0  0  0  0  0  0  0  0
   67.0909   71.8612   86.6502 C   0  0  0  0  0  0  0  0  0  0  0  0
   66.9497   71.8909   85.2521 C   0  0  0  0  0  0  0  0  0  0  0  0
   67.3614   70.8008   84.4792 C   0  0  0  0  0  0  0  0  0  0  0  0
   67.9243   69.6788   85.0933 C   0  0  0  0  0  0  0  0  0  0  0  0
   68.0799   69.6464   86.4817 C   0  0  0  0  0  0  0  0  0  0  0  0
   67.6690   70.7339   87.2585 C   0  0  0  0  0  0  0  0  0  0  0  0
  9 10  2  0  0  0
 10 11  1  0  0  0
 10  1  1  0  0  0
  1  2  2  0  0  0
  2  3  1  0  0  0
  3 13  1  0  0  0
 13 15  1  0  0  0
 15 16  1  0  0  0
 16 17  2  0  0  0
 17 18  1  0  0  0
 18 19  2  0  0  0
 19 20  1  0  0  0
 20 21  2  0  0  0
  3  4  2  0  0  0
  4  5  1  0  0  0
  5  6  2  0  0  0
  6  7  1  0  0  0
  6  1  1  0  0  0
 21 16  1  0  0  0
 11 12  1  0  0  0
 13 14  1  0  0  0
  7  8  1  0  0  0
M  END
> <score>
0.931547

> <minimizedAffinity>
-7.22675

$$$$
HIPS5163


 21 22  0  0  0  0  0  0  0  0999 V2000
   68.4719   73.9605   94.7025 C   0  0  0  0  0  0  0  0  0  0  0  0
   68.6115   74.7499   93.5458 C   0  0  0  0  0  0  0  0  0  0  0  0
   67.5823   75.6148   93.1293 C   0  0  0  0  0  0  0  0  0  0  0  0
   66.4000   75.6707   93.8778 C   0  0  0  0  0  0  0  0  0  0  0  0
   66.2405   74.8766   95.0132 C   0  0  0  0  0  0  0  0  0  0  0  0
   67.2548   74.0065   95.4241 C   0  0  0  0  0  0  0  0  0  0  0  0
   67.0009   73.1841   96.5237 O   0  0  0  0  0  0  0  0  0  0  0  0
   66.1821   73.2450   96.9751 H   0  0  0  0  0  0  0  0  0  0  0  0
   69.5981   72.5749   96.2698 O   0  0  0  0  0  0  0  0  0  0  0  0
   69.6206   73.1381   95.1420 C   0  0  0  0  0  0  0  0  0  0  0  0
   70.7056   72.9274   94.2960 O   0  0  0  0  0  0  0  0  0  0  0  0
   70.7318   73.3413   93.4558 H   0  0  0  0  0  0  0  0  0  0  0  0
   67.7116   76.4476   91.9599 N   0  0  0  0  0  0  0  0  0  0  0  0
   67.1901   77.2821   91.9321 H   0  0  0  0  0  0  0  0  0  0  0  0
   68.5644   76.1388   90.8106 C   0  0  0  0  0  0  0  0  0  0  0  0
   67.9067   75.1203   89.9164 C   0  0  0  0  0  0  0  0  0  0  0  0
   67.1915   75.5251   88.7762 C   0  0  0  0  0  0  0  0  0  0  0  0
   66.5874   74.5733   87.9489 C   0  0  0  0  0  0  0  0  0  0  0  0
   66.6997   73.2128   88.2473 C   0  0  0  0  0  0  0  0  0  0  0  0
   67.4197   72.8012   89.3721 C   0  0  0  0  0  0  0  0  0  0  0  0
   68.0248   73.7495   90.2025 C   0  0  0  0  0  0  0  0  0  0  0  0
  9 10  2  0  0  0
 10 11  1  0  0  0
 10  1  1  0  0  0
  1  2  2  0  0  0
  2  3  1  0  0  0
  3 13  1  0  0  0
 13 15  1  0  0  0
 15 16  1  0  0  0
 16 17  2  0  0  0
 17 18  1  0  0  0
 18 19  2  0  0  0
 19 20  1  0  0  0
 20 21  2  0  0  0
  3  4  2  0  0  0
  4  5  1  0  0  0
  5  6  2  0  0  0
  6  7  1  0  0  0
  6  1  1  0  0  0
 21 16  1  0  0  0
 11 12  1  0  0  0
 13 14  1  0  0  0
  7  8  1  0  0  0
M  END
> <score>
0.931547

> <minimizedAffinity>
-7.08710

$$$$
HIPS5163


 21 22  0  0  0  0  0  0  0  0999 V2000
   68.2580   73.9983   94.6564 C   0  0  0  0  0  0  0  0  0  0  0  0
   68.2363   74.7946   93.4961 C   0  0  0  0  0  0  0  0  0  0  0  0
   67.1303   75.6123   93.1981 C   0  0  0  0  0  0  0  0  0  0  0  0
   66.0343   75.6136   94.0699 C   0  0  0  0  0  0  0  0  0  0  0  0
   66.0341   74.8119   95.2111 C   0  0  0  0  0  0  0  0  0  0  0  0
   67.1250   73.9883   95.5051 C   0  0  0  0  0  0  0  0  0  0  0  0
   67.0284   73.1540   96.6208 O   0  0  0  0  0  0  0  0  0  0  0  0
   66.2612   73.1772   97.1581 H   0  0  0  0  0  0  0  0  0  0  0  0
   70.4584   73.2487   94.1657 O   0  0  0  0  0  0  0  0  0  0  0  0
   69.4832   73.2285   94.9647 C   0  0  0  0  0  0  0  0  0  0  0  0
   69.5967   72.5274   96.1617 O   0  0  0  0  0  0  0  0  0  0  0  0
   68.8778   72.5063   96.7623 H   0  0  0  0  0  0  0  0  0  0  0  0
   67.0951   76.4514   92.0266 N   0  0  0  0  0  0  0  0  0  0  0  0
   66.5499   77.2702   92.0660 H   0  0  0  0  0  0  0  0  0  0  0  0
   67.8136   76.1708   90.7821 C   0  0  0  0  0  0  0  0  0  0  0  0
   69.0907   76.9668   90.7122 C   0  0  0  0  0  0  0  0  0  0  0  0
   70.2674   76.4854   91.3114 C   0  0  0  0  0  0  0  0  0  0  0  0
   71.4498   77.2282   91.2385 C   0  0  0  0  0  0  0  0  0  0  0  0
   71.4693   78.4501   90.5607 C   0  0  0  0  0  0  0  0  0  0  0  0
   70.3069   78.9299   89.9514 C   0  0  0  0  0  0  0  0  0  0  0  0
   69.1221   78.1908   90.0223 C   0  0  0  0  0  0  0  0  0  0  0  0
  9 10  2  0  0  0
 10 11  1  0  0  0
 10  1  1  0  0  0
  1  2  2  0  0  0
  2  3  1  0  0  0
  3 13  1  0  0  0
 13 15  1  0  0  0
 15 16  1  0  0  0
 16 17  2  0  0  0
 17 18  1  0  0  0
 18 19  2  0  0  0
 19 20  1  0  0  0
 20 21  2  0  0  0
  3  4  2  0  0  0
  4  5  1  0  0  0
  5  6  2  0  0  0
  6  7  1  0  0  0
  6  1  1  0  0  0
 21 16  1  0  0  0
 11 12  1  0  0  0
 13 14  1  0  0  0
  7  8  1  0  0  0
M  END
> <score>
0.931547

> <minimizedAffinity>
-6.92221

$$$$
HIPS5164


 23 24  0  0  0  0  0  0  0  0999 V2000
   67.0056   76.2435   93.6393 C   0  0  0  0  0  0  0  0  0  0  0  0
   65.8671   76.0307   94.4264 C   0  0  0  0  0  0  0  0  0  0  0  0
   65.8284   74.9864   95.3502 C   0  0  0  0  0  0  0  0  0  0  0  0
   66.9232   74.1311   95.5073 C   0  0  0  0  0  0  0  0  0  0  0  0
   66.7900   73.0595   96.3927 O   0  0  0  0  0  0  0  0  0  0  0  0
   68.0986   74.3527   94.7500 C   0  0  0  0  0  0  0  0  0  0  0  0
   68.1165   75.3952   93.8052 C   0  0  0  0  0  0  0  0  0  0  0  0
   65.9953   72.9471   96.8761 H   0  0  0  0  0  0  0  0  0  0  0  0
   69.3271   73.5511   94.9434 C   0  0  0  0  0  0  0  0  0  0  0  0
   69.4504   72.8227   95.9651 O   0  0  0  0  0  0  0  0  0  0  0  0
   70.3274   73.5434   93.9757 O   0  0  0  0  0  0  0  0  0  0  0  0
   70.2454   74.0810   93.2127 H   0  0  0  0  0  0  0  0  0  0  0  0
   67.0118   77.3319   92.6937 N   0  0  0  0  0  0  0  0  0  0  0  0
   66.8136   78.2351   93.0314 H   0  0  0  0  0  0  0  0  0  0  0  0
   67.2935   77.1829   91.2637 C   0  0  0  0  0  0  0  0  0  0  0  0
   72.3953   77.3682   90.6673 C   0  0  0  0  0  0  0  0  0  0  0  0
   71.0183   77.9777   90.5915 C   0  0  0  0  0  0  0  0  0  0  0  0
   70.9048   79.3190   90.1945 C   0  0  0  0  0  0  0  0  0  0  0  0
   69.6591   79.9313   90.1101 C   0  0  0  0  0  0  0  0  0  0  0  0
   68.5087   79.2255   90.4461 C   0  0  0  0  0  0  0  0  0  0  0  0
   68.5821   77.8888   90.8765 C   0  0  0  0  0  0  0  0  0  0  0  0
   69.8444   77.2291   90.8844 C   0  0  0  0  0  0  0  0  0  0  0  0
   69.9339   75.7586   91.2362 C   0  0  0  0  0  0  0  0  0  0  0  0
 16 17  1  0  0  0
 17 18  2  0  0  0
 18 19  1  0  0  0
 19 20  2  0  0  0
 20 21  1  0  0  0
 21 15  1  0  0  0
 15 13  1  0  0  0
 13  1  1  0  0  0
  1  2  2  0  0  0
  2  3  1  0  0  0
  3  4  2  0  0  0
  4  5  1  0  0  0
  4  6  1  0  0  0
  6  9  1  0  0  0
  9 10  2  0  0  0
  9 11  1  0  0  0
  6  7  2  0  0  0
 21 22  2  0  0  0
 22 23  1  0  0  0
 22 17  1  0  0  0
  7  1  1  0  0  0
 13 14  1  0  0  0
  5  8  1  0  0  0
 11 12  1  0  0  0
M  END
> <score>
0.247786

> <minimizedAffinity>
-7.46650

$$$$
HIPS5164


 23 24  0  0  0  0  0  0  0  0999 V2000
   69.3624   74.9008   91.2803 C   0  0  0  0  0  0  0  0  0  0  0  0
   69.2394   73.5124   91.4151 C   0  0  0  0  0  0  0  0  0  0  0  0
   68.3323   72.8011   90.6298 C   0  0  0  0  0  0  0  0  0  0  0  0
   67.5275   73.4592   89.6950 C   0  0  0  0  0  0  0  0  0  0  0  0
   66.5863   72.6995   88.9971 O   0  0  0  0  0  0  0  0  0  0  0  0
   67.6641   74.8567   89.5147 C   0  0  0  0  0  0  0  0  0  0  0  0
   68.5661   75.5659   90.3291 C   0  0  0  0  0  0  0  0  0  0  0  0
   66.5271   71.7761   89.1447 H   0  0  0  0  0  0  0  0  0  0  0  0
   66.9200   75.5962   88.4714 C   0  0  0  0  0  0  0  0  0  0  0  0
   66.8977   75.1645   87.2870 O   0  0  0  0  0  0  0  0  0  0  0  0
   66.1890   76.7354   88.7957 O   0  0  0  0  0  0  0  0  0  0  0  0
   66.1989   77.0644   89.6731 H   0  0  0  0  0  0  0  0  0  0  0  0
   70.3095   75.6052   92.1083 N   0  0  0  0  0  0  0  0  0  0  0  0
   71.2678   75.4656   91.9311 H   0  0  0  0  0  0  0  0  0  0  0  0
   69.9404   76.5149   93.1958 C   0  0  0  0  0  0  0  0  0  0  0  0
   66.5093   73.7594   95.8517 C   0  0  0  0  0  0  0  0  0  0  0  0
   66.8961   74.9184   94.9682 C   0  0  0  0  0  0  0  0  0  0  0  0
   65.8832   75.7783   94.5163 C   0  0  0  0  0  0  0  0  0  0  0  0
   66.1842   76.8611   93.6974 C   0  0  0  0  0  0  0  0  0  0  0  0
   67.4953   77.0890   93.2931 C   0  0  0  0  0  0  0  0  0  0  0  0
   68.5348   76.2339   93.7001 C   0  0  0  0  0  0  0  0  0  0  0  0
   68.2484   75.1733   94.6066 C   0  0  0  0  0  0  0  0  0  0  0  0
   69.3685   74.3088   95.1469 C   0  0  0  0  0  0  0  0  0  0  0  0
 16 17  1  0  0  0
 17 18  2  0  0  0
 18 19  1  0  0  0
 19 20  2  0  0  0
 20 21  1  0  0  0
 21 15  1  0  0  0
 15 13  1  0  0  0
 13  1  1  0  0  0
  1  2  2  0  0  0
  2  3  1  0  0  0
  3  4  2  0  0  0
  4  5  1  0  0  0
  4  6  1  0  0  0
  6  9  1  0  0  0
  9 10  2  0  0  0
  9 11  1  0  0  0
  6  7  2  0  0  0
 21 22  2  0  0  0
 22 23  1  0  0  0
 22 17  1  0  0  0
  7  1  1  0  0  0
 13 14  1  0  0  0
  5  8  1  0  0  0
 11 12  1  0  0  0
M  END
> <score>
0.247786

> <minimizedAffinity>
-7.43995

$$$$
HIPS5164


 23 24  0  0  0  0  0  0  0  0999 V2000
   70.1001   78.6258   90.1801 C   0  0  0  0  0  0  0  0  0  0  0  0
   68.9976   78.4532   89.3341 C   0  0  0  0  0  0  0  0  0  0  0  0
   68.2538   77.2738   89.3698 C   0  0  0  0  0  0  0  0  0  0  0  0
   68.5946   76.2409   90.2482 C   0  0  0  0  0  0  0  0  0  0  0  0
   67.8569   75.0573   90.1786 O   0  0  0  0  0  0  0  0  0  0  0  0
   69.6812   76.4106   91.1398 C   0  0  0  0  0  0  0  0  0  0  0  0
   70.4375   77.5955   91.0778 C   0  0  0  0  0  0  0  0  0  0  0  0
   67.1442   74.9843   89.5747 H   0  0  0  0  0  0  0  0  0  0  0  0
   70.0284   75.4016   92.1648 C   0  0  0  0  0  0  0  0  0  0  0  0
   70.0962   75.7340   93.3792 O   0  0  0  0  0  0  0  0  0  0  0  0
   70.2215   74.0695   91.8106 O   0  0  0  0  0  0  0  0  0  0  0  0
   70.1732   73.8122   90.9109 H   0  0  0  0  0  0  0  0  0  0  0  0
   70.8474   79.8571   90.1169 N   0  0  0  0  0  0  0  0  0  0  0  0
   71.8025   79.8036   89.8839 H   0  0  0  0  0  0  0  0  0  0  0  0
   70.2800   81.1827   90.3764 C   0  0  0  0  0  0  0  0  0  0  0  0
   70.7055   84.6859   86.6393 C   0  0  0  0  0  0  0  0  0  0  0  0
   71.2361   83.9379   87.8362 C   0  0  0  0  0  0  0  0  0  0  0  0
   72.5471   84.2044   88.2603 C   0  0  0  0  0  0  0  0  0  0  0  0
   73.0869   83.5411   89.3569 C   0  0  0  0  0  0  0  0  0  0  0  0
   72.3393   82.5820   90.0318 C   0  0  0  0  0  0  0  0  0  0  0  0
   71.0326   82.2649   89.6205 C   0  0  0  0  0  0  0  0  0  0  0  0
   70.4422   82.9991   88.5522 C   0  0  0  0  0  0  0  0  0  0  0  0
   68.9988   82.7535   88.1646 C   0  0  0  0  0  0  0  0  0  0  0  0
 16 17  1  0  0  0
 17 18  2  0  0  0
 18 19  1  0  0  0
 19 20  2  0  0  0
 20 21  1  0  0  0
 21 15  1  0  0  0
 15 13  1  0  0  0
 13  1  1  0  0  0
  1  2  2  0  0  0
  2  3  1  0  0  0
  3  4  2  0  0  0
  4  5  1  0  0  0
  4  6  1  0  0  0
  6  9  1  0  0  0
  9 10  2  0  0  0
  9 11  1  0  0  0
  6  7  2  0  0  0
 21 22  2  0  0  0
 22 23  1  0  0  0
 22 17  1  0  0  0
  7  1  1  0  0  0
 13 14  1  0  0  0
  5  8  1  0  0  0
 11 12  1  0  0  0
M  END
> <score>
0.247786

> <minimizedAffinity>
-7.40969

$$$$
HIPS5165


 28 30  0  0  0  0  0  0  0  0999 V2000
   66.5010   76.8478   92.5141 N   0  0  0  0  0  0  0  0  0  0  0  0
   65.7075   76.7164   91.9463 H   0  0  0  0  0  0  0  0  0  0  0  0
   68.1384   74.2126   94.6649 C   0  0  0  0  0  0  0  0  0  0  0  0
   67.9467   75.1817   93.6630 C   0  0  0  0  0  0  0  0  0  0  0  0
   66.7384   75.8946   93.5678 C   0  0  0  0  0  0  0  0  0  0  0  0
   65.7282   75.6493   94.5058 C   0  0  0  0  0  0  0  0  0  0  0  0
   65.9137   74.7068   95.5163 C   0  0  0  0  0  0  0  0  0  0  0  0
   67.1144   73.9976   95.6192 C   0  0  0  0  0  0  0  0  0  0  0  0
   67.2630   73.1227   96.6973 O   0  0  0  0  0  0  0  0  0  0  0  0
   66.5613   73.0079   97.3076 H   0  0  0  0  0  0  0  0  0  0  0  0
   69.6514   72.6467   95.6146 O   0  0  0  0  0  0  0  0  0  0  0  0
   69.3900   73.4241   94.6570 C   0  0  0  0  0  0  0  0  0  0  0  0
   70.3170   73.5772   93.6301 O   0  0  0  0  0  0  0  0  0  0  0  0
   70.1321   74.1525   92.9140 H   0  0  0  0  0  0  0  0  0  0  0  0
   67.3611   77.9999   92.2306 C   0  0  0  0  0  0  0  0  0  0  0  0
   67.1260   78.5408   90.8373 C   0  0  0  0  0  0  0  0  0  0  0  0
   66.3374   79.6921   90.6650 C   0  0  0  0  0  0  0  0  0  0  0  0
   66.1199   80.2181   89.3894 C   0  0  0  0  0  0  0  0  0  0  0  0
   66.6759   79.5957   88.2712 C   0  0  0  0  0  0  0  0  0  0  0  0
   67.4487   78.4434   88.4250 C   0  0  0  0  0  0  0  0  0  0  0  0
   67.6806   77.9092   89.7035 C   0  0  0  0  0  0  0  0  0  0  0  0
   68.4402   76.7419   89.8551 O   0  0  0  0  0  0  0  0  0  0  0  0
   67.9649   75.4449   89.6110 C   0  0  0  0  0  0  0  0  0  0  0  0
   68.4256   74.3985   90.4192 C   0  0  0  0  0  0  0  0  0  0  0  0
   68.0012   73.0863   90.1880 C   0  0  0  0  0  0  0  0  0  0  0  0
   67.1191   72.8101   89.1397 C   0  0  0  0  0  0  0  0  0  0  0  0
   66.6629   73.8454   88.3198 C   0  0  0  0  0  0  0  0  0  0  0  0
   67.0824   75.1588   88.5506 C   0  0  0  0  0  0  0  0  0  0  0  0
 11 12  2  0  0  0
 12 13  1  0  0  0
 12  3  1  0  0  0
  3  4  2  0  0  0
  4  5  1  0  0  0
  5  1  1  0  0  0
  1 15  1  0  0  0
 15 16  1  0  0  0
 16 17  2  0  0  0
 17 18  1  0  0  0
 18 19  2  0  0  0
 19 20  1  0  0  0
 20 21  2  0  0  0
 21 22  1  0  0  0
 22 23  1  0  0  0
 23 24  2  0  0  0
 24 25  1  0  0  0
 25 26  2  0  0  0
 26 27  1  0  0  0
 27 28  2  0  0  0
  5  6  2  0  0  0
  6  7  1  0  0  0
  7  8  2  0  0  0
  8  9  1  0  0  0
  8  3  1  0  0  0
 21 16  1  0  0  0
 28 23  1  0  0  0
 13 14  1  0  0  0
  1  2  1  0  0  0
  9 10  1  0  0  0
M  END
> <score>
0.444367

> <minimizedAffinity>
-8.13947

$$$$
HIPS5165


 28 30  0  0  0  0  0  0  0  0999 V2000
   67.2548   76.3849   91.8711 N   0  0  0  0  0  0  0  0  0  0  0  0
   66.6459   77.1569   91.8213 H   0  0  0  0  0  0  0  0  0  0  0  0
   68.2701   74.0405   94.6504 C   0  0  0  0  0  0  0  0  0  0  0  0
   68.3447   74.8755   93.5204 C   0  0  0  0  0  0  0  0  0  0  0  0
   67.2134   75.5722   93.0599 C   0  0  0  0  0  0  0  0  0  0  0  0
   66.0070   75.4486   93.7597 C   0  0  0  0  0  0  0  0  0  0  0  0
   65.9253   74.6412   94.8933 C   0  0  0  0  0  0  0  0  0  0  0  0
   67.0475   73.9492   95.3590 C   0  0  0  0  0  0  0  0  0  0  0  0
   66.9164   73.2173   96.5410 O   0  0  0  0  0  0  0  0  0  0  0  0
   66.0897   73.1814   96.9806 H   0  0  0  0  0  0  0  0  0  0  0  0
   69.5180   72.6949   96.1588 O   0  0  0  0  0  0  0  0  0  0  0  0
   69.4650   73.2558   95.0309 C   0  0  0  0  0  0  0  0  0  0  0  0
   70.5633   73.1801   94.1792 O   0  0  0  0  0  0  0  0  0  0  0  0
   70.5339   73.5936   93.3389 H   0  0  0  0  0  0  0  0  0  0  0  0
   68.1424   76.1397   90.7311 C   0  0  0  0  0  0  0  0  0  0  0  0
   67.8041   74.8419   90.0310 C   0  0  0  0  0  0  0  0  0  0  0  0
   68.3151   73.6312   90.5313 C   0  0  0  0  0  0  0  0  0  0  0  0
   68.0031   72.4194   89.9104 C   0  0  0  0  0  0  0  0  0  0  0  0
   67.1885   72.4025   88.7777 C   0  0  0  0  0  0  0  0  0  0  0  0
   66.6859   73.5978   88.2605 C   0  0  0  0  0  0  0  0  0  0  0  0
   66.9867   74.8220   88.8807 C   0  0  0  0  0  0  0  0  0  0  0  0
   66.4977   76.0227   88.3497 O   0  0  0  0  0  0  0  0  0  0  0  0
   67.0413   76.6814   87.2369 C   0  0  0  0  0  0  0  0  0  0  0  0
   67.0694   76.0107   86.0081 C   0  0  0  0  0  0  0  0  0  0  0  0
   67.6323   76.6199   84.8822 C   0  0  0  0  0  0  0  0  0  0  0  0
   68.1799   77.9019   84.9800 C   0  0  0  0  0  0  0  0  0  0  0  0
   68.1677   78.5750   86.2044 C   0  0  0  0  0  0  0  0  0  0  0  0
   67.6025   77.9702   87.3310 C   0  0  0  0  0  0  0  0  0  0  0  0
 11 12  2  0  0  0
 12 13  1  0  0  0
 12  3  1  0  0  0
  3  4  2  0  0  0
  4  5  1  0  0  0
  5  1  1  0  0  0
  1 15  1  0  0  0
 15 16  1  0  0  0
 16 17  2  0  0  0
 17 18  1  0  0  0
 18 19  2  0  0  0
 19 20  1  0  0  0
 20 21  2  0  0  0
 21 22  1  0  0  0
 22 23  1  0  0  0
 23 24  2  0  0  0
 24 25  1  0  0  0
 25 26  2  0  0  0
 26 27  1  0  0  0
 27 28  2  0  0  0
  5  6  2  0  0  0
  6  7  1  0  0  0
  7  8  2  0  0  0
  8  9  1  0  0  0
  8  3  1  0  0  0
 21 16  1  0  0  0
 28 23  1  0  0  0
 13 14  1  0  0  0
  1  2  1  0  0  0
  9 10  1  0  0  0
M  END
> <score>
0.444367

> <minimizedAffinity>
-8.07592

$$$$
HIPS5165


 28 30  0  0  0  0  0  0  0  0999 V2000
   66.5002   76.8603   92.8520 N   0  0  0  0  0  0  0  0  0  0  0  0
   66.0193   76.5820   92.0393 H   0  0  0  0  0  0  0  0  0  0  0  0
   68.2229   74.1178   94.7917 C   0  0  0  0  0  0  0  0  0  0  0  0
   67.9902   75.1370   93.8499 C   0  0  0  0  0  0  0  0  0  0  0  0
   66.7809   75.8544   93.8443 C   0  0  0  0  0  0  0  0  0  0  0  0
   65.8120   75.5618   94.8118 C   0  0  0  0  0  0  0  0  0  0  0  0
   66.0389   74.5688   95.7638 C   0  0  0  0  0  0  0  0  0  0  0  0
   67.2410   73.8548   95.7776 C   0  0  0  0  0  0  0  0  0  0  0  0
   67.4342   72.9258   96.8021 O   0  0  0  0  0  0  0  0  0  0  0  0
   66.7596   72.7802   97.4359 H   0  0  0  0  0  0  0  0  0  0  0  0
   69.7963   72.5406   95.6163 O   0  0  0  0  0  0  0  0  0  0  0  0
   69.4708   73.3302   94.6887 C   0  0  0  0  0  0  0  0  0  0  0  0
   70.3261   73.4970   93.6034 O   0  0  0  0  0  0  0  0  0  0  0  0
   70.0933   74.0815   92.9090 H   0  0  0  0  0  0  0  0  0  0  0  0
   66.8822   78.2701   92.9711 C   0  0  0  0  0  0  0  0  0  0  0  0
   66.5144   79.0534   91.7300 C   0  0  0  0  0  0  0  0  0  0  0  0
   65.6594   80.1642   91.8401 C   0  0  0  0  0  0  0  0  0  0  0  0
   65.3188   80.9114   90.7101 C   0  0  0  0  0  0  0  0  0  0  0  0
   65.8170   80.5526   89.4571 C   0  0  0  0  0  0  0  0  0  0  0  0
   66.6550   79.4433   89.3299 C   0  0  0  0  0  0  0  0  0  0  0  0
   67.0104   78.6885   90.4602 C   0  0  0  0  0  0  0  0  0  0  0  0
   67.8358   77.5641   90.3286 O   0  0  0  0  0  0  0  0  0  0  0  0
   69.2265   77.5710   90.5121 C   0  0  0  0  0  0  0  0  0  0  0  0
   69.7954   76.6166   91.3641 C   0  0  0  0  0  0  0  0  0  0  0  0
   71.1739   76.6102   91.5992 C   0  0  0  0  0  0  0  0  0  0  0  0
   71.9926   77.5651   90.9901 C   0  0  0  0  0  0  0  0  0  0  0  0
   71.4332   78.5293   90.1476 C   0  0  0  0  0  0  0  0  0  0  0  0
   70.0560   78.5362   89.9077 C   0  0  0  0  0  0  0  0  0  0  0  0
 11 12  2  0  0  0
 12 13  1  0  0  0
 12  3  1  0  0  0
  3  4  2  0  0  0
  4  5  1  0  0  0
  5  1  1  0  0  0
  1 15  1  0  0  0
 15 16  1  0  0  0
 16 17  2  0  0  0
 17 18  1  0  0  0
 18 19  2  0  0  0
 19 20  1  0  0  0
 20 21  2  0  0  0
 21 22  1  0  0  0
 22 23  1  0  0  0
 23 24  2  0  0  0
 24 25  1  0  0  0
 25 26  2  0  0  0
 26 27  1  0  0  0
 27 28  2  0  0  0
  5  6  2  0  0  0
  6  7  1  0  0  0
  7  8  2  0  0  0
  8  9  1  0  0  0
  8  3  1  0  0  0
 21 16  1  0  0  0
 28 23  1  0  0  0
 13 14  1  0  0  0
  1  2  1  0  0  0
  9 10  1  0  0  0
M  END
> <score>
0.444367

> <minimizedAffinity>
-7.85309

$$$$
HIPS5238


 31 33  0  0  0  0  0  0  0  0999 V2000
   69.6017   77.1564   90.8524 C   0  0  0  0  0  0  0  0  0  0  0  0
   68.3085   77.6852   90.7495 C   0  0  0  0  0  0  0  0  0  0  0  0
   68.1130   79.0275   90.4386 C   0  0  0  0  0  0  0  0  0  0  0  0
   69.2025   79.8603   90.1761 C   0  0  0  0  0  0  0  0  0  0  0  0
   70.5041   79.3334   90.2496 C   0  0  0  0  0  0  0  0  0  0  0  0
   70.7241   77.9884   90.5989 C   0  0  0  0  0  0  0  0  0  0  0  0
   69.9982   75.4417   92.6439 C   0  0  0  0  0  0  0  0  0  0  0  0
   69.9561   76.3247   93.5431 O   0  0  0  0  0  0  0  0  0  0  0  0
   69.7578   75.7977   91.2776 N   0  0  0  0  0  0  0  0  0  0  0  0
   69.6977   75.0812   90.6051 H   0  0  0  0  0  0  0  0  0  0  0  0
   70.2569   74.1010   92.9550 O   0  0  0  0  0  0  0  0  0  0  0  0
   69.6529   71.7914   93.1095 C   0  0  0  0  0  0  0  0  0  0  0  0
   69.3862   73.2031   93.6588 C   0  0  0  0  0  0  0  0  0  0  0  0
   67.9133   73.5695   93.3955 C   0  0  0  0  0  0  0  0  0  0  0  0
   69.6881   73.2119   95.1715 C   0  0  0  0  0  0  0  0  0  0  0  0
   72.1246   77.4872   90.6679 C   0  0  0  0  0  0  0  0  0  0  0  0
   72.8850   77.5298   89.6639 O   0  0  0  0  0  0  0  0  0  0  0  0
   72.6266   76.9942   91.8722 O   0  0  0  0  0  0  0  0  0  0  0  0
   72.0752   76.9554   92.6288 H   0  0  0  0  0  0  0  0  0  0  0  0
   68.9496   81.2009   89.8579 O   0  0  0  0  0  0  0  0  0  0  0  0
   69.3976   82.3168   90.6242 C   0  0  0  0  0  0  0  0  0  0  0  0
   70.5244   83.0096   89.8902 C   0  0  0  0  0  0  0  0  0  0  0  0
   71.8493   82.6651   90.2170 C   0  0  0  0  0  0  0  0  0  0  0  0
   72.9269   83.2838   89.5860 C   0  0  0  0  0  0  0  0  0  0  0  0
   72.7077   84.2593   88.6193 C   0  0  0  0  0  0  0  0  0  0  0  0
   71.4008   84.6279   88.2715 C   0  0  0  0  0  0  0  0  0  0  0  0
   71.1911   85.6304   87.3103 C   0  0  0  0  0  0  0  0  0  0  0  0
   69.8954   86.0141   86.9651 C   0  0  0  0  0  0  0  0  0  0  0  0
   68.7992   85.4038   87.5738 C   0  0  0  0  0  0  0  0  0  0  0  0
   68.9878   84.4040   88.5254 C   0  0  0  0  0  0  0  0  0  0  0  0
   70.2906   84.0027   88.9003 C   0  0  0  0  0  0  0  0  0  0  0  0
 12 13  1  0  0  0
 13 14  1  0  0  0
 13 15  1  0  0  0
 13 11  1  0  0  0
 11  7  1  0  0  0
  7  8  2  0  0  0
  7  9  1  0  0  0
  9  1  1  0  0  0
  1  2  2  0  0  0
  2  3  1  0  0  0
  3  4  2  0  0  0
  4 20  1  0  0  0
 20 21  1  0  0  0
 21 22  1  0  0  0
 22 23  2  0  0  0
 23 24  1  0  0  0
 24 25  2  0  0  0
 25 26  1  0  0  0
 26 27  2  0  0  0
 27 28  1  0  0  0
 28 29  2  0  0  0
 29 30  1  0  0  0
 30 31  2  0  0  0
  4  5  1  0  0  0
  5  6  2  0  0  0
  6 16  1  0  0  0
 16 17  2  0  0  0
 16 18  1  0  0  0
  6  1  1  0  0  0
 31 22  1  0  0  0
 31 26  1  0  0  0
  9 10  1  0  0  0
 18 19  1  0  0  0
M  END
> <score>
0.047072

> <minimizedAffinity>
-8.86161

$$$$
HIPS5238


 31 33  0  0  0  0  0  0  0  0999 V2000
   69.3535   76.7207   90.7433 C   0  0  0  0  0  0  0  0  0  0  0  0
   68.0157   76.9755   90.4150 C   0  0  0  0  0  0  0  0  0  0  0  0
   67.6296   78.2188   89.9233 C   0  0  0  0  0  0  0  0  0  0  0  0
   68.5779   79.2195   89.7031 C   0  0  0  0  0  0  0  0  0  0  0  0
   69.9280   78.9655   90.0032 C   0  0  0  0  0  0  0  0  0  0  0  0
   70.3327   77.7279   90.5360 C   0  0  0  0  0  0  0  0  0  0  0  0
   69.8170   75.2994   92.7612 C   0  0  0  0  0  0  0  0  0  0  0  0
   69.5147   76.2462   93.5372 O   0  0  0  0  0  0  0  0  0  0  0  0
   69.6875   75.4643   91.3444 N   0  0  0  0  0  0  0  0  0  0  0  0
   69.8336   74.6845   90.7616 H   0  0  0  0  0  0  0  0  0  0  0  0
   70.2620   74.0680   93.2579 O   0  0  0  0  0  0  0  0  0  0  0  0
   70.0904   71.7064   93.5993 C   0  0  0  0  0  0  0  0  0  0  0  0
   69.4653   73.0747   93.9200 C   0  0  0  0  0  0  0  0  0  0  0  0
   68.0219   73.1007   93.3824 C   0  0  0  0  0  0  0  0  0  0  0  0
   69.4816   73.2813   95.4486 C   0  0  0  0  0  0  0  0  0  0  0  0
   71.7750   77.5178   90.8411 C   0  0  0  0  0  0  0  0  0  0  0  0
   72.6529   77.5994   89.9408 O   0  0  0  0  0  0  0  0  0  0  0  0
   72.1769   77.2631   92.1523 O   0  0  0  0  0  0  0  0  0  0  0  0
   71.5375   77.1992   92.8342 H   0  0  0  0  0  0  0  0  0  0  0  0
   68.1375   80.4494   89.1971 O   0  0  0  0  0  0  0  0  0  0  0  0
   68.3767   81.7137   89.8114 C   0  0  0  0  0  0  0  0  0  0  0  0
   69.1016   82.6157   88.8371 C   0  0  0  0  0  0  0  0  0  0  0  0
   68.3862   83.1294   87.7394 C   0  0  0  0  0  0  0  0  0  0  0  0
   69.0074   83.9506   86.8003 C   0  0  0  0  0  0  0  0  0  0  0  0
   70.3532   84.2750   86.9335 C   0  0  0  0  0  0  0  0  0  0  0  0
   71.0958   83.7787   88.0138 C   0  0  0  0  0  0  0  0  0  0  0  0
   72.4599   84.0940   88.1261 C   0  0  0  0  0  0  0  0  0  0  0  0
   73.2118   83.5959   89.1899 C   0  0  0  0  0  0  0  0  0  0  0  0
   72.6124   82.7803   90.1492 C   0  0  0  0  0  0  0  0  0  0  0  0
   71.2594   82.4612   90.0569 C   0  0  0  0  0  0  0  0  0  0  0  0
   70.4766   82.9453   88.9838 C   0  0  0  0  0  0  0  0  0  0  0  0
 12 13  1  0  0  0
 13 14  1  0  0  0
 13 15  1  0  0  0
 13 11  1  0  0  0
 11  7  1  0  0  0
  7  8  2  0  0  0
  7  9  1  0  0  0
  9  1  1  0  0  0
  1  2  2  0  0  0
  2  3  1  0  0  0
  3  4  2  0  0  0
  4 20  1  0  0  0
 20 21  1  0  0  0
 21 22  1  0  0  0
 22 23  2  0  0  0
 23 24  1  0  0  0
 24 25  2  0  0  0
 25 26  1  0  0  0
 26 27  2  0  0  0
 27 28  1  0  0  0
 28 29  2  0  0  0
 29 30  1  0  0  0
 30 31  2  0  0  0
  4  5  1  0  0  0
  5  6  2  0  0  0
  6 16  1  0  0  0
 16 17  2  0  0  0
 16 18  1  0  0  0
  6  1  1  0  0  0
 31 22  1  0  0  0
 31 26  1  0  0  0
  9 10  1  0  0  0
 18 19  1  0  0  0
M  END
> <score>
0.047072

> <minimizedAffinity>
-8.68434

$$$$
HIPS5238


 31 33  0  0  0  0  0  0  0  0999 V2000
   68.4192   77.1366   91.6665 C   0  0  0  0  0  0  0  0  0  0  0  0
   67.4203   78.0308   91.2602 C   0  0  0  0  0  0  0  0  0  0  0  0
   67.7403   79.1628   90.5166 C   0  0  0  0  0  0  0  0  0  0  0  0
   69.0578   79.4019   90.1211 C   0  0  0  0  0  0  0  0  0  0  0  0
   70.0646   78.4963   90.4999 C   0  0  0  0  0  0  0  0  0  0  0  0
   69.7671   77.3660   91.2831 C   0  0  0  0  0  0  0  0  0  0  0  0
   68.3251   76.0443   93.9258 C   0  0  0  0  0  0  0  0  0  0  0  0
   68.7822   77.0800   94.4811 O   0  0  0  0  0  0  0  0  0  0  0  0
   68.0591   76.0432   92.5186 N   0  0  0  0  0  0  0  0  0  0  0  0
   67.6117   75.2611   92.1218 H   0  0  0  0  0  0  0  0  0  0  0  0
   68.0482   74.8871   94.6644 O   0  0  0  0  0  0  0  0  0  0  0  0
   66.8963   73.6148   96.3310 C   0  0  0  0  0  0  0  0  0  0  0  0
   66.7493   74.3806   95.0052 C   0  0  0  0  0  0  0  0  0  0  0  0
   66.2531   73.4063   93.9201 C   0  0  0  0  0  0  0  0  0  0  0  0
   65.7421   75.5315   95.2063 C   0  0  0  0  0  0  0  0  0  0  0  0
   70.8750   76.4454   91.6602 C   0  0  0  0  0  0  0  0  0  0  0  0
   70.7194   75.1950   91.6485 O   0  0  0  0  0  0  0  0  0  0  0  0
   72.1245   76.9652   91.9978 O   0  0  0  0  0  0  0  0  0  0  0  0
   72.2580   77.8925   92.0115 H   0  0  0  0  0  0  0  0  0  0  0  0
   69.3240   80.5508   89.3649 O   0  0  0  0  0  0  0  0  0  0  0  0
   69.2500   81.8855   89.8608 C   0  0  0  0  0  0  0  0  0  0  0  0
   70.5272   82.6199   89.5175 C   0  0  0  0  0  0  0  0  0  0  0  0
   71.7250   82.2032   90.1277 C   0  0  0  0  0  0  0  0  0  0  0  0
   72.9283   82.8542   89.8627 C   0  0  0  0  0  0  0  0  0  0  0  0
   72.9633   83.9343   88.9872 C   0  0  0  0  0  0  0  0  0  0  0  0
   71.7883   84.3767   88.3640 C   0  0  0  0  0  0  0  0  0  0  0  0
   71.8311   85.4827   87.4993 C   0  0  0  0  0  0  0  0  0  0  0  0
   70.6663   85.9395   86.8831 C   0  0  0  0  0  0  0  0  0  0  0  0
   69.4506   85.2997   87.1230 C   0  0  0  0  0  0  0  0  0  0  0  0
   69.3898   84.1980   87.9735 C   0  0  0  0  0  0  0  0  0  0  0  0
   70.5539   83.7204   88.6180 C   0  0  0  0  0  0  0  0  0  0  0  0
 12 13  1  0  0  0
 13 14  1  0  0  0
 13 15  1  0  0  0
 13 11  1  0  0  0
 11  7  1  0  0  0
  7  8  2  0  0  0
  7  9  1  0  0  0
  9  1  1  0  0  0
  1  2  2  0  0  0
  2  3  1  0  0  0
  3  4  2  0  0  0
  4 20  1  0  0  0
 20 21  1  0  0  0
 21 22  1  0  0  0
 22 23  2  0  0  0
 23 24  1  0  0  0
 24 25  2  0  0  0
 25 26  1  0  0  0
 26 27  2  0  0  0
 27 28  1  0  0  0
 28 29  2  0  0  0
 29 30  1  0  0  0
 30 31  2  0  0  0
  4  5  1  0  0  0
  5  6  2  0  0  0
  6 16  1  0  0  0
 16 17  2  0  0  0
 16 18  1  0  0  0
  6  1  1  0  0  0
 31 22  1  0  0  0
 31 26  1  0  0  0
  9 10  1  0  0  0
 18 19  1  0  0  0
M  END
> <score>
0.047072

> <minimizedAffinity>
-8.48192

$$$$
HIPS5239


 25 27  0  0  0  0  0  0  0  0999 V2000
   69.2633   80.8275   89.8133 C   0  0  0  0  0  0  0  0  0  0  0  0
   69.8421   79.4958   90.1732 C   0  0  0  0  0  0  0  0  0  0  0  0
   71.1854   79.1832   90.2061 C   0  0  0  0  0  0  0  0  0  0  0  0
   71.2504   77.8519   90.5580 C   0  0  0  0  0  0  0  0  0  0  0  0
   69.9368   77.4341   90.7163 C   0  0  0  0  0  0  0  0  0  0  0  0
   69.1251   78.4407   90.4796 O   0  0  0  0  0  0  0  0  0  0  0  0
   69.4682   76.0781   91.0847 C   0  0  0  0  0  0  0  0  0  0  0  0
   68.4872   75.4465   90.2992 C   0  0  0  0  0  0  0  0  0  0  0  0
   68.0317   74.1661   90.6269 C   0  0  0  0  0  0  0  0  0  0  0  0
   68.5491   73.5014   91.7421 C   0  0  0  0  0  0  0  0  0  0  0  0
   67.9763   71.8949   92.1516 Cl  0  0  0  0  0  0  0  0  0  0  0  0
   69.5239   74.1193   92.5305 C   0  0  0  0  0  0  0  0  0  0  0  0
   69.9827   75.3999   92.2063 C   0  0  0  0  0  0  0  0  0  0  0  0
   70.0496   81.9028   90.4176 N   0  0  0  0  0  0  0  0  0  0  0  0
   70.0311   81.9891   91.3982 H   0  0  0  0  0  0  0  0  0  0  0  0
   70.9565   84.6838   88.0658 C   0  0  0  0  0  0  0  0  0  0  0  0
   72.3545   84.7102   88.2057 C   0  0  0  0  0  0  0  0  0  0  0  0
   72.9946   83.8146   89.0639 C   0  0  0  0  0  0  0  0  0  0  0  0
   72.2518   82.8850   89.7936 C   0  0  0  0  0  0  0  0  0  0  0  0
   70.8498   82.8447   89.6754 C   0  0  0  0  0  0  0  0  0  0  0  0
   70.2139   83.7453   88.8044 C   0  0  0  0  0  0  0  0  0  0  0  0
   69.7708   86.6964   87.6029 O   0  0  0  0  0  0  0  0  0  0  0  0
   70.2721   85.6292   87.1559 C   0  0  0  0  0  0  0  0  0  0  0  0
   70.1751   85.3490   85.7952 O   0  0  0  0  0  0  0  0  0  0  0  0
   70.5440   84.5589   85.4522 H   0  0  0  0  0  0  0  0  0  0  0  0
 22 23  2  0  0  0
 23 24  1  0  0  0
 23 16  1  0  0  0
 16 17  2  0  0  0
 17 18  1  0  0  0
 18 19  2  0  0  0
 19 20  1  0  0  0
 20 14  1  0  0  0
 14  1  1  0  0  0
  1  2  1  0  0  0
  2  3  2  0  0  0
  3  4  1  0  0  0
  4  5  2  0  0  0
  5  7  1  0  0  0
  7  8  2  0  0  0
  8  9  1  0  0  0
  9 10  2  0  0  0
 10 11  1  0  0  0
 10 12  1  0  0  0
 12 13  2  0  0  0
  5  6  1  0  0  0
 20 21  2  0  0  0
 21 16  1  0  0  0
  6  2  1  0  0  0
 13  7  1  0  0  0
 24 25  1  0  0  0
 14 15  1  0  0  0
M  END
> <score>
0.010774

> <minimizedAffinity>
-7.82228

$$$$
HIPS5239


 25 27  0  0  0  0  0  0  0  0999 V2000
   67.8500   78.3544   90.3595 C   0  0  0  0  0  0  0  0  0  0  0  0
   69.1609   79.0644   90.2364 C   0  0  0  0  0  0  0  0  0  0  0  0
   70.3963   78.5359   90.5491 C   0  0  0  0  0  0  0  0  0  0  0  0
   71.3053   79.5442   90.3097 C   0  0  0  0  0  0  0  0  0  0  0  0
   70.5637   80.6297   89.8659 C   0  0  0  0  0  0  0  0  0  0  0  0
   69.2897   80.3067   89.8344 O   0  0  0  0  0  0  0  0  0  0  0  0
   71.0756   81.9659   89.4832 C   0  0  0  0  0  0  0  0  0  0  0  0
   70.2595   82.8324   88.7342 C   0  0  0  0  0  0  0  0  0  0  0  0
   70.7213   84.0989   88.3638 C   0  0  0  0  0  0  0  0  0  0  0  0
   72.0025   84.5151   88.7360 C   0  0  0  0  0  0  0  0  0  0  0  0
   72.5799   86.1045   88.2702 Cl  0  0  0  0  0  0  0  0  0  0  0  0
   72.8227   83.6624   89.4799 C   0  0  0  0  0  0  0  0  0  0  0  0
   72.3649   82.3948   89.8529 C   0  0  0  0  0  0  0  0  0  0  0  0
   67.7213   77.3412   89.3123 N   0  0  0  0  0  0  0  0  0  0  0  0
   67.5909   77.6516   88.3872 H   0  0  0  0  0  0  0  0  0  0  0  0
   68.6148   74.0465   90.8727 C   0  0  0  0  0  0  0  0  0  0  0  0
   67.9067   73.1564   90.0474 C   0  0  0  0  0  0  0  0  0  0  0  0
   67.1452   73.6372   88.9810 C   0  0  0  0  0  0  0  0  0  0  0  0
   67.0777   75.0077   88.7251 C   0  0  0  0  0  0  0  0  0  0  0  0
   67.7725   75.9188   89.5426 C   0  0  0  0  0  0  0  0  0  0  0  0
   68.5419   75.4262   90.6099 C   0  0  0  0  0  0  0  0  0  0  0  0
   70.4615   74.1605   92.3718 O   0  0  0  0  0  0  0  0  0  0  0  0
   69.4257   73.5428   92.0035 C   0  0  0  0  0  0  0  0  0  0  0  0
   69.0520   72.3802   92.6728 O   0  0  0  0  0  0  0  0  0  0  0  0
   68.2842   71.9131   92.4077 H   0  0  0  0  0  0  0  0  0  0  0  0
 22 23  2  0  0  0
 23 24  1  0  0  0
 23 16  1  0  0  0
 16 17  2  0  0  0
 17 18  1  0  0  0
 18 19  2  0  0  0
 19 20  1  0  0  0
 20 14  1  0  0  0
 14  1  1  0  0  0
  1  2  1  0  0  0
  2  3  2  0  0  0
  3  4  1  0  0  0
  4  5  2  0  0  0
  5  7  1  0  0  0
  7  8  2  0  0  0
  8  9  1  0  0  0
  9 10  2  0  0  0
 10 11  1  0  0  0
 10 12  1  0  0  0
 12 13  2  0  0  0
  5  6  1  0  0  0
 20 21  2  0  0  0
 21 16  1  0  0  0
  6  2  1  0  0  0
 13  7  1  0  0  0
 24 25  1  0  0  0
 14 15  1  0  0  0
M  END
> <score>
0.010774

> <minimizedAffinity>
-7.72499

$$$$
HIPS5239


 25 27  0  0  0  0  0  0  0  0999 V2000
   66.1818   77.6161   89.0693 C   0  0  0  0  0  0  0  0  0  0  0  0
   66.6801   79.0036   89.3233 C   0  0  0  0  0  0  0  0  0  0  0  0
   65.8981   80.0958   89.6376 C   0  0  0  0  0  0  0  0  0  0  0  0
   66.7695   81.1575   89.7548 C   0  0  0  0  0  0  0  0  0  0  0  0
   68.0334   80.6442   89.5015 C   0  0  0  0  0  0  0  0  0  0  0  0
   67.9413   79.3573   89.2490 O   0  0  0  0  0  0  0  0  0  0  0  0
   69.3152   81.3864   89.4958 C   0  0  0  0  0  0  0  0  0  0  0  0
   69.4102   82.6002   88.7917 C   0  0  0  0  0  0  0  0  0  0  0  0
   70.6094   83.3186   88.7744 C   0  0  0  0  0  0  0  0  0  0  0  0
   71.7274   82.8341   89.4588 C   0  0  0  0  0  0  0  0  0  0  0  0
   73.2311   83.7370   89.4359 Cl  0  0  0  0  0  0  0  0  0  0  0  0
   71.6451   81.6288   90.1615 C   0  0  0  0  0  0  0  0  0  0  0  0
   70.4475   80.9070   90.1818 C   0  0  0  0  0  0  0  0  0  0  0  0
   67.2851   76.7479   88.6587 N   0  0  0  0  0  0  0  0  0  0  0  0
   67.7827   76.9922   87.8451 H   0  0  0  0  0  0  0  0  0  0  0  0
   69.0255   74.5395   91.1450 C   0  0  0  0  0  0  0  0  0  0  0  0
   68.5232   73.2780   90.7833 C   0  0  0  0  0  0  0  0  0  0  0  0
   67.6223   73.1546   89.7243 C   0  0  0  0  0  0  0  0  0  0  0  0
   67.2096   74.2839   89.0153 C   0  0  0  0  0  0  0  0  0  0  0  0
   67.6936   75.5587   89.3642 C   0  0  0  0  0  0  0  0  0  0  0  0
   68.6051   75.6734   90.4272 C   0  0  0  0  0  0  0  0  0  0  0  0
   70.2137   73.7018   93.0311 O   0  0  0  0  0  0  0  0  0  0  0  0
   69.9826   74.6767   92.2654 C   0  0  0  0  0  0  0  0  0  0  0  0
   70.6382   75.8855   92.4852 O   0  0  0  0  0  0  0  0  0  0  0  0
   70.4741   76.6166   91.9226 H   0  0  0  0  0  0  0  0  0  0  0  0
 22 23  2  0  0  0
 23 24  1  0  0  0
 23 16  1  0  0  0
 16 17  2  0  0  0
 17 18  1  0  0  0
 18 19  2  0  0  0
 19 20  1  0  0  0
 20 14  1  0  0  0
 14  1  1  0  0  0
  1  2  1  0  0  0
  2  3  2  0  0  0
  3  4  1  0  0  0
  4  5  2  0  0  0
  5  7  1  0  0  0
  7  8  2  0  0  0
  8  9  1  0  0  0
  9 10  2  0  0  0
 10 11  1  0  0  0
 10 12  1  0  0  0
 12 13  2  0  0  0
  5  6  1  0  0  0
 20 21  2  0  0  0
 21 16  1  0  0  0
  6  2  1  0  0  0
 13  7  1  0  0  0
 24 25  1  0  0  0
 14 15  1  0  0  0
M  END
> <score>
0.010774

> <minimizedAffinity>
-7.63898

$$$$
HIPS529


 31 33  0  0  0  0  0  0  0  0999 V2000
   68.7220   79.6118   89.7618 C   0  0  0  0  0  0  0  0  0  0  0  0
   69.2482   80.9091   89.8554 C   0  0  0  0  0  0  0  0  0  0  0  0
   68.6501   81.8227   88.9861 C   0  0  0  0  0  0  0  0  0  0  0  0
   67.4883   80.9897   88.0908 S   0  0  0  0  0  0  0  0  0  0  0  0
   67.7216   79.4792   88.7919 C   0  0  0  0  0  0  0  0  0  0  0  0
   68.9711   83.2672   88.8507 C   0  0  0  0  0  0  0  0  0  0  0  0
   67.9617   84.2353   89.0033 C   0  0  0  0  0  0  0  0  0  0  0  0
   68.2556   85.5952   88.8775 C   0  0  0  0  0  0  0  0  0  0  0  0
   69.5596   86.0140   88.6006 C   0  0  0  0  0  0  0  0  0  0  0  0
   69.8860   87.7353   88.4505 Cl  0  0  0  0  0  0  0  0  0  0  0  0
   70.5789   85.0606   88.4500 C   0  0  0  0  0  0  0  0  0  0  0  0
   72.3858   85.5797   88.0779 Br  0  0  0  0  0  0  0  0  0  0  0  0
   70.2834   83.6978   88.5757 C   0  0  0  0  0  0  0  0  0  0  0  0
   68.8129   76.8116   92.3728 N   0  0  0  0  0  0  0  0  0  0  0  0
   68.4108   78.0175   91.6819 C   0  0  0  0  0  0  0  0  0  0  0  0
   67.3607   78.6206   92.0381 O   0  0  0  0  0  0  0  0  0  0  0  0
   69.1941   78.5492   90.6007 N   0  0  0  0  0  0  0  0  0  0  0  0
   70.0866   78.1704   90.4300 H   0  0  0  0  0  0  0  0  0  0  0  0
   69.1688   75.9871   94.6645 C   0  0  0  0  0  0  0  0  0  0  0  0
   68.1446   76.4401   93.6298 C   0  0  0  0  0  0  0  0  0  0  0  0
   69.8198   75.9051   91.7967 C   0  0  0  0  0  0  0  0  0  0  0  0
   69.1549   74.7194   91.1495 C   0  0  0  0  0  0  0  0  0  0  0  0
   68.1931   74.8978   90.1404 C   0  0  0  0  0  0  0  0  0  0  0  0
   67.5640   73.7900   89.5639 C   0  0  0  0  0  0  0  0  0  0  0  0
   67.8921   72.4991   89.9866 C   0  0  0  0  0  0  0  0  0  0  0  0
   68.8506   72.3133   90.9864 C   0  0  0  0  0  0  0  0  0  0  0  0
   69.4799   73.4183   91.5678 C   0  0  0  0  0  0  0  0  0  0  0  0
   67.0463   78.2509   88.3411 C   0  0  0  0  0  0  0  0  0  0  0  0
   67.2067   77.8484   87.1581 O   0  0  0  0  0  0  0  0  0  0  0  0
   66.2610   77.5084   89.2158 O   0  0  0  0  0  0  0  0  0  0  0  0
   66.1368   77.8010   90.0973 H   0  0  0  0  0  0  0  0  0  0  0  0
 19 20  1  0  0  0
 20 14  1  0  0  0
 14 21  1  0  0  0
 21 22  1  0  0  0
 22 23  2  0  0  0
 23 24  1  0  0  0
 24 25  2  0  0  0
 25 26  1  0  0  0
 26 27  2  0  0  0
 14 15  1  0  0  0
 15 16  2  0  0  0
 15 17  1  0  0  0
 17  1  1  0  0  0
  1  2  1  0  0  0
  2  3  2  0  0  0
  3  6  1  0  0  0
  6  7  2  0  0  0
  7  8  1  0  0  0
  8  9  2  0  0  0
  9 10  1  0  0  0
  9 11  1  0  0  0
 11 12  1  0  0  0
 11 13  2  0  0  0
  3  4  1  0  0  0
  4  5  1  0  0  0
  5 28  1  0  0  0
 28 29  2  0  0  0
 28 30  1  0  0  0
 27 22  1  0  0  0
  5  1  2  0  0  0
 13  6  1  0  0  0
 17 18  1  0  0  0
 30 31  1  0  0  0
M  END
> <score>
-1.456417

> <minimizedAffinity>
-7.85820

$$$$
HIPS529


 31 33  0  0  0  0  0  0  0  0999 V2000
   67.8024   78.9092   91.1499 C   0  0  0  0  0  0  0  0  0  0  0  0
   68.8122   79.5329   90.4017 C   0  0  0  0  0  0  0  0  0  0  0  0
   68.7857   80.9266   90.4728 C   0  0  0  0  0  0  0  0  0  0  0  0
   67.4814   81.3628   91.4493 S   0  0  0  0  0  0  0  0  0  0  0  0
   66.9452   79.8073   91.7962 C   0  0  0  0  0  0  0  0  0  0  0  0
   69.7199   81.8719   89.8083 C   0  0  0  0  0  0  0  0  0  0  0  0
   71.0745   81.9136   90.1862 C   0  0  0  0  0  0  0  0  0  0  0  0
   71.9589   82.7995   89.5662 C   0  0  0  0  0  0  0  0  0  0  0  0
   71.5103   83.6565   88.5579 C   0  0  0  0  0  0  0  0  0  0  0  0
   72.6569   84.7558   87.8038 Cl  0  0  0  0  0  0  0  0  0  0  0  0
   70.1625   83.6240   88.1663 C   0  0  0  0  0  0  0  0  0  0  0  0
   69.4956   84.7712   86.7837 Br  0  0  0  0  0  0  0  0  0  0  0  0
   69.2766   82.7361   88.7886 C   0  0  0  0  0  0  0  0  0  0  0  0
   68.6128   75.2348   91.8630 N   0  0  0  0  0  0  0  0  0  0  0  0
   68.8006   76.6436   91.5924 C   0  0  0  0  0  0  0  0  0  0  0  0
   69.9554   77.1468   91.6750 O   0  0  0  0  0  0  0  0  0  0  0  0
   67.6942   77.4813   91.2190 N   0  0  0  0  0  0  0  0  0  0  0  0
   66.8313   77.0595   91.0029 H   0  0  0  0  0  0  0  0  0  0  0  0
   69.4789   72.9724   91.4274 C   0  0  0  0  0  0  0  0  0  0  0  0
   69.7878   74.3578   91.9844 C   0  0  0  0  0  0  0  0  0  0  0  0
   67.2708   74.6792   92.1035 C   0  0  0  0  0  0  0  0  0  0  0  0
   66.9578   74.6721   93.5762 C   0  0  0  0  0  0  0  0  0  0  0  0
   65.9477   75.4972   94.0996 C   0  0  0  0  0  0  0  0  0  0  0  0
   65.6826   75.5007   95.4725 C   0  0  0  0  0  0  0  0  0  0  0  0
   66.4192   74.6798   96.3306 C   0  0  0  0  0  0  0  0  0  0  0  0
   67.4223   73.8532   95.8172 C   0  0  0  0  0  0  0  0  0  0  0  0
   67.6929   73.8489   94.4455 C   0  0  0  0  0  0  0  0  0  0  0  0
   65.7178   79.5110   92.5537 C   0  0  0  0  0  0  0  0  0  0  0  0
   64.6086   79.9406   92.1382 O   0  0  0  0  0  0  0  0  0  0  0  0
   65.7621   78.7317   93.7042 O   0  0  0  0  0  0  0  0  0  0  0  0
   66.5830   78.4084   94.0197 H   0  0  0  0  0  0  0  0  0  0  0  0
 19 20  1  0  0  0
 20 14  1  0  0  0
 14 21  1  0  0  0
 21 22  1  0  0  0
 22 23  2  0  0  0
 23 24  1  0  0  0
 24 25  2  0  0  0
 25 26  1  0  0  0
 26 27  2  0  0  0
 14 15  1  0  0  0
 15 16  2  0  0  0
 15 17  1  0  0  0
 17  1  1  0  0  0
  1  2  1  0  0  0
  2  3  2  0  0  0
  3  6  1  0  0  0
  6  7  2  0  0  0
  7  8  1  0  0  0
  8  9  2  0  0  0
  9 10  1  0  0  0
  9 11  1  0  0  0
 11 12  1  0  0  0
 11 13  2  0  0  0
  3  4  1  0  0  0
  4  5  1  0  0  0
  5 28  1  0  0  0
 28 29  2  0  0  0
 28 30  1  0  0  0
 27 22  1  0  0  0
  5  1  2  0  0  0
 13  6  1  0  0  0
 17 18  1  0  0  0
 30 31  1  0  0  0
M  END
> <score>
-1.456417

> <minimizedAffinity>
-7.79560

$$$$
HIPS529


 31 33  0  0  0  0  0  0  0  0999 V2000
   67.7430   79.2657   89.8827 C   0  0  0  0  0  0  0  0  0  0  0  0
   68.3049   80.5498   89.9464 C   0  0  0  0  0  0  0  0  0  0  0  0
   68.0735   81.3222   88.8071 C   0  0  0  0  0  0  0  0  0  0  0  0
   67.1917   80.3789   87.7219 S   0  0  0  0  0  0  0  0  0  0  0  0
   67.0871   78.9981   88.6756 C   0  0  0  0  0  0  0  0  0  0  0  0
   68.5227   82.7185   88.5694 C   0  0  0  0  0  0  0  0  0  0  0  0
   67.5803   83.7566   88.4535 C   0  0  0  0  0  0  0  0  0  0  0  0
   67.9946   85.0718   88.2300 C   0  0  0  0  0  0  0  0  0  0  0  0
   69.3541   85.3758   88.1209 C   0  0  0  0  0  0  0  0  0  0  0  0
   69.8324   87.0443   87.8397 Cl  0  0  0  0  0  0  0  0  0  0  0  0
   70.3072   84.3518   88.2387 C   0  0  0  0  0  0  0  0  0  0  0  0
   72.1844   84.7138   88.1056 Br  0  0  0  0  0  0  0  0  0  0  0  0
   69.8910   83.0338   88.4622 C   0  0  0  0  0  0  0  0  0  0  0  0
   69.1164   76.5895   92.2530 N   0  0  0  0  0  0  0  0  0  0  0  0
   68.8979   77.3593   91.0476 C   0  0  0  0  0  0  0  0  0  0  0  0
   69.6279   77.1584   90.0375 O   0  0  0  0  0  0  0  0  0  0  0  0
   67.8539   78.3441   90.9754 N   0  0  0  0  0  0  0  0  0  0  0  0
   67.1911   78.3875   91.7022 H   0  0  0  0  0  0  0  0  0  0  0  0
   69.3199   74.2477   91.5228 C   0  0  0  0  0  0  0  0  0  0  0  0
   70.0081   75.4199   92.2136 C   0  0  0  0  0  0  0  0  0  0  0  0
   68.5299   77.0056   93.5376 C   0  0  0  0  0  0  0  0  0  0  0  0
   67.6946   75.8970   94.1211 C   0  0  0  0  0  0  0  0  0  0  0  0
   66.3973   75.6471   93.6419 C   0  0  0  0  0  0  0  0  0  0  0  0
   65.6213   74.6311   94.2084 C   0  0  0  0  0  0  0  0  0  0  0  0
   66.1347   73.8563   95.2520 C   0  0  0  0  0  0  0  0  0  0  0  0
   67.4254   74.0958   95.7309 C   0  0  0  0  0  0  0  0  0  0  0  0
   68.2037   75.1128   95.1696 C   0  0  0  0  0  0  0  0  0  0  0  0
   66.4999   77.7270   88.2198 C   0  0  0  0  0  0  0  0  0  0  0  0
   66.1543   76.8599   89.0660 O   0  0  0  0  0  0  0  0  0  0  0  0
   66.2883   77.4854   86.8671 O   0  0  0  0  0  0  0  0  0  0  0  0
   66.5425   78.1252   86.2316 H   0  0  0  0  0  0  0  0  0  0  0  0
 19 20  1  0  0  0
 20 14  1  0  0  0
 14 21  1  0  0  0
 21 22  1  0  0  0
 22 23  2  0  0  0
 23 24  1  0  0  0
 24 25  2  0  0  0
 25 26  1  0  0  0
 26 27  2  0  0  0
 14 15  1  0  0  0
 15 16  2  0  0  0
 15 17  1  0  0  0
 17  1  1  0  0  0
  1  2  1  0  0  0
  2  3  2  0  0  0
  3  6  1  0  0  0
  6  7  2  0  0  0
  7  8  1  0  0  0
  8  9  2  0  0  0
  9 10  1  0  0  0
  9 11  1  0  0  0
 11 12  1  0  0  0
 11 13  2  0  0  0
  3  4  1  0  0  0
  4  5  1  0  0  0
  5 28  1  0  0  0
 28 29  2  0  0  0
 28 30  1  0  0  0
 27 22  1  0  0  0
  5  1  2  0  0  0
 13  6  1  0  0  0
 17 18  1  0  0  0
 30 31  1  0  0  0
M  END
> <score>
-1.456417

> <minimizedAffinity>
-7.79054

$$$$
HIPS550


 40 42  0  0  0  0  0  0  0  0999 V2000
   68.8029   80.5177   90.3695 C   0  0  0  0  0  0  0  0  0  0  0  0
   68.9263   79.2104   89.8807 C   0  0  0  0  0  0  0  0  0  0  0  0
   67.8389   78.3932   90.1878 C   0  0  0  0  0  0  0  0  0  0  0  0
   66.7224   79.3231   91.0444 S   0  0  0  0  0  0  0  0  0  0  0  0
   67.6044   80.7566   91.0463 C   0  0  0  0  0  0  0  0  0  0  0  0
   67.6857   76.9591   89.8389 C   0  0  0  0  0  0  0  0  0  0  0  0
   66.9203   76.5772   88.7256 C   0  0  0  0  0  0  0  0  0  0  0  0
   66.7875   75.2299   88.3847 C   0  0  0  0  0  0  0  0  0  0  0  0
   67.4049   74.2381   89.1522 C   0  0  0  0  0  0  0  0  0  0  0  0
   67.2232   72.5612   88.6489 Cl  0  0  0  0  0  0  0  0  0  0  0  0
   68.1547   74.5987   90.2914 C   0  0  0  0  0  0  0  0  0  0  0  0
   68.2983   75.9587   90.6156 C   0  0  0  0  0  0  0  0  0  0  0  0
   68.8684   73.5686   91.1334 C   0  0  0  0  0  0  0  0  0  0  0  0
   69.5713   74.2440   92.3188 C   0  0  0  0  0  0  0  0  0  0  0  0
   69.9009   73.2597   93.4536 C   0  0  0  0  0  0  0  0  0  0  0  0
   69.1993   73.5843   94.7817 C   0  0  0  0  0  0  0  0  0  0  0  0
   68.0405   74.4521   94.5658 N   0  0  0  0  0  0  0  0  0  0  0  0
   66.7727   74.2428   95.2009 C   0  0  0  0  0  0  0  0  0  0  0  0
   66.6090   73.2816   96.0027 O   0  0  0  0  0  0  0  0  0  0  0  0
   68.1367   75.2174   93.9540 H   0  0  0  0  0  0  0  0  0  0  0  0
   65.7164   75.1133   94.9195 O   0  0  0  0  0  0  0  0  0  0  0  0
   65.7979   76.1161   93.9137 C   0  0  0  0  0  0  0  0  0  0  0  0
   70.8432   83.4120   88.9010 N   0  0  0  0  0  0  0  0  0  0  0  0
   69.8536   82.3618   89.0406 C   0  0  0  0  0  0  0  0  0  0  0  0
   68.9754   82.2117   88.1457 O   0  0  0  0  0  0  0  0  0  0  0  0
   69.8396   81.4877   90.1852 N   0  0  0  0  0  0  0  0  0  0  0  0
   70.5578   81.5588   90.8548 H   0  0  0  0  0  0  0  0  0  0  0  0
   73.1972   82.9403   89.4940 C   0  0  0  0  0  0  0  0  0  0  0  0
   71.8916   83.6169   89.9132 C   0  0  0  0  0  0  0  0  0  0  0  0
   70.7858   84.3315   87.7511 C   0  0  0  0  0  0  0  0  0  0  0  0
   70.9783   85.7534   88.2084 C   0  0  0  0  0  0  0  0  0  0  0  0
   72.2393   86.3651   88.1065 C   0  0  0  0  0  0  0  0  0  0  0  0
   72.4089   87.7000   88.4862 C   0  0  0  0  0  0  0  0  0  0  0  0
   71.3229   88.4336   88.9707 C   0  0  0  0  0  0  0  0  0  0  0  0
   70.0653   87.8333   89.0765 C   0  0  0  0  0  0  0  0  0  0  0  0
   69.8907   86.4984   88.6958 C   0  0  0  0  0  0  0  0  0  0  0  0
   67.1158   82.0344   91.5914 C   0  0  0  0  0  0  0  0  0  0  0  0
   67.8354   82.6901   92.3927 O   0  0  0  0  0  0  0  0  0  0  0  0
   65.8532   82.5119   91.2543 O   0  0  0  0  0  0  0  0  0  0  0  0
   65.3134   82.0295   90.6594 H   0  0  0  0  0  0  0  0  0  0  0  0
 28 29  1  0  0  0
 29 23  1  0  0  0
 23 30  1  0  0  0
 30 31  1  0  0  0
 31 32  2  0  0  0
 32 33  1  0  0  0
 33 34  2  0  0  0
 34 35  1  0  0  0
 35 36  2  0  0  0
 23 24  1  0  0  0
 24 25  2  0  0  0
 24 26  1  0  0  0
 26  1  1  0  0  0
  1  2  1  0  0  0
  2  3  2  0  0  0
  3  6  1  0  0  0
  6  7  2  0  0  0
  7  8  1  0  0  0
  8  9  2  0  0  0
  9 10  1  0  0  0
  9 11  1  0  0  0
 11 13  1  0  0  0
 13 14  1  0  0  0
 14 15  1  0  0  0
 15 16  1  0  0  0
 16 17  1  0  0  0
 17 18  1  0  0  0
 18 19  2  0  0  0
 18 21  1  0  0  0
 21 22  1  0  0  0
 11 12  2  0  0  0
  3  4  1  0  0  0
  4  5  1  0  0  0
  5 37  1  0  0  0
 37 38  2  0  0  0
 37 39  1  0  0  0
 36 31  1  0  0  0
  5  1  2  0  0  0
 12  6  1  0  0  0
 26 27  1  0  0  0
 17 20  1  0  0  0
 39 40  1  0  0  0
M  END
> <score>
-0.492814

> <minimizedAffinity>
-8.35065

$$$$
HIPS550


 40 42  0  0  0  0  0  0  0  0999 V2000
   69.2823   81.1716   89.9095 C   0  0  0  0  0  0  0  0  0  0  0  0
   68.4169   80.1142   89.5995 C   0  0  0  0  0  0  0  0  0  0  0  0
   69.0317   78.8628   89.6229 C   0  0  0  0  0  0  0  0  0  0  0  0
   70.6454   79.0906   90.0580 S   0  0  0  0  0  0  0  0  0  0  0  0
   70.5855   80.7659   90.2074 C   0  0  0  0  0  0  0  0  0  0  0  0
   68.3939   77.5596   89.3118 C   0  0  0  0  0  0  0  0  0  0  0  0
   67.6418   77.3998   88.1372 C   0  0  0  0  0  0  0  0  0  0  0  0
   67.0541   76.1705   87.8330 C   0  0  0  0  0  0  0  0  0  0  0  0
   67.1952   75.0815   88.6981 C   0  0  0  0  0  0  0  0  0  0  0  0
   66.4554   73.5516   88.2393 Cl  0  0  0  0  0  0  0  0  0  0  0  0
   67.9229   75.2290   89.8975 C   0  0  0  0  0  0  0  0  0  0  0  0
   68.5266   76.4651   90.1857 C   0  0  0  0  0  0  0  0  0  0  0  0
   68.1327   74.0751   90.8484 C   0  0  0  0  0  0  0  0  0  0  0  0
   69.4779   74.2199   91.5729 C   0  0  0  0  0  0  0  0  0  0  0  0
   70.0552   72.8696   92.0294 C   0  0  0  0  0  0  0  0  0  0  0  0
   70.0409   72.6705   93.5531 C   0  0  0  0  0  0  0  0  0  0  0  0
   68.7570   73.0793   94.1248 N   0  0  0  0  0  0  0  0  0  0  0  0
   68.5843   74.2770   94.8931 C   0  0  0  0  0  0  0  0  0  0  0  0
   69.5595   75.0515   95.0996 O   0  0  0  0  0  0  0  0  0  0  0  0
   67.9731   72.5030   93.9741 H   0  0  0  0  0  0  0  0  0  0  0  0
   67.3235   74.5768   95.4157 O   0  0  0  0  0  0  0  0  0  0  0  0
   66.1199   74.0746   94.8473 C   0  0  0  0  0  0  0  0  0  0  0  0
   68.7156   84.7921   88.7837 N   0  0  0  0  0  0  0  0  0  0  0  0
   69.2428   83.4436   88.8573 C   0  0  0  0  0  0  0  0  0  0  0  0
   70.0693   83.0506   87.9873 O   0  0  0  0  0  0  0  0  0  0  0  0
   68.8377   82.5324   89.8964 N   0  0  0  0  0  0  0  0  0  0  0  0
   68.2425   82.8519   90.6127 H   0  0  0  0  0  0  0  0  0  0  0  0
   68.4723   85.6818   91.0782 C   0  0  0  0  0  0  0  0  0  0  0  0
   67.7589   85.2967   89.7817 C   0  0  0  0  0  0  0  0  0  0  0  0
   69.0995   85.6743   87.6678 C   0  0  0  0  0  0  0  0  0  0  0  0
   70.2036   86.6058   88.0937 C   0  0  0  0  0  0  0  0  0  0  0  0
   71.5471   86.2101   87.9790 C   0  0  0  0  0  0  0  0  0  0  0  0
   72.5747   87.0912   88.3292 C   0  0  0  0  0  0  0  0  0  0  0  0
   72.2699   88.3722   88.7966 C   0  0  0  0  0  0  0  0  0  0  0  0
   70.9366   88.7741   88.9150 C   0  0  0  0  0  0  0  0  0  0  0  0
   69.9053   87.8963   88.5638 C   0  0  0  0  0  0  0  0  0  0  0  0
   71.7072   81.6017   90.6676 C   0  0  0  0  0  0  0  0  0  0  0  0
   71.9413   81.7123   91.9016 O   0  0  0  0  0  0  0  0  0  0  0  0
   72.4944   82.2962   89.7545 O   0  0  0  0  0  0  0  0  0  0  0  0
   72.3257   82.2184   88.8361 H   0  0  0  0  0  0  0  0  0  0  0  0
 28 29  1  0  0  0
 29 23  1  0  0  0
 23 30  1  0  0  0
 30 31  1  0  0  0
 31 32  2  0  0  0
 32 33  1  0  0  0
 33 34  2  0  0  0
 34 35  1  0  0  0
 35 36  2  0  0  0
 23 24  1  0  0  0
 24 25  2  0  0  0
 24 26  1  0  0  0
 26  1  1  0  0  0
  1  2  1  0  0  0
  2  3  2  0  0  0
  3  6  1  0  0  0
  6  7  2  0  0  0
  7  8  1  0  0  0
  8  9  2  0  0  0
  9 10  1  0  0  0
  9 11  1  0  0  0
 11 13  1  0  0  0
 13 14  1  0  0  0
 14 15  1  0  0  0
 15 16  1  0  0  0
 16 17  1  0  0  0
 17 18  1  0  0  0
 18 19  2  0  0  0
 18 21  1  0  0  0
 21 22  1  0  0  0
 11 12  2  0  0  0
  3  4  1  0  0  0
  4  5  1  0  0  0
  5 37  1  0  0  0
 37 38  2  0  0  0
 37 39  1  0  0  0
 36 31  1  0  0  0
  5  1  2  0  0  0
 12  6  1  0  0  0
 26 27  1  0  0  0
 17 20  1  0  0  0
 39 40  1  0  0  0
M  END
> <score>
-0.492814

> <minimizedAffinity>
-8.26034

$$$$
HIPS550


 40 42  0  0  0  0  0  0  0  0999 V2000
   68.1176   79.6710   90.0309 C   0  0  0  0  0  0  0  0  0  0  0  0
   68.5296   78.4612   90.6052 C   0  0  0  0  0  0  0  0  0  0  0  0
   68.1532   77.3367   89.8716 C   0  0  0  0  0  0  0  0  0  0  0  0
   67.3322   77.8698   88.4979 S   0  0  0  0  0  0  0  0  0  0  0  0
   67.4332   79.5182   88.8226 C   0  0  0  0  0  0  0  0  0  0  0  0
   68.4127   75.9204   90.2307 C   0  0  0  0  0  0  0  0  0  0  0  0
   69.3863   75.5981   91.1894 C   0  0  0  0  0  0  0  0  0  0  0  0
   69.6216   74.2679   91.5418 C   0  0  0  0  0  0  0  0  0  0  0  0
   68.8998   73.2341   90.9382 C   0  0  0  0  0  0  0  0  0  0  0  0
   69.2237   71.5818   91.4512 Cl  0  0  0  0  0  0  0  0  0  0  0  0
   67.9371   73.5346   89.9519 C   0  0  0  0  0  0  0  0  0  0  0  0
   67.6941   74.8779   89.6175 C   0  0  0  0  0  0  0  0  0  0  0  0
   67.1078   72.4575   89.2948 C   0  0  0  0  0  0  0  0  0  0  0  0
   66.4312   73.0036   88.0301 C   0  0  0  0  0  0  0  0  0  0  0  0
   67.2041   72.6578   86.7463 C   0  0  0  0  0  0  0  0  0  0  0  0
   66.8792   71.2664   86.1807 C   0  0  0  0  0  0  0  0  0  0  0  0
   65.7712   71.3323   85.2265 N   0  0  0  0  0  0  0  0  0  0  0  0
   65.7970   70.6880   83.9463 C   0  0  0  0  0  0  0  0  0  0  0  0
   66.8008   70.0101   83.5907 O   0  0  0  0  0  0  0  0  0  0  0  0
   64.9684   71.8445   85.4763 H   0  0  0  0  0  0  0  0  0  0  0  0
   64.6989   70.8218   83.0927 O   0  0  0  0  0  0  0  0  0  0  0  0
   63.3691   70.5273   83.5037 C   0  0  0  0  0  0  0  0  0  0  0  0
   69.7515   83.0331   90.8807 N   0  0  0  0  0  0  0  0  0  0  0  0
   69.5357   81.7148   90.3176 C   0  0  0  0  0  0  0  0  0  0  0  0
   70.3726   81.2442   89.4973 O   0  0  0  0  0  0  0  0  0  0  0  0
   68.3797   80.9284   90.6631 N   0  0  0  0  0  0  0  0  0  0  0  0
   67.7567   81.2625   91.3484 H   0  0  0  0  0  0  0  0  0  0  0  0
   69.5308   84.0437   93.1270 C   0  0  0  0  0  0  0  0  0  0  0  0
   68.8088   83.6172   91.8483 C   0  0  0  0  0  0  0  0  0  0  0  0
   70.9091   83.8378   90.4525 C   0  0  0  0  0  0  0  0  0  0  0  0
   70.6008   84.5528   89.1634 C   0  0  0  0  0  0  0  0  0  0  0  0
   70.9456   83.9713   87.9315 C   0  0  0  0  0  0  0  0  0  0  0  0
   70.6175   84.6114   86.7325 C   0  0  0  0  0  0  0  0  0  0  0  0
   69.9444   85.8356   86.7536 C   0  0  0  0  0  0  0  0  0  0  0  0
   69.5984   86.4220   87.9741 C   0  0  0  0  0  0  0  0  0  0  0  0
   69.9229   85.7840   89.1761 C   0  0  0  0  0  0  0  0  0  0  0  0
   66.9561   80.5763   87.9164 C   0  0  0  0  0  0  0  0  0  0  0  0
   65.7474   80.5967   87.5579 O   0  0  0  0  0  0  0  0  0  0  0  0
   67.8338   81.5383   87.4265 O   0  0  0  0  0  0  0  0  0  0  0  0
   68.7333   81.5288   87.6889 H   0  0  0  0  0  0  0  0  0  0  0  0
 28 29  1  0  0  0
 29 23  1  0  0  0
 23 30  1  0  0  0
 30 31  1  0  0  0
 31 32  2  0  0  0
 32 33  1  0  0  0
 33 34  2  0  0  0
 34 35  1  0  0  0
 35 36  2  0  0  0
 23 24  1  0  0  0
 24 25  2  0  0  0
 24 26  1  0  0  0
 26  1  1  0  0  0
  1  2  1  0  0  0
  2  3  2  0  0  0
  3  6  1  0  0  0
  6  7  2  0  0  0
  7  8  1  0  0  0
  8  9  2  0  0  0
  9 10  1  0  0  0
  9 11  1  0  0  0
 11 13  1  0  0  0
 13 14  1  0  0  0
 14 15  1  0  0  0
 15 16  1  0  0  0
 16 17  1  0  0  0
 17 18  1  0  0  0
 18 19  2  0  0  0
 18 21  1  0  0  0
 21 22  1  0  0  0
 11 12  2  0  0  0
  3  4  1  0  0  0
  4  5  1  0  0  0
  5 37  1  0  0  0
 37 38  2  0  0  0
 37 39  1  0  0  0
 36 31  1  0  0  0
  5  1  2  0  0  0
 12  6  1  0  0  0
 26 27  1  0  0  0
 17 20  1  0  0  0
 39 40  1  0  0  0
M  END
> <score>
-0.492814

> <minimizedAffinity>
-8.22038

$$$$
HIPS5763


 24 26  0  0  0  0  0  0  0  0999 V2000
   71.3570   82.8392   89.5599 C   0  0  0  0  0  0  0  0  0  0  0  0
   71.1763   81.4786   89.8698 C   0  0  0  0  0  0  0  0  0  0  0  0
   69.8979   80.9081   89.8642 C   0  0  0  0  0  0  0  0  0  0  0  0
   68.7857   81.6925   89.5491 C   0  0  0  0  0  0  0  0  0  0  0  0
   68.9468   83.0479   89.2595 C   0  0  0  0  0  0  0  0  0  0  0  0
   70.2168   83.6376   89.2817 C   0  0  0  0  0  0  0  0  0  0  0  0
   70.2958   85.0141   89.0579 O   0  0  0  0  0  0  0  0  0  0  0  0
   69.5182   85.5048   88.8773 H   0  0  0  0  0  0  0  0  0  0  0  0
   73.0185   84.3678   88.7928 O   0  0  0  0  0  0  0  0  0  0  0  0
   72.7377   83.3677   89.5063 C   0  0  0  0  0  0  0  0  0  0  0  0
   73.7546   82.7193   90.2021 O   0  0  0  0  0  0  0  0  0  0  0  0
   73.5564   81.9748   90.7354 H   0  0  0  0  0  0  0  0  0  0  0  0
   69.7327   79.5103   90.1628 C   0  0  0  0  0  0  0  0  0  0  0  0
   69.5974   78.3403   90.4194 C   0  0  0  0  0  0  0  0  0  0  0  0
   69.4385   76.9396   90.7332 C   0  0  0  0  0  0  0  0  0  0  0  0
   70.1724   76.4107   91.8041 C   0  0  0  0  0  0  0  0  0  0  0  0
   70.0543   75.0633   92.1481 C   0  0  0  0  0  0  0  0  0  0  0  0
   69.2019   74.2257   91.4280 C   0  0  0  0  0  0  0  0  0  0  0  0
   68.4560   74.7312   90.3525 C   0  0  0  0  0  0  0  0  0  0  0  0
   67.5980   73.8863   89.6311 C   0  0  0  0  0  0  0  0  0  0  0  0
   66.8541   74.3867   88.5610 C   0  0  0  0  0  0  0  0  0  0  0  0
   66.9595   75.7305   88.1996 C   0  0  0  0  0  0  0  0  0  0  0  0
   67.8085   76.5853   88.9065 C   0  0  0  0  0  0  0  0  0  0  0  0
   68.5690   76.1011   89.9933 C   0  0  0  0  0  0  0  0  0  0  0  0
  9 10  2  0  0  0
 10 11  1  0  0  0
 10  1  1  0  0  0
  1  2  2  0  0  0
  2  3  1  0  0  0
  3 13  1  0  0  0
 13 14  3  0  0  0
 14 15  1  0  0  0
 15 16  2  0  0  0
 16 17  1  0  0  0
 17 18  2  0  0  0
 18 19  1  0  0  0
 19 20  2  0  0  0
 20 21  1  0  0  0
 21 22  2  0  0  0
 22 23  1  0  0  0
 23 24  2  0  0  0
  3  4  2  0  0  0
  4  5  1  0  0  0
  5  6  2  0  0  0
  6  7  1  0  0  0
  6  1  1  0  0  0
 24 15  1  0  0  0
 24 19  1  0  0  0
 11 12  1  0  0  0
  7  8  1  0  0  0
M  END
> <score>
-0.581274

> <minimizedAffinity>
-8.20191

$$$$
HIPS5763


 24 26  0  0  0  0  0  0  0  0999 V2000
   70.8779   84.1749   88.3180 C   0  0  0  0  0  0  0  0  0  0  0  0
   70.5089   82.8695   88.6916 C   0  0  0  0  0  0  0  0  0  0  0  0
   71.3792   82.0672   89.4391 C   0  0  0  0  0  0  0  0  0  0  0  0
   72.6287   82.5618   89.8208 C   0  0  0  0  0  0  0  0  0  0  0  0
   73.0168   83.8470   89.4405 C   0  0  0  0  0  0  0  0  0  0  0  0
   72.1657   84.6535   88.6748 C   0  0  0  0  0  0  0  0  0  0  0  0
   72.6486   85.8983   88.2646 O   0  0  0  0  0  0  0  0  0  0  0  0
   73.5053   86.1766   88.5224 H   0  0  0  0  0  0  0  0  0  0  0  0
   68.7230   85.1605   88.0513 O   0  0  0  0  0  0  0  0  0  0  0  0
   69.8872   85.0028   87.5954 C   0  0  0  0  0  0  0  0  0  0  0  0
   70.2206   85.5661   86.3665 O   0  0  0  0  0  0  0  0  0  0  0  0
   71.0835   85.4547   86.0187 H   0  0  0  0  0  0  0  0  0  0  0  0
   70.9782   80.7421   89.8311 C   0  0  0  0  0  0  0  0  0  0  0  0
   70.6455   79.6293   90.1535 C   0  0  0  0  0  0  0  0  0  0  0  0
   70.2500   78.2935   90.5339 C   0  0  0  0  0  0  0  0  0  0  0  0
   70.9999   77.6325   91.5168 C   0  0  0  0  0  0  0  0  0  0  0  0
   70.6588   76.3407   91.9200 C   0  0  0  0  0  0  0  0  0  0  0  0
   69.5646   75.6912   91.3478 C   0  0  0  0  0  0  0  0  0  0  0  0
   68.7977   76.3316   90.3627 C   0  0  0  0  0  0  0  0  0  0  0  0
   67.6963   75.6761   89.7902 C   0  0  0  0  0  0  0  0  0  0  0  0
   66.9311   76.3112   88.8104 C   0  0  0  0  0  0  0  0  0  0  0  0
   67.2567   77.6021   88.3918 C   0  0  0  0  0  0  0  0  0  0  0  0
   68.3494   78.2690   88.9508 C   0  0  0  0  0  0  0  0  0  0  0  0
   69.1362   77.6465   89.9443 C   0  0  0  0  0  0  0  0  0  0  0  0
  9 10  2  0  0  0
 10 11  1  0  0  0
 10  1  1  0  0  0
  1  2  2  0  0  0
  2  3  1  0  0  0
  3 13  1  0  0  0
 13 14  3  0  0  0
 14 15  1  0  0  0
 15 16  2  0  0  0
 16 17  1  0  0  0
 17 18  2  0  0  0
 18 19  1  0  0  0
 19 20  2  0  0  0
 20 21  1  0  0  0
 21 22  2  0  0  0
 22 23  1  0  0  0
 23 24  2  0  0  0
  3  4  2  0  0  0
  4  5  1  0  0  0
  5  6  2  0  0  0
  6  7  1  0  0  0
  6  1  1  0  0  0
 24 15  1  0  0  0
 24 19  1  0  0  0
 11 12  1  0  0  0
  7  8  1  0  0  0
M  END
> <score>
-0.581274

> <minimizedAffinity>
-8.08630

$$$$
HIPS5763


 24 26  0  0  0  0  0  0  0  0999 V2000
   68.9763   81.8801   89.2284 C   0  0  0  0  0  0  0  0  0  0  0  0
   68.7813   80.5148   89.5075 C   0  0  0  0  0  0  0  0  0  0  0  0
   69.8179   79.7392   90.0403 C   0  0  0  0  0  0  0  0  0  0  0  0
   71.0614   80.3206   90.2994 C   0  0  0  0  0  0  0  0  0  0  0  0
   71.2760   81.6684   90.0089 C   0  0  0  0  0  0  0  0  0  0  0  0
   70.2554   82.4519   89.4560 C   0  0  0  0  0  0  0  0  0  0  0  0
   70.5627   83.7721   89.1190 O   0  0  0  0  0  0  0  0  0  0  0  0
   71.4201   84.1110   89.2863 H   0  0  0  0  0  0  0  0  0  0  0  0
   67.1818   82.3040   87.7164 O   0  0  0  0  0  0  0  0  0  0  0  0
   67.8226   82.6665   88.7392 C   0  0  0  0  0  0  0  0  0  0  0  0
   67.4746   83.8545   89.3764 O   0  0  0  0  0  0  0  0  0  0  0  0
   67.9447   84.1329   90.1376 H   0  0  0  0  0  0  0  0  0  0  0  0
   69.5956   78.3495   90.3397 C   0  0  0  0  0  0  0  0  0  0  0  0
   69.4144   77.1834   90.5855 C   0  0  0  0  0  0  0  0  0  0  0  0
   69.2020   75.7846   90.8750 C   0  0  0  0  0  0  0  0  0  0  0  0
   69.8795   75.2208   91.9651 C   0  0  0  0  0  0  0  0  0  0  0  0
   69.7083   73.8737   92.2870 C   0  0  0  0  0  0  0  0  0  0  0  0
   68.8584   73.0711   91.5253 C   0  0  0  0  0  0  0  0  0  0  0  0
   68.1684   73.6118   90.4298 C   0  0  0  0  0  0  0  0  0  0  0  0
   67.3127   72.8022   89.6665 C   0  0  0  0  0  0  0  0  0  0  0  0
   66.6244   73.3377   88.5764 C   0  0  0  0  0  0  0  0  0  0  0  0
   66.7833   74.6819   88.2366 C   0  0  0  0  0  0  0  0  0  0  0  0
   67.6309   75.5019   88.9853 C   0  0  0  0  0  0  0  0  0  0  0  0
   68.3357   74.9819   90.0928 C   0  0  0  0  0  0  0  0  0  0  0  0
  9 10  2  0  0  0
 10 11  1  0  0  0
 10  1  1  0  0  0
  1  2  2  0  0  0
  2  3  1  0  0  0
  3 13  1  0  0  0
 13 14  3  0  0  0
 14 15  1  0  0  0
 15 16  2  0  0  0
 16 17  1  0  0  0
 17 18  2  0  0  0
 18 19  1  0  0  0
 19 20  2  0  0  0
 20 21  1  0  0  0
 21 22  2  0  0  0
 22 23  1  0  0  0
 23 24  2  0  0  0
  3  4  2  0  0  0
  4  5  1  0  0  0
  5  6  2  0  0  0
  6  7  1  0  0  0
  6  1  1  0  0  0
 24 15  1  0  0  0
 24 19  1  0  0  0
 11 12  1  0  0  0
  7  8  1  0  0  0
M  END
> <score>
-0.581274

> <minimizedAffinity>
-8.07617

$$$$
HIPS5765


 29 30  0  0  0  0  0  0  0  0999 V2000
   70.1950   81.2984   89.8892 C   0  0  0  0  0  0  0  0  0  0  0  0
   70.8492   80.0969   90.2331 C   0  0  0  0  0  0  0  0  0  0  0  0
   70.2006   78.8679   90.1717 C   0  0  0  0  0  0  0  0  0  0  0  0
   68.8635   78.8088   89.7891 C   0  0  0  0  0  0  0  0  0  0  0  0
   68.1375   79.9651   89.4217 C   0  0  0  0  0  0  0  0  0  0  0  0
   68.8331   81.2227   89.4635 C   0  0  0  0  0  0  0  0  0  0  0  0
   68.2128   82.4175   89.0891 O   0  0  0  0  0  0  0  0  0  0  0  0
   67.3204   82.4127   88.8036 H   0  0  0  0  0  0  0  0  0  0  0  0
   70.3356   83.5403   91.0915 C   0  0  0  0  0  0  0  0  0  0  0  0
   70.9452   82.6627   89.9731 C   0  0  0  0  0  0  0  0  0  0  0  0
   72.4511   82.4302   90.2434 C   0  0  0  0  0  0  0  0  0  0  0  0
   70.8566   83.4903   88.6626 C   0  0  0  0  0  0  0  0  0  0  0  0
   66.6295   79.8476   89.0375 C   0  0  0  0  0  0  0  0  0  0  0  0
   66.2704   78.3534   88.8419 C   0  0  0  0  0  0  0  0  0  0  0  0
   65.7258   80.5078   90.1247 C   0  0  0  0  0  0  0  0  0  0  0  0
   66.2829   80.5414   87.6893 C   0  0  0  0  0  0  0  0  0  0  0  0
   70.9189   77.6141   90.6024 C   0  0  0  0  0  0  0  0  0  0  0  0
   69.9515   76.6660   91.2584 C   0  0  0  0  0  0  0  0  0  0  0  0
   69.0846   75.8904   90.4786 C   0  0  0  0  0  0  0  0  0  0  0  0
   68.1512   75.0522   91.0882 C   0  0  0  0  0  0  0  0  0  0  0  0
   68.0564   74.9819   92.4826 C   0  0  0  0  0  0  0  0  0  0  0  0
   67.0476   74.1819   93.0242 O   0  0  0  0  0  0  0  0  0  0  0  0
   68.9464   75.7402   93.2851 C   0  0  0  0  0  0  0  0  0  0  0  0
   69.8704   76.5944   92.6571 C   0  0  0  0  0  0  0  0  0  0  0  0
   66.4802   73.6963   92.4583 H   0  0  0  0  0  0  0  0  0  0  0  0
   68.9636   75.6553   94.7621 C   0  0  0  0  0  0  0  0  0  0  0  0
   68.0385   75.0689   95.3850 O   0  0  0  0  0  0  0  0  0  0  0  0
   70.0429   76.1737   95.4728 O   0  0  0  0  0  0  0  0  0  0  0  0
   70.7359   76.6115   95.0189 H   0  0  0  0  0  0  0  0  0  0  0  0
  9 10  1  0  0  0
 10 11  1  0  0  0
 10 12  1  0  0  0
 10  1  1  0  0  0
  1  2  2  0  0  0
  2  3  1  0  0  0
  3 17  1  0  0  0
 17 18  1  0  0  0
 18 19  2  0  0  0
 19 20  1  0  0  0
 20 21  2  0  0  0
 21 22  1  0  0  0
 21 23  1  0  0  0
 23 26  1  0  0  0
 26 27  2  0  0  0
 26 28  1  0  0  0
 23 24  2  0  0  0
  3  4  2  0  0  0
  4  5  1  0  0  0
  5 13  1  0  0  0
 13 14  1  0  0  0
 13 15  1  0  0  0
 13 16  1  0  0  0
  5  6  2  0  0  0
  6  7  1  0  0  0
  6  1  1  0  0  0
 24 18  1  0  0  0
 22 25  1  0  0  0
 28 29  1  0  0  0
  7  8  1  0  0  0
M  END
> <score>
-0.529992

> <minimizedAffinity>
-8.12961

$$$$
HIPS5765


 29 30  0  0  0  0  0  0  0  0999 V2000
   68.0732   79.9196   89.4175 C   0  0  0  0  0  0  0  0  0  0  0  0
   68.7986   78.7779   89.8179 C   0  0  0  0  0  0  0  0  0  0  0  0
   70.1224   78.8626   90.2365 C   0  0  0  0  0  0  0  0  0  0  0  0
   70.7703   80.0946   90.2400 C   0  0  0  0  0  0  0  0  0  0  0  0
   70.1133   81.2877   89.8605 C   0  0  0  0  0  0  0  0  0  0  0  0
   68.7366   81.1845   89.4587 C   0  0  0  0  0  0  0  0  0  0  0  0
   67.9913   82.3094   89.0962 O   0  0  0  0  0  0  0  0  0  0  0  0
   68.3879   83.1583   89.1094 H   0  0  0  0  0  0  0  0  0  0  0  0
   66.2302   78.3090   88.7099 C   0  0  0  0  0  0  0  0  0  0  0  0
   66.5920   79.7941   88.9472 C   0  0  0  0  0  0  0  0  0  0  0  0
   65.6411   80.4092   90.0019 C   0  0  0  0  0  0  0  0  0  0  0  0
   66.3092   80.5376   87.6139 C   0  0  0  0  0  0  0  0  0  0  0  0
   70.8973   82.6369   89.8458 C   0  0  0  0  0  0  0  0  0  0  0  0
   70.8316   83.2467   88.4233 C   0  0  0  0  0  0  0  0  0  0  0  0
   70.3251   83.6240   90.9102 C   0  0  0  0  0  0  0  0  0  0  0  0
   72.4114   82.4714   90.1609 C   0  0  0  0  0  0  0  0  0  0  0  0
   70.8790   77.6106   90.6020 C   0  0  0  0  0  0  0  0  0  0  0  0
   69.9555   76.6269   91.2686 C   0  0  0  0  0  0  0  0  0  0  0  0
   69.1408   75.7889   90.4971 C   0  0  0  0  0  0  0  0  0  0  0  0
   68.2459   74.9156   91.1152 C   0  0  0  0  0  0  0  0  0  0  0  0
   68.1378   74.8714   92.5097 C   0  0  0  0  0  0  0  0  0  0  0  0
   67.1664   74.0307   93.0581 O   0  0  0  0  0  0  0  0  0  0  0  0
   68.9761   75.6938   93.3046 C   0  0  0  0  0  0  0  0  0  0  0  0
   69.8610   76.5820   92.6676 C   0  0  0  0  0  0  0  0  0  0  0  0
   66.6327   73.5030   92.4971 H   0  0  0  0  0  0  0  0  0  0  0  0
   68.9796   75.6427   94.7832 C   0  0  0  0  0  0  0  0  0  0  0  0
   68.0451   75.0769   95.4110 O   0  0  0  0  0  0  0  0  0  0  0  0
   70.0560   76.1702   95.4916 O   0  0  0  0  0  0  0  0  0  0  0  0
   70.7560   76.5929   95.0341 H   0  0  0  0  0  0  0  0  0  0  0  0
  9 10  1  0  0  0
 10 11  1  0  0  0
 10 12  1  0  0  0
 10  1  1  0  0  0
  1  2  2  0  0  0
  2  3  1  0  0  0
  3 17  1  0  0  0
 17 18  1  0  0  0
 18 19  2  0  0  0
 19 20  1  0  0  0
 20 21  2  0  0  0
 21 22  1  0  0  0
 21 23  1  0  0  0
 23 26  1  0  0  0
 26 27  2  0  0  0
 26 28  1  0  0  0
 23 24  2  0  0  0
  3  4  2  0  0  0
  4  5  1  0  0  0
  5 13  1  0  0  0
 13 14  1  0  0  0
 13 15  1  0  0  0
 13 16  1  0  0  0
  5  6  2  0  0  0
  6  7  1  0  0  0
  6  1  1  0  0  0
 24 18  1  0  0  0
 22 25  1  0  0  0
 28 29  1  0  0  0
  7  8  1  0  0  0
M  END
> <score>
-0.529992

> <minimizedAffinity>
-8.08429

$$$$
HIPS5765


 29 30  0  0  0  0  0  0  0  0999 V2000
   69.8468   71.6594   92.6954 C   0  0  0  0  0  0  0  0  0  0  0  0
   69.2562   71.8543   91.4292 C   0  0  0  0  0  0  0  0  0  0  0  0
   68.3241   72.8620   91.2048 C   0  0  0  0  0  0  0  0  0  0  0  0
   67.9332   73.6901   92.2531 C   0  0  0  0  0  0  0  0  0  0  0  0
   68.4818   73.5661   93.5504 C   0  0  0  0  0  0  0  0  0  0  0  0
   69.4653   72.5377   93.7561 C   0  0  0  0  0  0  0  0  0  0  0  0
   70.0891   72.3552   94.9930 O   0  0  0  0  0  0  0  0  0  0  0  0
   69.8681   72.9095   95.7154 H   0  0  0  0  0  0  0  0  0  0  0  0
   72.2530   71.1120   93.3291 C   0  0  0  0  0  0  0  0  0  0  0  0
   70.8848   70.5178   92.9198 C   0  0  0  0  0  0  0  0  0  0  0  0
   70.3820   69.5436   94.0120 C   0  0  0  0  0  0  0  0  0  0  0  0
   71.1357   69.6618   91.6492 C   0  0  0  0  0  0  0  0  0  0  0  0
   67.9803   74.4956   94.6994 C   0  0  0  0  0  0  0  0  0  0  0  0
   67.4201   73.6229   95.8502 C   0  0  0  0  0  0  0  0  0  0  0  0
   69.1278   75.4253   95.2030 C   0  0  0  0  0  0  0  0  0  0  0  0
   66.8096   75.4255   94.2709 C   0  0  0  0  0  0  0  0  0  0  0  0
   67.6745   73.0001   89.8511 C   0  0  0  0  0  0  0  0  0  0  0  0
   67.6408   74.4479   89.4413 C   0  0  0  0  0  0  0  0  0  0  0  0
   66.8795   74.8516   88.3374 C   0  0  0  0  0  0  0  0  0  0  0  0
   66.8912   76.1840   87.9253 C   0  0  0  0  0  0  0  0  0  0  0  0
   67.6705   77.1332   88.5961 C   0  0  0  0  0  0  0  0  0  0  0  0
   67.6957   78.4316   88.0817 O   0  0  0  0  0  0  0  0  0  0  0  0
   68.4246   76.7448   89.7325 C   0  0  0  0  0  0  0  0  0  0  0  0
   68.4172   75.3946   90.1261 C   0  0  0  0  0  0  0  0  0  0  0  0
   67.1820   78.6471   87.3283 H   0  0  0  0  0  0  0  0  0  0  0  0
   69.2050   77.7056   90.5429 C   0  0  0  0  0  0  0  0  0  0  0  0
   70.3579   77.4120   90.9578 O   0  0  0  0  0  0  0  0  0  0  0  0
   68.6894   78.9731   90.8007 O   0  0  0  0  0  0  0  0  0  0  0  0
   67.8330   79.2013   90.4964 H   0  0  0  0  0  0  0  0  0  0  0  0
  9 10  1  0  0  0
 10 11  1  0  0  0
 10 12  1  0  0  0
 10  1  1  0  0  0
  1  2  2  0  0  0
  2  3  1  0  0  0
  3 17  1  0  0  0
 17 18  1  0  0  0
 18 19  2  0  0  0
 19 20  1  0  0  0
 20 21  2  0  0  0
 21 22  1  0  0  0
 21 23  1  0  0  0
 23 26  1  0  0  0
 26 27  2  0  0  0
 26 28  1  0  0  0
 23 24  2  0  0  0
  3  4  2  0  0  0
  4  5  1  0  0  0
  5 13  1  0  0  0
 13 14  1  0  0  0
 13 15  1  0  0  0
 13 16  1  0  0  0
  5  6  2  0  0  0
  6  7  1  0  0  0
  6  1  1  0  0  0
 24 18  1  0  0  0
 22 25  1  0  0  0
 28 29  1  0  0  0
  7  8  1  0  0  0
M  END
> <score>
-0.529992

> <minimizedAffinity>
-7.96305

$$$$
HIPS5841


 27 30  0  0  0  0  0  0  0  0999 V2000
   69.1198   79.0390   90.3284 N   0  0  0  0  0  0  0  0  0  0  0  0
   70.1856   79.6438   89.7667 C   0  0  0  0  0  0  0  0  0  0  0  0
   69.9788   81.0015   89.8982 C   0  0  0  0  0  0  0  0  0  0  0  0
   68.8145   81.1864   90.5517 N   0  0  0  0  0  0  0  0  0  0  0  0
   68.3146   79.9835   90.7931 N   0  0  0  0  0  0  0  0  0  0  0  0
   70.9130   82.0830   89.5048 C   0  0  0  0  0  0  0  0  0  0  0  0
   72.1701   82.1287   90.1331 C   0  0  0  0  0  0  0  0  0  0  0  0
   73.0693   83.1590   89.8631 C   0  0  0  0  0  0  0  0  0  0  0  0
   72.7356   84.1641   88.9595 C   0  0  0  0  0  0  0  0  0  0  0  0
   71.5011   84.1374   88.2974 C   0  0  0  0  0  0  0  0  0  0  0  0
   71.1847   85.1438   87.3709 C   0  0  0  0  0  0  0  0  0  0  0  0
   69.9738   85.1089   86.6801 C   0  0  0  0  0  0  0  0  0  0  0  0
   69.0747   84.0661   86.8971 C   0  0  0  0  0  0  0  0  0  0  0  0
   69.3713   83.0582   87.8179 C   0  0  0  0  0  0  0  0  0  0  0  0
   70.5773   83.0858   88.5530 C   0  0  0  0  0  0  0  0  0  0  0  0
   69.1974   75.5128   91.6480 C   0  0  0  0  0  0  0  0  0  0  0  0
   69.4401   76.8903   91.4988 C   0  0  0  0  0  0  0  0  0  0  0  0
   68.8616   77.6241   90.4481 C   0  0  0  0  0  0  0  0  0  0  0  0
   68.0224   76.9568   89.5399 C   0  0  0  0  0  0  0  0  0  0  0  0
   67.7904   75.5871   89.6657 C   0  0  0  0  0  0  0  0  0  0  0  0
   68.3852   74.8514   90.6946 C   0  0  0  0  0  0  0  0  0  0  0  0
   68.1719   73.4711   90.7126 O   0  0  0  0  0  0  0  0  0  0  0  0
   67.6269   73.0727   90.0627 H   0  0  0  0  0  0  0  0  0  0  0  0
   69.7521   75.3523   93.9615 O   0  0  0  0  0  0  0  0  0  0  0  0
   69.7799   74.8209   92.8193 C   0  0  0  0  0  0  0  0  0  0  0  0
   70.4213   73.5964   92.6523 O   0  0  0  0  0  0  0  0  0  0  0  0
   70.4476   73.1928   91.8071 H   0  0  0  0  0  0  0  0  0  0  0  0
 24 25  2  0  0  0
 25 26  1  0  0  0
 25 16  1  0  0  0
 16 17  2  0  0  0
 17 18  1  0  0  0
 18  1  1  0  0  0
  1  2  1  0  0  0
  2  3  2  0  0  0
  3  6  1  0  0  0
  6  7  2  0  0  0
  7  8  1  0  0  0
  8  9  2  0  0  0
  9 10  1  0  0  0
 10 11  2  0  0  0
 11 12  1  0  0  0
 12 13  2  0  0  0
 13 14  1  0  0  0
 14 15  2  0  0  0
  3  4  2  0  0  0
  4  5  2  0  0  0
 18 19  2  0  0  0
 19 20  1  0  0  0
 20 21  2  0  0  0
 21 22  1  0  0  0
 21 16  1  0  0  0
  5  1  1  0  0  0
 15  6  1  0  0  0
 15 10  1  0  0  0
 26 27  1  0  0  0
 22 23  1  0  0  0
M  END
> <score>
0.350785

> <minimizedAffinity>
-8.79314

$$$$
HIPS5841


 27 30  0  0  0  0  0  0  0  0999 V2000
   69.2960   80.4600   90.0248 N   0  0  0  0  0  0  0  0  0  0  0  0
   69.8123   79.2187   90.1239 C   0  0  0  0  0  0  0  0  0  0  0  0
   68.8515   78.4438   90.7401 C   0  0  0  0  0  0  0  0  0  0  0  0
   67.7756   79.2205   90.9767 N   0  0  0  0  0  0  0  0  0  0  0  0
   68.0752   80.4348   90.5400 N   0  0  0  0  0  0  0  0  0  0  0  0
   68.9202   76.9860   90.9993 C   0  0  0  0  0  0  0  0  0  0  0  0
   69.7093   76.5446   92.0762 C   0  0  0  0  0  0  0  0  0  0  0  0
   69.8753   75.1848   92.3332 C   0  0  0  0  0  0  0  0  0  0  0  0
   69.2565   74.2361   91.5237 C   0  0  0  0  0  0  0  0  0  0  0  0
   68.4439   74.6402   90.4563 C   0  0  0  0  0  0  0  0  0  0  0  0
   67.8063   73.6749   89.6608 C   0  0  0  0  0  0  0  0  0  0  0  0
   66.9676   74.0652   88.6172 C   0  0  0  0  0  0  0  0  0  0  0  0
   66.7478   75.4185   88.3656 C   0  0  0  0  0  0  0  0  0  0  0  0
   67.3768   76.3928   89.1448 C   0  0  0  0  0  0  0  0  0  0  0  0
   68.2547   76.0248   90.1884 C   0  0  0  0  0  0  0  0  0  0  0  0
   69.7762   83.5567   87.9364 C   0  0  0  0  0  0  0  0  0  0  0  0
   69.2095   82.4006   88.5031 C   0  0  0  0  0  0  0  0  0  0  0  0
   69.9089   81.6345   89.4523 C   0  0  0  0  0  0  0  0  0  0  0  0
   71.1959   82.0464   89.8373 C   0  0  0  0  0  0  0  0  0  0  0  0
   71.7764   83.1796   89.2675 C   0  0  0  0  0  0  0  0  0  0  0  0
   71.0926   83.9276   88.3049 C   0  0  0  0  0  0  0  0  0  0  0  0
   71.7654   85.0030   87.7202 O   0  0  0  0  0  0  0  0  0  0  0  0
   72.6364   85.2150   87.9931 H   0  0  0  0  0  0  0  0  0  0  0  0
   67.7029   84.2083   86.9553 O   0  0  0  0  0  0  0  0  0  0  0  0
   68.9537   84.3541   86.9997 C   0  0  0  0  0  0  0  0  0  0  0  0
   69.5696   85.2327   86.1123 O   0  0  0  0  0  0  0  0  0  0  0  0
   70.4991   85.3485   86.1370 H   0  0  0  0  0  0  0  0  0  0  0  0
 24 25  2  0  0  0
 25 26  1  0  0  0
 25 16  1  0  0  0
 16 17  2  0  0  0
 17 18  1  0  0  0
 18  1  1  0  0  0
  1  2  1  0  0  0
  2  3  2  0  0  0
  3  6  1  0  0  0
  6  7  2  0  0  0
  7  8  1  0  0  0
  8  9  2  0  0  0
  9 10  1  0  0  0
 10 11  2  0  0  0
 11 12  1  0  0  0
 12 13  2  0  0  0
 13 14  1  0  0  0
 14 15  2  0  0  0
  3  4  2  0  0  0
  4  5  2  0  0  0
 18 19  2  0  0  0
 19 20  1  0  0  0
 20 21  2  0  0  0
 21 22  1  0  0  0
 21 16  1  0  0  0
  5  1  1  0  0  0
 15  6  1  0  0  0
 15 10  1  0  0  0
 26 27  1  0  0  0
 22 23  1  0  0  0
M  END
> <score>
0.350785

> <minimizedAffinity>
-8.58297

$$$$
HIPS5841


 27 30  0  0  0  0  0  0  0  0999 V2000
   68.8324   79.1739   90.1474 N   0  0  0  0  0  0  0  0  0  0  0  0
   69.0187   77.9747   89.5607 C   0  0  0  0  0  0  0  0  0  0  0  0
   68.1367   77.1026   90.1647 C   0  0  0  0  0  0  0  0  0  0  0  0
   67.4258   77.7925   91.0788 N   0  0  0  0  0  0  0  0  0  0  0  0
   67.8721   79.0395   91.0509 N   0  0  0  0  0  0  0  0  0  0  0  0
   67.9091   75.6822   89.8072 C   0  0  0  0  0  0  0  0  0  0  0  0
   67.0562   75.4037   88.7246 C   0  0  0  0  0  0  0  0  0  0  0  0
   66.7422   74.0904   88.3788 C   0  0  0  0  0  0  0  0  0  0  0  0
   67.2736   73.0270   89.1033 C   0  0  0  0  0  0  0  0  0  0  0  0
   68.1457   73.2668   90.1733 C   0  0  0  0  0  0  0  0  0  0  0  0
   68.6937   72.1858   90.8821 C   0  0  0  0  0  0  0  0  0  0  0  0
   69.5899   72.4110   91.9266 C   0  0  0  0  0  0  0  0  0  0  0  0
   69.9565   73.7126   92.2651 C   0  0  0  0  0  0  0  0  0  0  0  0
   69.4184   74.8003   91.5730 C   0  0  0  0  0  0  0  0  0  0  0  0
   68.4856   74.6014   90.5310 C   0  0  0  0  0  0  0  0  0  0  0  0
   69.4531   82.6972   88.9718 C   0  0  0  0  0  0  0  0  0  0  0  0
   68.8206   81.4713   89.2468 C   0  0  0  0  0  0  0  0  0  0  0  0
   69.5121   80.4158   89.8672 C   0  0  0  0  0  0  0  0  0  0  0  0
   70.8593   80.6049   90.2188 C   0  0  0  0  0  0  0  0  0  0  0  0
   71.5030   81.8090   89.9329 C   0  0  0  0  0  0  0  0  0  0  0  0
   70.8242   82.8499   89.2931 C   0  0  0  0  0  0  0  0  0  0  0  0
   71.5527   83.9963   88.9674 O   0  0  0  0  0  0  0  0  0  0  0  0
   72.4587   84.0570   89.1985 H   0  0  0  0  0  0  0  0  0  0  0  0
   67.5335   84.1091   88.8871 O   0  0  0  0  0  0  0  0  0  0  0  0
   68.6435   83.7880   88.3847 C   0  0  0  0  0  0  0  0  0  0  0  0
   69.0796   84.4291   87.2281 O   0  0  0  0  0  0  0  0  0  0  0  0
   69.9035   84.1977   86.8465 H   0  0  0  0  0  0  0  0  0  0  0  0
 24 25  2  0  0  0
 25 26  1  0  0  0
 25 16  1  0  0  0
 16 17  2  0  0  0
 17 18  1  0  0  0
 18  1  1  0  0  0
  1  2  1  0  0  0
  2  3  2  0  0  0
  3  6  1  0  0  0
  6  7  2  0  0  0
  7  8  1  0  0  0
  8  9  2  0  0  0
  9 10  1  0  0  0
 10 11  2  0  0  0
 11 12  1  0  0  0
 12 13  2  0  0  0
 13 14  1  0  0  0
 14 15  2  0  0  0
  3  4  2  0  0  0
  4  5  2  0  0  0
 18 19  2  0  0  0
 19 20  1  0  0  0
 20 21  2  0  0  0
 21 22  1  0  0  0
 21 16  1  0  0  0
  5  1  1  0  0  0
 15  6  1  0  0  0
 15 10  1  0  0  0
 26 27  1  0  0  0
 22 23  1  0  0  0
M  END
> <score>
0.350785

> <minimizedAffinity>
-8.55538

$$$$
HIPS5842


 24 26  0  0  0  0  0  0  0  0999 V2000
   68.9184   74.9423   90.9034 C   0  0  0  0  0  0  0  0  0  0  0  0
   68.6350   76.2906   90.6169 C   0  0  0  0  0  0  0  0  0  0  0  0
   67.7330   76.6445   89.5954 C   0  0  0  0  0  0  0  0  0  0  0  0
   67.1084   75.6228   88.8635 C   0  0  0  0  0  0  0  0  0  0  0  0
   67.3660   74.2830   89.1513 C   0  0  0  0  0  0  0  0  0  0  0  0
   68.2472   73.9285   90.1765 C   0  0  0  0  0  0  0  0  0  0  0  0
   68.3986   72.5695   90.4611 O   0  0  0  0  0  0  0  0  0  0  0  0
   67.9359   71.9305   89.9555 H   0  0  0  0  0  0  0  0  0  0  0  0
   67.4452   78.0258   89.2906 N   0  0  0  0  0  0  0  0  0  0  0  0
   68.3173   79.0184   89.0209 C   0  0  0  0  0  0  0  0  0  0  0  0
   67.5621   80.1526   88.7878 C   0  0  0  0  0  0  0  0  0  0  0  0
   66.2622   79.8186   88.9202 N   0  0  0  0  0  0  0  0  0  0  0  0
   66.2219   78.5299   89.2227 N   0  0  0  0  0  0  0  0  0  0  0  0
   68.0438   81.5119   88.4450 C   0  0  0  0  0  0  0  0  0  0  0  0
   67.4009   82.2493   87.4335 C   0  0  0  0  0  0  0  0  0  0  0  0
   67.8442   83.5326   87.0998 C   0  0  0  0  0  0  0  0  0  0  0  0
   68.9330   84.0955   87.7705 C   0  0  0  0  0  0  0  0  0  0  0  0
   69.5366   85.8486   87.3126 Br  0  0  0  0  0  0  0  0  0  0  0  0
   69.5796   83.3732   88.7770 C   0  0  0  0  0  0  0  0  0  0  0  0
   69.1399   82.0893   89.1144 C   0  0  0  0  0  0  0  0  0  0  0  0
   70.3591   73.4688   92.1027 O   0  0  0  0  0  0  0  0  0  0  0  0
   69.9335   74.6432   91.9380 C   0  0  0  0  0  0  0  0  0  0  0  0
   70.4724   75.6771   92.6992 O   0  0  0  0  0  0  0  0  0  0  0  0
   70.1628   76.5540   92.5844 H   0  0  0  0  0  0  0  0  0  0  0  0
 21 22  2  0  0  0
 22 23  1  0  0  0
 22  1  1  0  0  0
  1  2  2  0  0  0
  2  3  1  0  0  0
  3  9  1  0  0  0
  9 10  1  0  0  0
 10 11  2  0  0  0
 11 14  1  0  0  0
 14 15  2  0  0  0
 15 16  1  0  0  0
 16 17  2  0  0  0
 17 18  1  0  0  0
 17 19  1  0  0  0
 19 20  2  0  0  0
 11 12  2  0  0  0
 12 13  2  0  0  0
  3  4  2  0  0  0
  4  5  1  0  0  0
  5  6  2  0  0  0
  6  7  1  0  0  0
  6  1  1  0  0  0
 13  9  1  0  0  0
 20 14  1  0  0  0
 23 24  1  0  0  0
  7  8  1  0  0  0
M  END
> <score>
0.271508

> <minimizedAffinity>
-7.40867

$$$$
HIPS5842


 24 26  0  0  0  0  0  0  0  0999 V2000
   70.3283   83.9494   88.2260 C   0  0  0  0  0  0  0  0  0  0  0  0
   69.6529   82.7949   88.6631 C   0  0  0  0  0  0  0  0  0  0  0  0
   70.2776   81.8637   89.5146 C   0  0  0  0  0  0  0  0  0  0  0  0
   71.5951   82.1091   89.9315 C   0  0  0  0  0  0  0  0  0  0  0  0
   72.2677   83.2595   89.5211 C   0  0  0  0  0  0  0  0  0  0  0  0
   71.6441   84.1944   88.6904 C   0  0  0  0  0  0  0  0  0  0  0  0
   72.3485   85.3604   88.3819 O   0  0  0  0  0  0  0  0  0  0  0  0
   73.2177   85.4832   88.7097 H   0  0  0  0  0  0  0  0  0  0  0  0
   69.5934   80.6728   89.9590 N   0  0  0  0  0  0  0  0  0  0  0  0
   70.0329   79.3983   89.9258 C   0  0  0  0  0  0  0  0  0  0  0  0
   69.0257   78.6212   90.4668 C   0  0  0  0  0  0  0  0  0  0  0  0
   68.0111   79.4399   90.8119 N   0  0  0  0  0  0  0  0  0  0  0  0
   68.3818   80.6712   90.4948 N   0  0  0  0  0  0  0  0  0  0  0  0
   69.0149   77.1516   90.6607 C   0  0  0  0  0  0  0  0  0  0  0  0
   69.8956   76.5597   91.5848 C   0  0  0  0  0  0  0  0  0  0  0  0
   69.8963   75.1750   91.7782 C   0  0  0  0  0  0  0  0  0  0  0  0
   69.0190   74.3647   91.0529 C   0  0  0  0  0  0  0  0  0  0  0  0
   69.0220   72.4735   91.3191 Br  0  0  0  0  0  0  0  0  0  0  0  0
   68.1394   74.9407   90.1325 C   0  0  0  0  0  0  0  0  0  0  0  0
   68.1349   76.3252   89.9356 C   0  0  0  0  0  0  0  0  0  0  0  0
   68.4586   85.2305   87.4856 O   0  0  0  0  0  0  0  0  0  0  0  0
   69.6393   84.8462   87.2714 C   0  0  0  0  0  0  0  0  0  0  0  0
   70.3195   85.3226   86.1538 O   0  0  0  0  0  0  0  0  0  0  0  0
   71.1978   85.0430   85.9854 H   0  0  0  0  0  0  0  0  0  0  0  0
 21 22  2  0  0  0
 22 23  1  0  0  0
 22  1  1  0  0  0
  1  2  2  0  0  0
  2  3  1  0  0  0
  3  9  1  0  0  0
  9 10  1  0  0  0
 10 11  2  0  0  0
 11 14  1  0  0  0
 14 15  2  0  0  0
 15 16  1  0  0  0
 16 17  2  0  0  0
 17 18  1  0  0  0
 17 19  1  0  0  0
 19 20  2  0  0  0
 11 12  2  0  0  0
 12 13  2  0  0  0
  3  4  2  0  0  0
  4  5  1  0  0  0
  5  6  2  0  0  0
  6  7  1  0  0  0
  6  1  1  0  0  0
 13  9  1  0  0  0
 20 14  1  0  0  0
 23 24  1  0  0  0
  7  8  1  0  0  0
M  END
> <score>
0.271508

> <minimizedAffinity>
-7.40311

$$$$
HIPS5842


 24 26  0  0  0  0  0  0  0  0999 V2000
   69.0476   73.9428   92.6176 C   0  0  0  0  0  0  0  0  0  0  0  0
   69.6689   75.1729   92.3324 C   0  0  0  0  0  0  0  0  0  0  0  0
   69.3845   75.8750   91.1456 C   0  0  0  0  0  0  0  0  0  0  0  0
   68.4578   75.3287   90.2444 C   0  0  0  0  0  0  0  0  0  0  0  0
   67.8208   74.1205   90.5253 C   0  0  0  0  0  0  0  0  0  0  0  0
   68.0876   73.4302   91.7107 C   0  0  0  0  0  0  0  0  0  0  0  0
   67.3568   72.2669   91.9629 O   0  0  0  0  0  0  0  0  0  0  0  0
   66.7309   71.9617   91.3360 H   0  0  0  0  0  0  0  0  0  0  0  0
   70.0255   77.1326   90.8431 N   0  0  0  0  0  0  0  0  0  0  0  0
   69.4451   78.3157   90.5567 C   0  0  0  0  0  0  0  0  0  0  0  0
   70.4722   79.2169   90.3478 C   0  0  0  0  0  0  0  0  0  0  0  0
   71.6388   78.5608   90.5135 N   0  0  0  0  0  0  0  0  0  0  0  0
   71.3386   77.3060   90.8123 N   0  0  0  0  0  0  0  0  0  0  0  0
   70.3651   80.6557   90.0074 C   0  0  0  0  0  0  0  0  0  0  0  0
   69.1231   81.1954   89.6250 C   0  0  0  0  0  0  0  0  0  0  0  0
   69.0072   82.5505   89.3015 C   0  0  0  0  0  0  0  0  0  0  0  0
   70.1279   83.3832   89.3556 C   0  0  0  0  0  0  0  0  0  0  0  0
   69.9668   85.2341   88.9131 Br  0  0  0  0  0  0  0  0  0  0  0  0
   71.3667   82.8592   89.7341 C   0  0  0  0  0  0  0  0  0  0  0  0
   71.4877   81.5044   90.0587 C   0  0  0  0  0  0  0  0  0  0  0  0
   68.6036   72.9473   94.7382 O   0  0  0  0  0  0  0  0  0  0  0  0
   69.4498   73.2218   93.8458 C   0  0  0  0  0  0  0  0  0  0  0  0
   70.7637   72.7856   93.9944 O   0  0  0  0  0  0  0  0  0  0  0  0
   71.4006   72.9845   93.3366 H   0  0  0  0  0  0  0  0  0  0  0  0
 21 22  2  0  0  0
 22 23  1  0  0  0
 22  1  1  0  0  0
  1  2  2  0  0  0
  2  3  1  0  0  0
  3  9  1  0  0  0
  9 10  1  0  0  0
 10 11  2  0  0  0
 11 14  1  0  0  0
 14 15  2  0  0  0
 15 16  1  0  0  0
 16 17  2  0  0  0
 17 18  1  0  0  0
 17 19  1  0  0  0
 19 20  2  0  0  0
 11 12  2  0  0  0
 12 13  2  0  0  0
  3  4  2  0  0  0
  4  5  1  0  0  0
  5  6  2  0  0  0
  6  7  1  0  0  0
  6  1  1  0  0  0
 13  9  1  0  0  0
 20 14  1  0  0  0
 23 24  1  0  0  0
  7  8  1  0  0  0
M  END
> <score>
0.271508

> <minimizedAffinity>
-7.38253

$$$$
HIPS5843


 25 27  0  0  0  0  0  0  0  0999 V2000
   70.1034   76.9868   90.9740 N   0  0  0  0  0  0  0  0  0  0  0  0
   69.5349   78.1484   90.5930 C   0  0  0  0  0  0  0  0  0  0  0  0
   70.5655   79.0557   90.4317 C   0  0  0  0  0  0  0  0  0  0  0  0
   71.7222   78.4228   90.7156 N   0  0  0  0  0  0  0  0  0  0  0  0
   71.4130   77.1760   91.0385 N   0  0  0  0  0  0  0  0  0  0  0  0
   69.1806   73.7814   92.7256 C   0  0  0  0  0  0  0  0  0  0  0  0
   69.7983   75.0086   92.4175 C   0  0  0  0  0  0  0  0  0  0  0  0
   69.4525   75.7310   91.2611 C   0  0  0  0  0  0  0  0  0  0  0  0
   68.4648   75.2103   90.4080 C   0  0  0  0  0  0  0  0  0  0  0  0
   67.8448   73.9961   90.7014 C   0  0  0  0  0  0  0  0  0  0  0  0
   68.1930   73.2757   91.8507 C   0  0  0  0  0  0  0  0  0  0  0  0
   67.5553   72.0638   92.1167 O   0  0  0  0  0  0  0  0  0  0  0  0
   66.9020   71.7392   91.5287 H   0  0  0  0  0  0  0  0  0  0  0  0
   68.7626   72.8616   94.8941 O   0  0  0  0  0  0  0  0  0  0  0  0
   69.5839   73.0550   93.9577 C   0  0  0  0  0  0  0  0  0  0  0  0
   70.8849   72.5760   94.0927 O   0  0  0  0  0  0  0  0  0  0  0  0
   71.5076   72.7115   93.4058 H   0  0  0  0  0  0  0  0  0  0  0  0
   70.4714   80.4758   90.0166 C   0  0  0  0  0  0  0  0  0  0  0  0
   71.6129   81.2985   89.9639 C   0  0  0  0  0  0  0  0  0  0  0  0
   71.5045   82.6368   89.5694 C   0  0  0  0  0  0  0  0  0  0  0  0
   72.9345   83.6514   89.5079 Cl  0  0  0  0  0  0  0  0  0  0  0  0
   70.2586   83.1668   89.2239 C   0  0  0  0  0  0  0  0  0  0  0  0
   69.1185   82.3604   89.2718 C   0  0  0  0  0  0  0  0  0  0  0  0
   67.5552   83.0273   88.8373 Cl  0  0  0  0  0  0  0  0  0  0  0  0
   69.2230   81.0219   89.6656 C   0  0  0  0  0  0  0  0  0  0  0  0
 14 15  2  0  0  0
 15 16  1  0  0  0
 15  6  1  0  0  0
  6  7  2  0  0  0
  7  8  1  0  0  0
  8  1  1  0  0  0
  1  2  1  0  0  0
  2  3  2  0  0  0
  3 18  1  0  0  0
 18 19  2  0  0  0
 19 20  1  0  0  0
 20 21  1  0  0  0
 20 22  2  0  0  0
 22 23  1  0  0  0
 23 24  1  0  0  0
 23 25  2  0  0  0
  3  4  2  0  0  0
  4  5  2  0  0  0
  8  9  2  0  0  0
  9 10  1  0  0  0
 10 11  2  0  0  0
 11 12  1  0  0  0
 11  6  1  0  0  0
  5  1  1  0  0  0
 25 18  1  0  0  0
 16 17  1  0  0  0
 12 13  1  0  0  0
M  END
> <score>
-0.078002

> <minimizedAffinity>
-7.73085

$$$$
HIPS5843


 25 27  0  0  0  0  0  0  0  0999 V2000
   70.0613   77.1314   90.8363 N   0  0  0  0  0  0  0  0  0  0  0  0
   69.4998   78.3174   90.5265 C   0  0  0  0  0  0  0  0  0  0  0  0
   70.5405   79.2096   90.3468 C   0  0  0  0  0  0  0  0  0  0  0  0
   71.6959   78.5440   90.5496 N   0  0  0  0  0  0  0  0  0  0  0  0
   71.3762   77.2924   90.8423 N   0  0  0  0  0  0  0  0  0  0  0  0
   69.0863   73.9312   92.5691 C   0  0  0  0  0  0  0  0  0  0  0  0
   69.7161   75.1554   92.2738 C   0  0  0  0  0  0  0  0  0  0  0  0
   69.3986   75.8788   91.1100 C   0  0  0  0  0  0  0  0  0  0  0  0
   68.4268   75.3624   90.2362 C   0  0  0  0  0  0  0  0  0  0  0  0
   67.7950   74.1512   90.5168 C   0  0  0  0  0  0  0  0  0  0  0  0
   68.1152   73.4298   91.6735 C   0  0  0  0  0  0  0  0  0  0  0  0
   67.4662   72.2210   91.9263 O   0  0  0  0  0  0  0  0  0  0  0  0
   66.8241   71.8992   91.3246 H   0  0  0  0  0  0  0  0  0  0  0  0
   68.6034   72.9633   94.7028 O   0  0  0  0  0  0  0  0  0  0  0  0
   69.4597   73.2036   93.8098 C   0  0  0  0  0  0  0  0  0  0  0  0
   70.7714   72.7755   94.0013 O   0  0  0  0  0  0  0  0  0  0  0  0
   71.4201   72.9462   93.3471 H   0  0  0  0  0  0  0  0  0  0  0  0
   70.4566   80.6457   89.9886 C   0  0  0  0  0  0  0  0  0  0  0  0
   69.2191   81.2587   89.7135 C   0  0  0  0  0  0  0  0  0  0  0  0
   69.1595   82.6158   89.3772 C   0  0  0  0  0  0  0  0  0  0  0  0
   67.6113   83.3676   89.0367 Cl  0  0  0  0  0  0  0  0  0  0  0  0
   70.3316   83.3737   89.3124 C   0  0  0  0  0  0  0  0  0  0  0  0
   71.5656   82.7771   89.5837 C   0  0  0  0  0  0  0  0  0  0  0  0
   73.0361   83.7303   89.5022 Cl  0  0  0  0  0  0  0  0  0  0  0  0
   71.6290   81.4205   89.9203 C   0  0  0  0  0  0  0  0  0  0  0  0
 14 15  2  0  0  0
 15 16  1  0  0  0
 15  6  1  0  0  0
  6  7  2  0  0  0
  7  8  1  0  0  0
  8  1  1  0  0  0
  1  2  1  0  0  0
  2  3  2  0  0  0
  3 18  1  0  0  0
 18 19  2  0  0  0
 19 20  1  0  0  0
 20 21  1  0  0  0
 20 22  2  0  0  0
 22 23  1  0  0  0
 23 24  1  0  0  0
 23 25  2  0  0  0
  3  4  2  0  0  0
  4  5  2  0  0  0
  8  9  2  0  0  0
  9 10  1  0  0  0
 10 11  2  0  0  0
 11 12  1  0  0  0
 11  6  1  0  0  0
  5  1  1  0  0  0
 25 18  1  0  0  0
 16 17  1  0  0  0
 12 13  1  0  0  0
M  END
> <score>
-0.078002

> <minimizedAffinity>
-7.71360

$$$$
HIPS5843


 25 27  0  0  0  0  0  0  0  0999 V2000
   68.4979   78.1377   90.4401 N   0  0  0  0  0  0  0  0  0  0  0  0
   69.3006   78.9384   89.7103 C   0  0  0  0  0  0  0  0  0  0  0  0
   68.9637   80.2380   90.0402 C   0  0  0  0  0  0  0  0  0  0  0  0
   67.9744   80.1895   90.9555 N   0  0  0  0  0  0  0  0  0  0  0  0
   67.7146   78.9100   91.1784 N   0  0  0  0  0  0  0  0  0  0  0  0
   69.1401   74.5831   91.5109 C   0  0  0  0  0  0  0  0  0  0  0  0
   69.1554   75.9902   91.4629 C   0  0  0  0  0  0  0  0  0  0  0  0
   68.4635   76.6950   90.4613 C   0  0  0  0  0  0  0  0  0  0  0  0
   67.7407   75.9691   89.4994 C   0  0  0  0  0  0  0  0  0  0  0  0
   67.7167   74.5752   89.5355 C   0  0  0  0  0  0  0  0  0  0  0  0
   68.4097   73.8746   90.5306 C   0  0  0  0  0  0  0  0  0  0  0  0
   68.3670   72.4802   90.5399 O   0  0  0  0  0  0  0  0  0  0  0  0
   67.8790   72.0220   89.8843 H   0  0  0  0  0  0  0  0  0  0  0  0
   70.5635   72.8488   92.3410 O   0  0  0  0  0  0  0  0  0  0  0  0
   69.8903   73.8854   92.5874 C   0  0  0  0  0  0  0  0  0  0  0  0
   69.8575   74.3735   93.8916 O   0  0  0  0  0  0  0  0  0  0  0  0
   69.3617   75.1431   94.0915 H   0  0  0  0  0  0  0  0  0  0  0  0
   69.5562   81.4924   89.5174 C   0  0  0  0  0  0  0  0  0  0  0  0
   68.7943   82.3970   88.7532 C   0  0  0  0  0  0  0  0  0  0  0  0
   69.3707   83.5763   88.2683 C   0  0  0  0  0  0  0  0  0  0  0  0
   68.4106   84.6952   87.3174 Cl  0  0  0  0  0  0  0  0  0  0  0  0
   70.7106   83.8648   88.5407 C   0  0  0  0  0  0  0  0  0  0  0  0
   71.4769   82.9754   89.2982 C   0  0  0  0  0  0  0  0  0  0  0  0
   73.1588   83.3394   89.6394 Cl  0  0  0  0  0  0  0  0  0  0  0  0
   70.9040   81.7953   89.7847 C   0  0  0  0  0  0  0  0  0  0  0  0
 14 15  2  0  0  0
 15 16  1  0  0  0
 15  6  1  0  0  0
  6  7  2  0  0  0
  7  8  1  0  0  0
  8  1  1  0  0  0
  1  2  1  0  0  0
  2  3  2  0  0  0
  3 18  1  0  0  0
 18 19  2  0  0  0
 19 20  1  0  0  0
 20 21  1  0  0  0
 20 22  2  0  0  0
 22 23  1  0  0  0
 23 24  1  0  0  0
 23 25  2  0  0  0
  3  4  2  0  0  0
  4  5  2  0  0  0
  8  9  2  0  0  0
  9 10  1  0  0  0
 10 11  2  0  0  0
 11 12  1  0  0  0
 11  6  1  0  0  0
  5  1  1  0  0  0
 25 18  1  0  0  0
 16 17  1  0  0  0
 12 13  1  0  0  0
M  END
> <score>
-0.078002

> <minimizedAffinity>
-7.60763

$$$$
HIPS5844


 25 26  0  0  0  0  0  0  0  0999 V2000
   66.9686   76.8319   92.2774 O   0  0  0  0  0  0  0  0  0  0  0  0
   68.1664   74.2057   94.6092 C   0  0  0  0  0  0  0  0  0  0  0  0
   68.1085   75.1499   93.5652 C   0  0  0  0  0  0  0  0  0  0  0  0
   66.9579   75.9135   93.3402 C   0  0  0  0  0  0  0  0  0  0  0  0
   65.8432   75.7371   94.1766 C   0  0  0  0  0  0  0  0  0  0  0  0
   65.8844   74.8063   95.2143 C   0  0  0  0  0  0  0  0  0  0  0  0
   67.0349   74.0380   95.4390 C   0  0  0  0  0  0  0  0  0  0  0  0
   67.0453   73.1147   96.4844 O   0  0  0  0  0  0  0  0  0  0  0  0
   66.2884   73.0132   97.0273 H   0  0  0  0  0  0  0  0  0  0  0  0
   69.5931   72.7900   95.8921 O   0  0  0  0  0  0  0  0  0  0  0  0
   69.4075   73.4131   94.8115 C   0  0  0  0  0  0  0  0  0  0  0  0
   70.3818   73.3435   93.8195 O   0  0  0  0  0  0  0  0  0  0  0  0
   70.2601   73.8002   93.0104 H   0  0  0  0  0  0  0  0  0  0  0  0
   68.1271   77.2251   91.5398 C   0  0  0  0  0  0  0  0  0  0  0  0
   67.8933   77.0948   90.0511 C   0  0  0  0  0  0  0  0  0  0  0  0
   67.2866   75.9271   89.5591 C   0  0  0  0  0  0  0  0  0  0  0  0
   67.0649   75.7599   88.1909 C   0  0  0  0  0  0  0  0  0  0  0  0
   67.4765   76.7428   87.2781 C   0  0  0  0  0  0  0  0  0  0  0  0
   68.0804   77.9135   87.7647 C   0  0  0  0  0  0  0  0  0  0  0  0
   68.3063   78.0885   89.1356 C   0  0  0  0  0  0  0  0  0  0  0  0
   69.1089   79.5686   89.6532 Cl  0  0  0  0  0  0  0  0  0  0  0  0
   67.1917   76.5862   85.8052 C   0  0  0  0  0  0  0  0  0  0  0  0
   67.2752   75.2563   85.4305 F   0  0  0  0  0  0  0  0  0  0  0  0
   65.9206   77.0416   85.5004 F   0  0  0  0  0  0  0  0  0  0  0  0
   68.1169   77.3166   85.0832 F   0  0  0  0  0  0  0  0  0  0  0  0
 10 11  2  0  0  0
 11 12  1  0  0  0
 11  2  1  0  0  0
  2  3  2  0  0  0
  3  4  1  0  0  0
  4  1  1  0  0  0
  1 14  1  0  0  0
 14 15  1  0  0  0
 15 16  2  0  0  0
 16 17  1  0  0  0
 17 18  2  0  0  0
 18 22  1  0  0  0
 22 23  1  0  0  0
 22 24  1  0  0  0
 22 25  1  0  0  0
 18 19  1  0  0  0
 19 20  2  0  0  0
 20 21  1  0  0  0
  4  5  2  0  0  0
  5  6  1  0  0  0
  6  7  2  0  0  0
  7  8  1  0  0  0
  7  2  1  0  0  0
 20 15  1  0  0  0
 12 13  1  0  0  0
  8  9  1  0  0  0
M  END
> <score>
0.007454

> <minimizedAffinity>
-7.93765

$$$$
HIPS5844


 25 26  0  0  0  0  0  0  0  0999 V2000
   68.2639   79.3029   89.0505 O   0  0  0  0  0  0  0  0  0  0  0  0
   69.3968   76.3369   90.9710 C   0  0  0  0  0  0  0  0  0  0  0  0
   69.2652   77.6535   90.4869 C   0  0  0  0  0  0  0  0  0  0  0  0
   68.3367   77.9706   89.4896 C   0  0  0  0  0  0  0  0  0  0  0  0
   67.5174   76.9559   88.9674 C   0  0  0  0  0  0  0  0  0  0  0  0
   67.6355   75.6476   89.4357 C   0  0  0  0  0  0  0  0  0  0  0  0
   68.5677   75.3274   90.4321 C   0  0  0  0  0  0  0  0  0  0  0  0
   68.6627   74.0097   90.8793 O   0  0  0  0  0  0  0  0  0  0  0  0
   68.1070   73.3496   90.5138 H   0  0  0  0  0  0  0  0  0  0  0  0
   70.2058   75.0952   92.8389 O   0  0  0  0  0  0  0  0  0  0  0  0
   70.3983   76.0427   92.0292 C   0  0  0  0  0  0  0  0  0  0  0  0
   71.5597   76.8015   92.1462 O   0  0  0  0  0  0  0  0  0  0  0  0
   71.7187   77.5091   91.5531 H   0  0  0  0  0  0  0  0  0  0  0  0
   68.2223   80.4498   89.9012 C   0  0  0  0  0  0  0  0  0  0  0  0
   69.3183   81.4297   89.5456 C   0  0  0  0  0  0  0  0  0  0  0  0
   70.5516   81.3400   90.2124 C   0  0  0  0  0  0  0  0  0  0  0  0
   71.5853   82.2331   89.9247 C   0  0  0  0  0  0  0  0  0  0  0  0
   71.3981   83.2599   88.9871 C   0  0  0  0  0  0  0  0  0  0  0  0
   70.1685   83.3523   88.3151 C   0  0  0  0  0  0  0  0  0  0  0  0
   69.1267   82.4603   88.5982 C   0  0  0  0  0  0  0  0  0  0  0  0
   67.6042   82.6768   87.7394 Cl  0  0  0  0  0  0  0  0  0  0  0  0
   72.5305   84.1934   88.6385 C   0  0  0  0  0  0  0  0  0  0  0  0
   73.5791   84.0428   89.5295 F   0  0  0  0  0  0  0  0  0  0  0  0
   73.0057   83.9337   87.3646 F   0  0  0  0  0  0  0  0  0  0  0  0
   72.0771   85.4981   88.6928 F   0  0  0  0  0  0  0  0  0  0  0  0
 10 11  2  0  0  0
 11 12  1  0  0  0
 11  2  1  0  0  0
  2  3  2  0  0  0
  3  4  1  0  0  0
  4  1  1  0  0  0
  1 14  1  0  0  0
 14 15  1  0  0  0
 15 16  2  0  0  0
 16 17  1  0  0  0
 17 18  2  0  0  0
 18 22  1  0  0  0
 22 23  1  0  0  0
 22 24  1  0  0  0
 22 25  1  0  0  0
 18 19  1  0  0  0
 19 20  2  0  0  0
 20 21  1  0  0  0
  4  5  2  0  0  0
  5  6  1  0  0  0
  6  7  2  0  0  0
  7  8  1  0  0  0
  7  2  1  0  0  0
 20 15  1  0  0  0
 12 13  1  0  0  0
  8  9  1  0  0  0
M  END
> <score>
0.007454

> <minimizedAffinity>
-7.57334

$$$$
HIPS5844


 25 26  0  0  0  0  0  0  0  0999 V2000
   68.9459   78.9691   89.5773 O   0  0  0  0  0  0  0  0  0  0  0  0
   68.8809   75.4861   90.8550 C   0  0  0  0  0  0  0  0  0  0  0  0
   68.5493   76.6719   90.1703 C   0  0  0  0  0  0  0  0  0  0  0  0
   69.3397   77.8207   90.2836 C   0  0  0  0  0  0  0  0  0  0  0  0
   70.4884   77.7860   91.0915 C   0  0  0  0  0  0  0  0  0  0  0  0
   70.8303   76.6201   91.7761 C   0  0  0  0  0  0  0  0  0  0  0  0
   70.0376   75.4694   91.6666 C   0  0  0  0  0  0  0  0  0  0  0  0
   70.4052   74.3188   92.3642 O   0  0  0  0  0  0  0  0  0  0  0  0
   71.1746   74.3209   92.8990 H   0  0  0  0  0  0  0  0  0  0  0  0
   67.6849   73.8784   89.5625 O   0  0  0  0  0  0  0  0  0  0  0  0
   68.0119   74.2890   90.7093 C   0  0  0  0  0  0  0  0  0  0  0  0
   67.5454   73.6029   91.8272 O   0  0  0  0  0  0  0  0  0  0  0  0
   67.7786   73.8942   92.6867 H   0  0  0  0  0  0  0  0  0  0  0  0
   68.6205   80.2286   90.1678 C   0  0  0  0  0  0  0  0  0  0  0  0
   69.5966   81.2998   89.7349 C   0  0  0  0  0  0  0  0  0  0  0  0
   70.8811   81.3175   90.3036 C   0  0  0  0  0  0  0  0  0  0  0  0
   71.8082   82.2969   89.9426 C   0  0  0  0  0  0  0  0  0  0  0  0
   71.4606   83.3035   89.0290 C   0  0  0  0  0  0  0  0  0  0  0  0
   70.1792   83.2887   88.4549 C   0  0  0  0  0  0  0  0  0  0  0  0
   69.2436   82.3097   88.8119 C   0  0  0  0  0  0  0  0  0  0  0  0
   67.6459   82.3931   88.0751 Cl  0  0  0  0  0  0  0  0  0  0  0  0
   72.4775   84.3316   88.6000 C   0  0  0  0  0  0  0  0  0  0  0  0
   72.9595   84.0431   87.3349 F   0  0  0  0  0  0  0  0  0  0  0  0
   71.9141   85.5956   88.5695 F   0  0  0  0  0  0  0  0  0  0  0  0
   73.5312   84.3297   89.4947 F   0  0  0  0  0  0  0  0  0  0  0  0
 10 11  2  0  0  0
 11 12  1  0  0  0
 11  2  1  0  0  0
  2  3  2  0  0  0
  3  4  1  0  0  0
  4  1  1  0  0  0
  1 14  1  0  0  0
 14 15  1  0  0  0
 15 16  2  0  0  0
 16 17  1  0  0  0
 17 18  2  0  0  0
 18 22  1  0  0  0
 22 23  1  0  0  0
 22 24  1  0  0  0
 22 25  1  0  0  0
 18 19  1  0  0  0
 19 20  2  0  0  0
 20 21  1  0  0  0
  4  5  2  0  0  0
  5  6  1  0  0  0
  6  7  2  0  0  0
  7  8  1  0  0  0
  7  2  1  0  0  0
 20 15  1  0  0  0
 12 13  1  0  0  0
  8  9  1  0  0  0
M  END
> <score>
0.007454

> <minimizedAffinity>
-7.47223

$$$$
HIPS5846


 28 29  0  0  0  0  0  0  0  0999 V2000
   68.6480   79.1790   89.6035 C   0  0  0  0  0  0  0  0  0  0  0  0
   69.5268   78.1418   89.9787 C   0  0  0  0  0  0  0  0  0  0  0  0
   70.8297   78.4189   90.4089 C   0  0  0  0  0  0  0  0  0  0  0  0
   71.2889   79.7402   90.4334 C   0  0  0  0  0  0  0  0  0  0  0  0
   70.4512   80.8097   90.0535 C   0  0  0  0  0  0  0  0  0  0  0  0
   69.1339   80.5035   89.6484 C   0  0  0  0  0  0  0  0  0  0  0  0
   66.1584   79.7554   89.9738 C   0  0  0  0  0  0  0  0  0  0  0  0
   67.1874   78.9182   89.1754 C   0  0  0  0  0  0  0  0  0  0  0  0
   67.0196   79.2748   87.6821 C   0  0  0  0  0  0  0  0  0  0  0  0
   66.8433   77.4278   89.3903 C   0  0  0  0  0  0  0  0  0  0  0  0
   70.9146   82.2823   90.0844 C   0  0  0  0  0  0  0  0  0  0  0  0
   72.4537   82.4383   90.0242 C   0  0  0  0  0  0  0  0  0  0  0  0
   70.4281   82.9472   91.3908 C   0  0  0  0  0  0  0  0  0  0  0  0
   70.3222   83.0358   88.8729 C   0  0  0  0  0  0  0  0  0  0  0  0
   71.7363   77.3040   90.8670 C   0  0  0  0  0  0  0  0  0  0  0  0
   71.3747   76.8660   92.1782 O   0  0  0  0  0  0  0  0  0  0  0  0
   70.1849   76.1969   92.5112 C   0  0  0  0  0  0  0  0  0  0  0  0
   69.5160   76.5797   93.6755 C   0  0  0  0  0  0  0  0  0  0  0  0
   68.3111   75.9736   94.0320 C   0  0  0  0  0  0  0  0  0  0  0  0
   67.7488   74.9753   93.2293 C   0  0  0  0  0  0  0  0  0  0  0  0
   66.4992   74.4724   93.5984 O   0  0  0  0  0  0  0  0  0  0  0  0
   68.4378   74.5395   92.0699 C   0  0  0  0  0  0  0  0  0  0  0  0
   69.6480   75.1642   91.7208 C   0  0  0  0  0  0  0  0  0  0  0  0
   66.0775   74.7879   94.3733 H   0  0  0  0  0  0  0  0  0  0  0  0
   67.9501   73.4350   91.2146 C   0  0  0  0  0  0  0  0  0  0  0  0
   68.1879   73.4236   89.9774 O   0  0  0  0  0  0  0  0  0  0  0  0
   67.1688   72.4244   91.7695 O   0  0  0  0  0  0  0  0  0  0  0  0
   66.9865   72.4244   92.6887 H   0  0  0  0  0  0  0  0  0  0  0  0
  7  8  1  0  0  0
  8  9  1  0  0  0
  8 10  1  0  0  0
  8  1  1  0  0  0
  1  2  2  0  0  0
  2  3  1  0  0  0
  3 15  1  0  0  0
 15 16  1  0  0  0
 16 17  1  0  0  0
 17 18  2  0  0  0
 18 19  1  0  0  0
 19 20  2  0  0  0
 20 21  1  0  0  0
 20 22  1  0  0  0
 22 25  1  0  0  0
 25 26  2  0  0  0
 25 27  1  0  0  0
 22 23  2  0  0  0
  3  4  2  0  0  0
  4  5  1  0  0  0
  5 11  1  0  0  0
 11 12  1  0  0  0
 11 13  1  0  0  0
 11 14  1  0  0  0
  5  6  2  0  0  0
  6  1  1  0  0  0
 23 17  1  0  0  0
 21 24  1  0  0  0
 27 28  1  0  0  0
M  END
> <score>
-0.89061

> <minimizedAffinity>
-7.93385

$$$$
HIPS5846


 28 29  0  0  0  0  0  0  0  0999 V2000
   70.2912   80.6977   90.0911 C   0  0  0  0  0  0  0  0  0  0  0  0
   71.1208   79.6373   90.5105 C   0  0  0  0  0  0  0  0  0  0  0  0
   70.6776   78.3103   90.4615 C   0  0  0  0  0  0  0  0  0  0  0  0
   69.3786   78.0254   90.0273 C   0  0  0  0  0  0  0  0  0  0  0  0
   68.5075   79.0541   89.6116 C   0  0  0  0  0  0  0  0  0  0  0  0
   68.9893   80.3806   89.6472 C   0  0  0  0  0  0  0  0  0  0  0  0
   70.2710   82.9765   91.3052 C   0  0  0  0  0  0  0  0  0  0  0  0
   70.7623   82.1684   90.0793 C   0  0  0  0  0  0  0  0  0  0  0  0
   72.3060   82.2120   90.0810 C   0  0  0  0  0  0  0  0  0  0  0  0
   70.2289   82.8725   88.8122 C   0  0  0  0  0  0  0  0  0  0  0  0
   67.0737   78.7789   89.1086 C   0  0  0  0  0  0  0  0  0  0  0  0
   66.0004   79.6277   89.8328 C   0  0  0  0  0  0  0  0  0  0  0  0
   66.7254   77.2916   89.3363 C   0  0  0  0  0  0  0  0  0  0  0  0
   66.9843   79.1026   87.6007 C   0  0  0  0  0  0  0  0  0  0  0  0
   71.5989   77.1823   90.8536 C   0  0  0  0  0  0  0  0  0  0  0  0
   71.2829   76.7045   92.1627 O   0  0  0  0  0  0  0  0  0  0  0  0
   70.0851   76.0667   92.5269 C   0  0  0  0  0  0  0  0  0  0  0  0
   69.3607   76.5864   93.6014 C   0  0  0  0  0  0  0  0  0  0  0  0
   68.1462   76.0138   93.9801 C   0  0  0  0  0  0  0  0  0  0  0  0
   67.6297   74.9125   93.2892 C   0  0  0  0  0  0  0  0  0  0  0  0
   66.3690   74.4432   93.6650 O   0  0  0  0  0  0  0  0  0  0  0  0
   68.3743   74.3411   92.2272 C   0  0  0  0  0  0  0  0  0  0  0  0
   69.5936   74.9331   91.8537 C   0  0  0  0  0  0  0  0  0  0  0  0
   65.9098   74.8497   94.3734 H   0  0  0  0  0  0  0  0  0  0  0  0
   67.9356   73.1287   91.5013 C   0  0  0  0  0  0  0  0  0  0  0  0
   68.3699   72.8757   90.3460 O   0  0  0  0  0  0  0  0  0  0  0  0
   66.9868   72.2854   92.0744 O   0  0  0  0  0  0  0  0  0  0  0  0
   66.6578   72.4654   92.9331 H   0  0  0  0  0  0  0  0  0  0  0  0
  7  8  1  0  0  0
  8  9  1  0  0  0
  8 10  1  0  0  0
  8  1  1  0  0  0
  1  2  2  0  0  0
  2  3  1  0  0  0
  3 15  1  0  0  0
 15 16  1  0  0  0
 16 17  1  0  0  0
 17 18  2  0  0  0
 18 19  1  0  0  0
 19 20  2  0  0  0
 20 21  1  0  0  0
 20 22  1  0  0  0
 22 25  1  0  0  0
 25 26  2  0  0  0
 25 27  1  0  0  0
 22 23  2  0  0  0
  3  4  2  0  0  0
  4  5  1  0  0  0
  5 11  1  0  0  0
 11 12  1  0  0  0
 11 13  1  0  0  0
 11 14  1  0  0  0
  5  6  2  0  0  0
  6  1  1  0  0  0
 23 17  1  0  0  0
 21 24  1  0  0  0
 27 28  1  0  0  0
M  END
> <score>
-0.89061

> <minimizedAffinity>
-7.89897

$$$$
HIPS5846


 28 29  0  0  0  0  0  0  0  0999 V2000
   70.2282   80.8150   90.0441 C   0  0  0  0  0  0  0  0  0  0  0  0
   70.8568   79.6510   90.5327 C   0  0  0  0  0  0  0  0  0  0  0  0
   70.2197   78.4060   90.4718 C   0  0  0  0  0  0  0  0  0  0  0  0
   68.9231   78.3115   89.9548 C   0  0  0  0  0  0  0  0  0  0  0  0
   68.2485   79.4506   89.4676 C   0  0  0  0  0  0  0  0  0  0  0  0
   68.9245   80.6889   89.5177 C   0  0  0  0  0  0  0  0  0  0  0  0
   72.4640   82.1061   90.0777 C   0  0  0  0  0  0  0  0  0  0  0  0
   70.9187   82.1962   90.0442 C   0  0  0  0  0  0  0  0  0  0  0  0
   70.5247   82.9663   88.7648 C   0  0  0  0  0  0  0  0  0  0  0  0
   70.4713   82.9984   91.2861 C   0  0  0  0  0  0  0  0  0  0  0  0
   66.8251   79.3846   88.8727 C   0  0  0  0  0  0  0  0  0  0  0  0
   65.7284   79.8441   89.8642 C   0  0  0  0  0  0  0  0  0  0  0  0
   66.5056   77.9300   88.4636 C   0  0  0  0  0  0  0  0  0  0  0  0
   66.7417   80.2980   87.6297 C   0  0  0  0  0  0  0  0  0  0  0  0
   70.9300   77.1606   90.9404 C   0  0  0  0  0  0  0  0  0  0  0  0
   70.3221   76.6495   92.1282 O   0  0  0  0  0  0  0  0  0  0  0  0
   69.4071   75.5843   92.1781 C   0  0  0  0  0  0  0  0  0  0  0  0
   69.1637   74.8676   91.0048 C   0  0  0  0  0  0  0  0  0  0  0  0
   68.2931   73.7775   91.0083 C   0  0  0  0  0  0  0  0  0  0  0  0
   67.6515   73.3798   92.1861 C   0  0  0  0  0  0  0  0  0  0  0  0
   66.8615   72.2290   92.1384 O   0  0  0  0  0  0  0  0  0  0  0  0
   67.8483   74.1248   93.3757 C   0  0  0  0  0  0  0  0  0  0  0  0
   68.7333   75.2172   93.3574 C   0  0  0  0  0  0  0  0  0  0  0  0
   66.7574   71.7654   91.3308 H   0  0  0  0  0  0  0  0  0  0  0  0
   67.1445   73.8175   94.6404 C   0  0  0  0  0  0  0  0  0  0  0  0
   67.7870   73.4870   95.6726 O   0  0  0  0  0  0  0  0  0  0  0  0
   65.7524   73.8356   94.6787 O   0  0  0  0  0  0  0  0  0  0  0  0
   65.2659   74.0800   93.9161 H   0  0  0  0  0  0  0  0  0  0  0  0
  7  8  1  0  0  0
  8  9  1  0  0  0
  8 10  1  0  0  0
  8  1  1  0  0  0
  1  2  2  0  0  0
  2  3  1  0  0  0
  3 15  1  0  0  0
 15 16  1  0  0  0
 16 17  1  0  0  0
 17 18  2  0  0  0
 18 19  1  0  0  0
 19 20  2  0  0  0
 20 21  1  0  0  0
 20 22  1  0  0  0
 22 25  1  0  0  0
 25 26  2  0  0  0
 25 27  1  0  0  0
 22 23  2  0  0  0
  3  4  2  0  0  0
  4  5  1  0  0  0
  5 11  1  0  0  0
 11 12  1  0  0  0
 11 13  1  0  0  0
 11 14  1  0  0  0
  5  6  2  0  0  0
  6  1  1  0  0  0
 23 17  1  0  0  0
 21 24  1  0  0  0
 27 28  1  0  0  0
M  END
> <score>
-0.89061

> <minimizedAffinity>
-7.86890

$$$$
HIPS5895


 26 28  0  0  0  0  0  0  0  0999 V2000
   70.8172   79.7370   89.9409 N   0  0  0  0  0  0  0  0  0  0  0  0
   70.2842   81.0660   90.0560 C   0  0  0  0  0  0  0  0  0  0  0  0
   69.2122   81.2674   90.6890 O   0  0  0  0  0  0  0  0  0  0  0  0
   71.7688   79.6396   89.7080 H   0  0  0  0  0  0  0  0  0  0  0  0
   71.0428   82.2229   89.5299 C   0  0  0  0  0  0  0  0  0  0  0  0
   72.3318   82.4516   90.0394 C   0  0  0  0  0  0  0  0  0  0  0  0
   73.1255   83.4829   89.5390 C   0  0  0  0  0  0  0  0  0  0  0  0
   72.6469   84.3096   88.5251 C   0  0  0  0  0  0  0  0  0  0  0  0
   71.3547   84.1258   88.0145 C   0  0  0  0  0  0  0  0  0  0  0  0
   70.8710   84.9799   87.0108 C   0  0  0  0  0  0  0  0  0  0  0  0
   69.5735   84.8271   86.5217 C   0  0  0  0  0  0  0  0  0  0  0  0
   68.7443   83.8312   87.0363 C   0  0  0  0  0  0  0  0  0  0  0  0
   69.2105   82.9702   88.0328 C   0  0  0  0  0  0  0  0  0  0  0  0
   70.5299   83.0850   88.5230 C   0  0  0  0  0  0  0  0  0  0  0  0
   69.6621   76.4899   91.4218 C   0  0  0  0  0  0  0  0  0  0  0  0
   70.3838   77.6766   91.1964 C   0  0  0  0  0  0  0  0  0  0  0  0
   70.0470   78.5399   90.1447 C   0  0  0  0  0  0  0  0  0  0  0  0
   68.9959   78.1912   89.2832 C   0  0  0  0  0  0  0  0  0  0  0  0
   68.2859   77.0069   89.4826 C   0  0  0  0  0  0  0  0  0  0  0  0
   68.6174   76.1422   90.5310 C   0  0  0  0  0  0  0  0  0  0  0  0
   67.9171   74.9379   90.6269 O   0  0  0  0  0  0  0  0  0  0  0  0
   67.2319   74.7446   90.0177 H   0  0  0  0  0  0  0  0  0  0  0  0
   70.3164   74.4559   92.4594 O   0  0  0  0  0  0  0  0  0  0  0  0
   70.0012   75.6680   92.6040 C   0  0  0  0  0  0  0  0  0  0  0  0
   70.0359   76.2348   93.8747 O   0  0  0  0  0  0  0  0  0  0  0  0
   69.8034   77.1348   93.9927 H   0  0  0  0  0  0  0  0  0  0  0  0
 23 24  2  0  0  0
 24 25  1  0  0  0
 24 15  1  0  0  0
 15 16  2  0  0  0
 16 17  1  0  0  0
 17  1  1  0  0  0
  1  2  1  0  0  0
  2  3  2  0  0  0
  2  5  1  0  0  0
  5  6  2  0  0  0
  6  7  1  0  0  0
  7  8  2  0  0  0
  8  9  1  0  0  0
  9 10  2  0  0  0
 10 11  1  0  0  0
 11 12  2  0  0  0
 12 13  1  0  0  0
 13 14  2  0  0  0
 17 18  2  0  0  0
 18 19  1  0  0  0
 19 20  2  0  0  0
 20 21  1  0  0  0
 20 15  1  0  0  0
 14  5  1  0  0  0
 14  9  1  0  0  0
 25 26  1  0  0  0
  1  4  1  0  0  0
 21 22  1  0  0  0
M  END
> <score>
1.153769

> <minimizedAffinity>
-8.74477

$$$$
HIPS5895


 26 28  0  0  0  0  0  0  0  0999 V2000
   71.0349   79.7464   90.0208 N   0  0  0  0  0  0  0  0  0  0  0  0
   70.4132   81.0400   90.0818 C   0  0  0  0  0  0  0  0  0  0  0  0
   69.3190   81.1904   90.6906 O   0  0  0  0  0  0  0  0  0  0  0  0
   71.9948   79.7051   89.8064 H   0  0  0  0  0  0  0  0  0  0  0  0
   71.1030   82.2268   89.5283 C   0  0  0  0  0  0  0  0  0  0  0  0
   72.3958   82.5146   89.9965 C   0  0  0  0  0  0  0  0  0  0  0  0
   73.1270   83.5778   89.4680 C   0  0  0  0  0  0  0  0  0  0  0  0
   72.5809   84.3777   88.4668 C   0  0  0  0  0  0  0  0  0  0  0  0
   71.2828   84.1344   87.9975 C   0  0  0  0  0  0  0  0  0  0  0  0
   70.7307   84.9616   87.0067 C   0  0  0  0  0  0  0  0  0  0  0  0
   69.4266   84.7492   86.5590 C   0  0  0  0  0  0  0  0  0  0  0  0
   68.6588   83.7201   87.1027 C   0  0  0  0  0  0  0  0  0  0  0  0
   69.1935   82.8852   88.0869 C   0  0  0  0  0  0  0  0  0  0  0  0
   70.5212   83.0606   88.5351 C   0  0  0  0  0  0  0  0  0  0  0  0
   68.4404   77.0492   89.7661 C   0  0  0  0  0  0  0  0  0  0  0  0
   69.1539   78.2440   89.5580 C   0  0  0  0  0  0  0  0  0  0  0  0
   70.3419   78.5080   90.2535 C   0  0  0  0  0  0  0  0  0  0  0  0
   70.8023   77.5790   91.1987 C   0  0  0  0  0  0  0  0  0  0  0  0
   70.0930   76.4001   91.4302 C   0  0  0  0  0  0  0  0  0  0  0  0
   68.9073   76.1314   90.7384 C   0  0  0  0  0  0  0  0  0  0  0  0
   68.2074   74.9705   91.0738 O   0  0  0  0  0  0  0  0  0  0  0  0
   68.5500   74.3880   91.7229 H   0  0  0  0  0  0  0  0  0  0  0  0
   66.4452   77.7172   88.6639 O   0  0  0  0  0  0  0  0  0  0  0  0
   67.2469   76.7824   88.9339 C   0  0  0  0  0  0  0  0  0  0  0  0
   67.0291   75.5191   88.3919 O   0  0  0  0  0  0  0  0  0  0  0  0
   67.6191   74.8177   88.5865 H   0  0  0  0  0  0  0  0  0  0  0  0
 23 24  2  0  0  0
 24 25  1  0  0  0
 24 15  1  0  0  0
 15 16  2  0  0  0
 16 17  1  0  0  0
 17  1  1  0  0  0
  1  2  1  0  0  0
  2  3  2  0  0  0
  2  5  1  0  0  0
  5  6  2  0  0  0
  6  7  1  0  0  0
  7  8  2  0  0  0
  8  9  1  0  0  0
  9 10  2  0  0  0
 10 11  1  0  0  0
 11 12  2  0  0  0
 12 13  1  0  0  0
 13 14  2  0  0  0
 17 18  2  0  0  0
 18 19  1  0  0  0
 19 20  2  0  0  0
 20 21  1  0  0  0
 20 15  1  0  0  0
 14  5  1  0  0  0
 14  9  1  0  0  0
 25 26  1  0  0  0
  1  4  1  0  0  0
 21 22  1  0  0  0
M  END
> <score>
1.153769

> <minimizedAffinity>
-8.27951

$$$$
HIPS5895


 26 28  0  0  0  0  0  0  0  0999 V2000
   69.6191   77.9054   89.8906 N   0  0  0  0  0  0  0  0  0  0  0  0
   68.8992   77.1840   90.9031 C   0  0  0  0  0  0  0  0  0  0  0  0
   68.1553   77.8003   91.7138 O   0  0  0  0  0  0  0  0  0  0  0  0
   69.9487   77.4021   89.1113 H   0  0  0  0  0  0  0  0  0  0  0  0
   68.9361   75.7048   90.9349 C   0  0  0  0  0  0  0  0  0  0  0  0
   69.7607   75.0873   91.8899 C   0  0  0  0  0  0  0  0  0  0  0  0
   69.7903   73.6992   92.0181 C   0  0  0  0  0  0  0  0  0  0  0  0
   69.0026   72.9001   91.1926 C   0  0  0  0  0  0  0  0  0  0  0  0
   68.1901   73.4835   90.2108 C   0  0  0  0  0  0  0  0  0  0  0  0
   67.4194   72.6692   89.3660 C   0  0  0  0  0  0  0  0  0  0  0  0
   66.6353   73.2391   88.3627 C   0  0  0  0  0  0  0  0  0  0  0  0
   66.6220   74.6220   88.1854 C   0  0  0  0  0  0  0  0  0  0  0  0
   67.3802   75.4476   89.0192 C   0  0  0  0  0  0  0  0  0  0  0  0
   68.1583   74.8974   90.0613 C   0  0  0  0  0  0  0  0  0  0  0  0
   69.1164   81.6106   89.5917 C   0  0  0  0  0  0  0  0  0  0  0  0
   68.8884   80.2224   89.5637 C   0  0  0  0  0  0  0  0  0  0  0  0
   69.8882   79.3169   89.9448 C   0  0  0  0  0  0  0  0  0  0  0  0
   71.1470   79.8072   90.3237 C   0  0  0  0  0  0  0  0  0  0  0  0
   71.3931   81.1804   90.3355 C   0  0  0  0  0  0  0  0  0  0  0  0
   70.3987   82.0884   89.9567 C   0  0  0  0  0  0  0  0  0  0  0  0
   70.7356   83.4430   89.9173 O   0  0  0  0  0  0  0  0  0  0  0  0
   71.5954   83.7194   90.1669 H   0  0  0  0  0  0  0  0  0  0  0  0
   67.7686   83.5233   90.0005 O   0  0  0  0  0  0  0  0  0  0  0  0
   67.9941   82.5196   89.2716 C   0  0  0  0  0  0  0  0  0  0  0  0
   67.2175   82.3136   88.1351 O   0  0  0  0  0  0  0  0  0  0  0  0
   67.3772   81.5707   87.5869 H   0  0  0  0  0  0  0  0  0  0  0  0
 23 24  2  0  0  0
 24 25  1  0  0  0
 24 15  1  0  0  0
 15 16  2  0  0  0
 16 17  1  0  0  0
 17  1  1  0  0  0
  1  2  1  0  0  0
  2  3  2  0  0  0
  2  5  1  0  0  0
  5  6  2  0  0  0
  6  7  1  0  0  0
  7  8  2  0  0  0
  8  9  1  0  0  0
  9 10  2  0  0  0
 10 11  1  0  0  0
 11 12  2  0  0  0
 12 13  1  0  0  0
 13 14  2  0  0  0
 17 18  2  0  0  0
 18 19  1  0  0  0
 19 20  2  0  0  0
 20 21  1  0  0  0
 20 15  1  0  0  0
 14  5  1  0  0  0
 14  9  1  0  0  0
 25 26  1  0  0  0
  1  4  1  0  0  0
 21 22  1  0  0  0
M  END
> <score>
1.153769

> <minimizedAffinity>
-8.01253

$$$$
HIPS5896


 27 29  0  0  0  0  0  0  0  0999 V2000
   69.0595   77.3842   92.7954 N   0  0  0  0  0  0  0  0  0  0  0  0
   69.2449   78.2400   93.2453 H   0  0  0  0  0  0  0  0  0  0  0  0
   67.4934   74.5899   94.7903 C   0  0  0  0  0  0  0  0  0  0  0  0
   68.4609   75.4304   94.2097 C   0  0  0  0  0  0  0  0  0  0  0  0
   68.0855   76.5057   93.3849 C   0  0  0  0  0  0  0  0  0  0  0  0
   66.7252   76.7435   93.1553 C   0  0  0  0  0  0  0  0  0  0  0  0
   65.7565   75.9041   93.7054 C   0  0  0  0  0  0  0  0  0  0  0  0
   66.1241   74.8155   94.5020 C   0  0  0  0  0  0  0  0  0  0  0  0
   65.1083   73.9711   94.9558 O   0  0  0  0  0  0  0  0  0  0  0  0
   64.2149   74.1564   94.7426 H   0  0  0  0  0  0  0  0  0  0  0  0
   67.2110   73.1208   96.6470 O   0  0  0  0  0  0  0  0  0  0  0  0
   67.9515   73.5263   95.7115 C   0  0  0  0  0  0  0  0  0  0  0  0
   69.2378   73.0077   95.5859 O   0  0  0  0  0  0  0  0  0  0  0  0
   69.7962   73.3026   94.8937 H   0  0  0  0  0  0  0  0  0  0  0  0
   69.9269   77.0223   91.3362 S   0  0  0  0  0  0  0  0  0  0  0  0
   70.8047   75.8182   91.5352 O   0  0  0  0  0  0  0  0  0  0  0  0
   70.7830   78.2028   90.9707 O   0  0  0  0  0  0  0  0  0  0  0  0
   68.7675   76.6763   90.0402 C   0  0  0  0  0  0  0  0  0  0  0  0
   68.3651   77.7305   89.2039 C   0  0  0  0  0  0  0  0  0  0  0  0
   67.4520   77.5164   88.1723 C   0  0  0  0  0  0  0  0  0  0  0  0
   66.9210   76.2474   87.9553 C   0  0  0  0  0  0  0  0  0  0  0  0
   67.3008   75.1741   88.7719 C   0  0  0  0  0  0  0  0  0  0  0  0
   66.7579   73.8992   88.5468 C   0  0  0  0  0  0  0  0  0  0  0  0
   67.1287   72.8242   89.3542 C   0  0  0  0  0  0  0  0  0  0  0  0
   68.0433   73.0098   90.3899 C   0  0  0  0  0  0  0  0  0  0  0  0
   68.5941   74.2715   90.6278 C   0  0  0  0  0  0  0  0  0  0  0  0
   68.2332   75.3769   89.8268 C   0  0  0  0  0  0  0  0  0  0  0  0
 11 12  2  0  0  0
 12 13  1  0  0  0
 12  3  1  0  0  0
  3  4  2  0  0  0
  4  5  1  0  0  0
  5  1  1  0  0  0
  1 15  1  0  0  0
 15 16  2  0  0  0
 15 17  2  0  0  0
 15 18  1  0  0  0
 18 19  2  0  0  0
 19 20  1  0  0  0
 20 21  2  0  0  0
 21 22  1  0  0  0
 22 23  2  0  0  0
 23 24  1  0  0  0
 24 25  2  0  0  0
 25 26  1  0  0  0
 26 27  2  0  0  0
  5  6  2  0  0  0
  6  7  1  0  0  0
  7  8  2  0  0  0
  8  9  1  0  0  0
  8  3  1  0  0  0
 27 18  1  0  0  0
 27 22  1  0  0  0
 13 14  1  0  0  0
  1  2  1  0  0  0
  9 10  1  0  0  0
M  END
> <score>
1.153769

> <minimizedAffinity>
-8.39616

$$$$
HIPS5896


 27 29  0  0  0  0  0  0  0  0999 V2000
   70.1852   77.3929   90.3103 N   0  0  0  0  0  0  0  0  0  0  0  0
   70.4874   76.8527   89.5448 H   0  0  0  0  0  0  0  0  0  0  0  0
   68.7834   80.8352   89.6580 C   0  0  0  0  0  0  0  0  0  0  0  0
   68.8667   79.4387   89.8086 C   0  0  0  0  0  0  0  0  0  0  0  0
   70.0844   78.8168   90.1373 C   0  0  0  0  0  0  0  0  0  0  0  0
   71.2223   79.6094   90.3290 C   0  0  0  0  0  0  0  0  0  0  0  0
   71.1591   80.9924   90.1598 C   0  0  0  0  0  0  0  0  0  0  0  0
   69.9585   81.6141   89.8038 C   0  0  0  0  0  0  0  0  0  0  0  0
   69.9840   82.9916   89.5744 O   0  0  0  0  0  0  0  0  0  0  0  0
   70.7826   83.4698   89.6822 H   0  0  0  0  0  0  0  0  0  0  0  0
   66.6706   80.9103   88.5554 O   0  0  0  0  0  0  0  0  0  0  0  0
   67.4564   81.4329   89.3903 C   0  0  0  0  0  0  0  0  0  0  0  0
   67.0919   82.6205   90.0196 O   0  0  0  0  0  0  0  0  0  0  0  0
   67.6691   83.0172   90.6420 H   0  0  0  0  0  0  0  0  0  0  0  0
   69.8047   76.5719   91.7915 S   0  0  0  0  0  0  0  0  0  0  0  0
   68.6527   77.2471   92.4821 O   0  0  0  0  0  0  0  0  0  0  0  0
   71.0082   76.6043   92.6918 O   0  0  0  0  0  0  0  0  0  0  0  0
   69.3509   74.8967   91.4287 C   0  0  0  0  0  0  0  0  0  0  0  0
   69.9257   73.8678   92.1925 C   0  0  0  0  0  0  0  0  0  0  0  0
   69.6088   72.5325   91.9472 C   0  0  0  0  0  0  0  0  0  0  0  0
   68.7137   72.1967   90.9345 C   0  0  0  0  0  0  0  0  0  0  0  0
   68.1232   73.1988   90.1534 C   0  0  0  0  0  0  0  0  0  0  0  0
   67.2242   72.8501   89.1332 C   0  0  0  0  0  0  0  0  0  0  0  0
   66.6311   73.8398   88.3496 C   0  0  0  0  0  0  0  0  0  0  0  0
   66.9272   75.1830   88.5768 C   0  0  0  0  0  0  0  0  0  0  0  0
   67.8190   75.5482   89.5882 C   0  0  0  0  0  0  0  0  0  0  0  0
   68.4351   74.5657   90.3937 C   0  0  0  0  0  0  0  0  0  0  0  0
 11 12  2  0  0  0
 12 13  1  0  0  0
 12  3  1  0  0  0
  3  4  2  0  0  0
  4  5  1  0  0  0
  5  1  1  0  0  0
  1 15  1  0  0  0
 15 16  2  0  0  0
 15 17  2  0  0  0
 15 18  1  0  0  0
 18 19  2  0  0  0
 19 20  1  0  0  0
 20 21  2  0  0  0
 21 22  1  0  0  0
 22 23  2  0  0  0
 23 24  1  0  0  0
 24 25  2  0  0  0
 25 26  1  0  0  0
 26 27  2  0  0  0
  5  6  2  0  0  0
  6  7  1  0  0  0
  7  8  2  0  0  0
  8  9  1  0  0  0
  8  3  1  0  0  0
 27 18  1  0  0  0
 27 22  1  0  0  0
 13 14  1  0  0  0
  1  2  1  0  0  0
  9 10  1  0  0  0
M  END
> <score>
1.153769

> <minimizedAffinity>
-8.26185

$$$$
HIPS5896


 27 29  0  0  0  0  0  0  0  0999 V2000
   66.8061   77.0369   92.3372 N   0  0  0  0  0  0  0  0  0  0  0  0
   66.3208   77.8739   92.5197 H   0  0  0  0  0  0  0  0  0  0  0  0
   68.1083   74.2957   94.5800 C   0  0  0  0  0  0  0  0  0  0  0  0
   68.0251   75.2309   93.5320 C   0  0  0  0  0  0  0  0  0  0  0  0
   66.9017   76.0651   93.3927 C   0  0  0  0  0  0  0  0  0  0  0  0
   65.8616   75.9655   94.3244 C   0  0  0  0  0  0  0  0  0  0  0  0
   65.9204   75.0268   95.3543 C   0  0  0  0  0  0  0  0  0  0  0  0
   67.0210   74.1738   95.4810 C   0  0  0  0  0  0  0  0  0  0  0  0
   66.9794   73.2058   96.4869 O   0  0  0  0  0  0  0  0  0  0  0  0
   66.2411   73.1592   97.0621 H   0  0  0  0  0  0  0  0  0  0  0  0
   69.5653   72.8124   95.7469 O   0  0  0  0  0  0  0  0  0  0  0  0
   69.3516   73.5049   94.7162 C   0  0  0  0  0  0  0  0  0  0  0  0
   70.3273   73.5719   93.7248 O   0  0  0  0  0  0  0  0  0  0  0  0
   70.1781   74.0841   92.9545 H   0  0  0  0  0  0  0  0  0  0  0  0
   67.4970   76.8192   90.7600 S   0  0  0  0  0  0  0  0  0  0  0  0
   66.6939   77.5641   89.7304 O   0  0  0  0  0  0  0  0  0  0  0  0
   67.4948   75.3540   90.4231 O   0  0  0  0  0  0  0  0  0  0  0  0
   69.1541   77.4500   90.7580 C   0  0  0  0  0  0  0  0  0  0  0  0
   70.2002   76.5826   91.1129 C   0  0  0  0  0  0  0  0  0  0  0  0
   71.5216   77.0266   91.1333 C   0  0  0  0  0  0  0  0  0  0  0  0
   71.8258   78.3447   90.8019 C   0  0  0  0  0  0  0  0  0  0  0  0
   70.8057   79.2360   90.4442 C   0  0  0  0  0  0  0  0  0  0  0  0
   71.1222   80.5633   90.1144 C   0  0  0  0  0  0  0  0  0  0  0  0
   70.1143   81.4589   89.7574 C   0  0  0  0  0  0  0  0  0  0  0  0
   68.7852   81.0396   89.7246 C   0  0  0  0  0  0  0  0  0  0  0  0
   68.4521   79.7222   90.0491 C   0  0  0  0  0  0  0  0  0  0  0  0
   69.4531   78.7965   90.4165 C   0  0  0  0  0  0  0  0  0  0  0  0
 11 12  2  0  0  0
 12 13  1  0  0  0
 12  3  1  0  0  0
  3  4  2  0  0  0
  4  5  1  0  0  0
  5  1  1  0  0  0
  1 15  1  0  0  0
 15 16  2  0  0  0
 15 17  2  0  0  0
 15 18  1  0  0  0
 18 19  2  0  0  0
 19 20  1  0  0  0
 20 21  2  0  0  0
 21 22  1  0  0  0
 22 23  2  0  0  0
 23 24  1  0  0  0
 24 25  2  0  0  0
 25 26  1  0  0  0
 26 27  2  0  0  0
  5  6  2  0  0  0
  6  7  1  0  0  0
  7  8  2  0  0  0
  8  9  1  0  0  0
  8  3  1  0  0  0
 27 18  1  0  0  0
 27 22  1  0  0  0
 13 14  1  0  0  0
  1  2  1  0  0  0
  9 10  1  0  0  0
M  END
> <score>
1.153769

> <minimizedAffinity>
-8.22836

$$$$
HIPS5897


 25 27  0  0  0  0  0  0  0  0999 V2000
   68.7702   76.0344   91.6602 N   0  0  0  0  0  0  0  0  0  0  0  0
   69.7526   76.0127   91.7210 H   0  0  0  0  0  0  0  0  0  0  0  0
   67.1849   75.3845   88.2902 C   0  0  0  0  0  0  0  0  0  0  0  0
   67.7696   76.0580   89.3794 C   0  0  0  0  0  0  0  0  0  0  0  0
   68.1518   75.3649   90.5432 C   0  0  0  0  0  0  0  0  0  0  0  0
   67.9228   73.9854   90.6171 C   0  0  0  0  0  0  0  0  0  0  0  0
   67.3386   73.3052   89.5492 C   0  0  0  0  0  0  0  0  0  0  0  0
   66.9702   73.9906   88.3842 C   0  0  0  0  0  0  0  0  0  0  0  0
   66.3948   73.2835   87.3282 O   0  0  0  0  0  0  0  0  0  0  0  0
   66.2576   72.3596   87.4027 H   0  0  0  0  0  0  0  0  0  0  0  0
   66.3407   77.3209   87.1678 O   0  0  0  0  0  0  0  0  0  0  0  0
   66.8143   76.1565   87.0758 C   0  0  0  0  0  0  0  0  0  0  0  0
   66.9866   75.5964   85.8120 O   0  0  0  0  0  0  0  0  0  0  0  0
   67.3374   74.7317   85.7266 H   0  0  0  0  0  0  0  0  0  0  0  0
   68.0376   76.7444   92.7106 C   0  0  0  0  0  0  0  0  0  0  0  0
   67.5122   75.7778   93.7403 C   0  0  0  0  0  0  0  0  0  0  0  0
   66.1764   75.8607   94.1965 C   0  0  0  0  0  0  0  0  0  0  0  0
   65.6861   74.9508   95.1602 C   0  0  0  0  0  0  0  0  0  0  0  0
   66.5223   73.9511   95.6875 C   0  0  0  0  0  0  0  0  0  0  0  0
   67.8352   73.9021   95.2281 C   0  0  0  0  0  0  0  0  0  0  0  0
   68.8065   73.0527   95.5828 N   0  0  0  0  0  0  0  0  0  0  0  0
   69.8721   73.4454   94.8455 C   0  0  0  0  0  0  0  0  0  0  0  0
   69.6113   74.5084   94.0407 N   0  0  0  0  0  0  0  0  0  0  0  0
   68.3172   74.7770   94.3000 C   0  0  0  0  0  0  0  0  0  0  0  0
   68.7576   72.3129   96.2305 H   0  0  0  0  0  0  0  0  0  0  0  0
 11 12  2  0  0  0
 12 13  1  0  0  0
 12  3  1  0  0  0
  3  4  2  0  0  0
  4  5  1  0  0  0
  5  1  1  0  0  0
  1 15  1  0  0  0
 15 16  1  0  0  0
 16 17  2  0  0  0
 17 18  1  0  0  0
 18 19  2  0  0  0
 19 20  1  0  0  0
 20 21  1  0  0  0
 21 22  1  0  0  0
 22 23  2  0  0  0
 23 24  2  0  0  0
  5  6  2  0  0  0
  6  7  1  0  0  0
  7  8  2  0  0  0
  8  9  1  0  0  0
  8  3  1  0  0  0
 24 16  1  0  0  0
 24 20  2  0  0  0
 13 14  1  0  0  0
  1  2  1  0  0  0
 21 25  1  0  0  0
  9 10  1  0  0  0
M  END
> <score>
0.948641

> <minimizedAffinity>
-7.33375

$$$$
HIPS5897


 25 27  0  0  0  0  0  0  0  0999 V2000
   68.4162   77.1285   92.5392 N   0  0  0  0  0  0  0  0  0  0  0  0
   68.1077   78.0438   92.7297 H   0  0  0  0  0  0  0  0  0  0  0  0
   68.6127   74.1219   94.8227 C   0  0  0  0  0  0  0  0  0  0  0  0
   68.9780   75.1166   93.8958 C   0  0  0  0  0  0  0  0  0  0  0  0
   68.0546   76.0905   93.4720 C   0  0  0  0  0  0  0  0  0  0  0  0
   66.7467   76.0477   93.9707 C   0  0  0  0  0  0  0  0  0  0  0  0
   66.3678   75.0647   94.8843 C   0  0  0  0  0  0  0  0  0  0  0  0
   67.2892   74.1027   95.3183 C   0  0  0  0  0  0  0  0  0  0  0  0
   66.8849   73.1357   96.2390 O   0  0  0  0  0  0  0  0  0  0  0  0
   66.0047   73.1335   96.5601 H   0  0  0  0  0  0  0  0  0  0  0  0
   69.5093   72.5123   96.3483 O   0  0  0  0  0  0  0  0  0  0  0  0
   69.6277   73.1258   95.2536 C   0  0  0  0  0  0  0  0  0  0  0  0
   70.7308   72.8579   94.4461 O   0  0  0  0  0  0  0  0  0  0  0  0
   70.8333   73.3055   93.6293 H   0  0  0  0  0  0  0  0  0  0  0  0
   69.2107   76.9150   91.3278 C   0  0  0  0  0  0  0  0  0  0  0  0
   68.4073   76.1797   90.2864 C   0  0  0  0  0  0  0  0  0  0  0  0
   68.2668   74.7737   90.3395 C   0  0  0  0  0  0  0  0  0  0  0  0
   67.5102   74.0876   89.3627 C   0  0  0  0  0  0  0  0  0  0  0  0
   66.8901   74.7924   88.3161 C   0  0  0  0  0  0  0  0  0  0  0  0
   67.0564   76.1739   88.2836 C   0  0  0  0  0  0  0  0  0  0  0  0
   66.5712   77.0466   87.3927 N   0  0  0  0  0  0  0  0  0  0  0  0
   67.0308   78.2454   87.8229 C   0  0  0  0  0  0  0  0  0  0  0  0
   67.7863   78.1630   88.9489 N   0  0  0  0  0  0  0  0  0  0  0  0
   67.7860   76.8438   89.2206 C   0  0  0  0  0  0  0  0  0  0  0  0
   66.0097   76.8600   86.6059 H   0  0  0  0  0  0  0  0  0  0  0  0
 11 12  2  0  0  0
 12 13  1  0  0  0
 12  3  1  0  0  0
  3  4  2  0  0  0
  4  5  1  0  0  0
  5  1  1  0  0  0
  1 15  1  0  0  0
 15 16  1  0  0  0
 16 17  2  0  0  0
 17 18  1  0  0  0
 18 19  2  0  0  0
 19 20  1  0  0  0
 20 21  1  0  0  0
 21 22  1  0  0  0
 22 23  2  0  0  0
 23 24  2  0  0  0
  5  6  2  0  0  0
  6  7  1  0  0  0
  7  8  2  0  0  0
  8  9  1  0  0  0
  8  3  1  0  0  0
 24 16  1  0  0  0
 24 20  2  0  0  0
 13 14  1  0  0  0
  1  2  1  0  0  0
 21 25  1  0  0  0
  9 10  1  0  0  0
M  END
> <score>
0.948641

> <minimizedAffinity>
-7.09671

$$$$
HIPS5897


 25 27  0  0  0  0  0  0  0  0999 V2000
   66.9687   76.9496   92.1811 N   0  0  0  0  0  0  0  0  0  0  0  0
   66.5349   77.8142   92.3642 H   0  0  0  0  0  0  0  0  0  0  0  0
   68.1675   74.2492   94.5397 C   0  0  0  0  0  0  0  0  0  0  0  0
   68.1403   75.1782   93.4823 C   0  0  0  0  0  0  0  0  0  0  0  0
   67.0073   75.9790   93.2464 C   0  0  0  0  0  0  0  0  0  0  0  0
   65.8853   75.8263   94.0703 C   0  0  0  0  0  0  0  0  0  0  0  0
   65.8944   74.9058   95.1176 C   0  0  0  0  0  0  0  0  0  0  0  0
   67.0262   74.1175   95.3631 C   0  0  0  0  0  0  0  0  0  0  0  0
   67.0105   73.2103   96.4227 O   0  0  0  0  0  0  0  0  0  0  0  0
   66.2478   73.1323   96.9614 H   0  0  0  0  0  0  0  0  0  0  0  0
   69.5688   72.8097   95.8382 O   0  0  0  0  0  0  0  0  0  0  0  0
   69.3932   73.4385   94.7601 C   0  0  0  0  0  0  0  0  0  0  0  0
   70.3702   73.3653   93.7698 O   0  0  0  0  0  0  0  0  0  0  0  0
   70.2547   73.8270   92.9626 H   0  0  0  0  0  0  0  0  0  0  0  0
   67.5304   76.7380   90.8455 C   0  0  0  0  0  0  0  0  0  0  0  0
   68.7561   77.5905   90.6417 C   0  0  0  0  0  0  0  0  0  0  0  0
   70.0516   77.0430   90.7872 C   0  0  0  0  0  0  0  0  0  0  0  0
   71.1990   77.8448   90.5925 C   0  0  0  0  0  0  0  0  0  0  0  0
   71.0706   79.2043   90.2578 C   0  0  0  0  0  0  0  0  0  0  0  0
   69.7828   79.7175   90.1334 C   0  0  0  0  0  0  0  0  0  0  0  0
   69.4142   80.9677   89.8306 N   0  0  0  0  0  0  0  0  0  0  0  0
   68.0610   80.9241   89.8448 C   0  0  0  0  0  0  0  0  0  0  0  0
   67.5621   79.6966   90.1447 N   0  0  0  0  0  0  0  0  0  0  0  0
   68.6703   78.9517   90.3212 C   0  0  0  0  0  0  0  0  0  0  0  0
   69.9934   81.7409   89.6412 H   0  0  0  0  0  0  0  0  0  0  0  0
 11 12  2  0  0  0
 12 13  1  0  0  0
 12  3  1  0  0  0
  3  4  2  0  0  0
  4  5  1  0  0  0
  5  1  1  0  0  0
  1 15  1  0  0  0
 15 16  1  0  0  0
 16 17  2  0  0  0
 17 18  1  0  0  0
 18 19  2  0  0  0
 19 20  1  0  0  0
 20 21  1  0  0  0
 21 22  1  0  0  0
 22 23  2  0  0  0
 23 24  2  0  0  0
  5  6  2  0  0  0
  6  7  1  0  0  0
  7  8  2  0  0  0
  8  9  1  0  0  0
  8  3  1  0  0  0
 24 16  1  0  0  0
 24 20  2  0  0  0
 13 14  1  0  0  0
  1  2  1  0  0  0
 21 25  1  0  0  0
  9 10  1  0  0  0
M  END
> <score>
0.948641

> <minimizedAffinity>
-7.09129

$$$$
HIPS5910


 22 23  0  0  0  0  0  0  0  0999 V2000
   69.4328   73.1101   91.6561 C   0  0  0  0  0  0  0  0  0  0  0  0
   68.5266   72.4400   90.8098 C   0  0  0  0  0  0  0  0  0  0  0  0
   67.7246   73.1526   89.8983 C   0  0  0  0  0  0  0  0  0  0  0  0
   67.8437   74.5418   89.8273 C   0  0  0  0  0  0  0  0  0  0  0  0
   68.7377   75.2196   90.6552 C   0  0  0  0  0  0  0  0  0  0  0  0
   69.5325   74.5174   91.5710 C   0  0  0  0  0  0  0  0  0  0  0  0
   70.4146   75.2226   92.3897 O   0  0  0  0  0  0  0  0  0  0  0  0
   70.4711   76.1555   92.3234 H   0  0  0  0  0  0  0  0  0  0  0  0
   70.6582   72.8542   93.6862 O   0  0  0  0  0  0  0  0  0  0  0  0
   70.2575   72.3263   92.6132 C   0  0  0  0  0  0  0  0  0  0  0  0
   70.6014   71.0040   92.3456 O   0  0  0  0  0  0  0  0  0  0  0  0
   70.3123   70.5959   91.5533 H   0  0  0  0  0  0  0  0  0  0  0  0
   66.8008   72.5238   89.0468 O   0  0  0  0  0  0  0  0  0  0  0  0
   66.5505   72.8838   87.6873 C   0  0  0  0  0  0  0  0  0  0  0  0
   66.9077   71.7527   86.7593 C   0  0  0  0  0  0  0  0  0  0  0  0
   67.8296   70.7743   87.1654 C   0  0  0  0  0  0  0  0  0  0  0  0
   68.1641   69.7208   86.3076 C   0  0  0  0  0  0  0  0  0  0  0  0
   69.3245   68.5087   86.8187 Cl  0  0  0  0  0  0  0  0  0  0  0  0
   67.5737   69.6342   85.0428 C   0  0  0  0  0  0  0  0  0  0  0  0
   66.6455   70.5979   84.6357 C   0  0  0  0  0  0  0  0  0  0  0  0
   65.9040   70.4865   83.0500 Cl  0  0  0  0  0  0  0  0  0  0  0  0
   66.3088   71.6515   85.4926 C   0  0  0  0  0  0  0  0  0  0  0  0
  9 10  2  0  0  0
 10 11  1  0  0  0
 10  1  1  0  0  0
  1  2  2  0  0  0
  2  3  1  0  0  0
  3 13  1  0  0  0
 13 14  1  0  0  0
 14 15  1  0  0  0
 15 16  2  0  0  0
 16 17  1  0  0  0
 17 18  1  0  0  0
 17 19  2  0  0  0
 19 20  1  0  0  0
 20 21  1  0  0  0
 20 22  2  0  0  0
  3  4  2  0  0  0
  4  5  1  0  0  0
  5  6  2  0  0  0
  6  7  1  0  0  0
  6  1  1  0  0  0
 22 15  1  0  0  0
 11 12  1  0  0  0
  7  8  1  0  0  0
M  END
> <score>
0.237597

> <minimizedAffinity>
-7.59642

$$$$
HIPS5910


 22 23  0  0  0  0  0  0  0  0999 V2000
   69.4374   73.1538   91.6796 C   0  0  0  0  0  0  0  0  0  0  0  0
   68.5336   72.4717   90.8404 C   0  0  0  0  0  0  0  0  0  0  0  0
   67.7311   73.1717   89.9196 C   0  0  0  0  0  0  0  0  0  0  0  0
   67.8472   74.5602   89.8323 C   0  0  0  0  0  0  0  0  0  0  0  0
   68.7389   75.2497   90.6530 C   0  0  0  0  0  0  0  0  0  0  0  0
   69.5342   74.5602   91.5780 C   0  0  0  0  0  0  0  0  0  0  0  0
   70.4138   75.2769   92.3892 O   0  0  0  0  0  0  0  0  0  0  0  0
   70.4683   76.2091   92.3119 H   0  0  0  0  0  0  0  0  0  0  0  0
   70.6611   71.2220   92.3574 O   0  0  0  0  0  0  0  0  0  0  0  0
   70.2627   72.3831   92.6469 C   0  0  0  0  0  0  0  0  0  0  0  0
   70.6093   72.9238   93.8821 O   0  0  0  0  0  0  0  0  0  0  0  0
   70.3220   73.7851   94.1137 H   0  0  0  0  0  0  0  0  0  0  0  0
   66.8097   72.5308   89.0746 O   0  0  0  0  0  0  0  0  0  0  0  0
   66.5437   72.8886   87.7176 C   0  0  0  0  0  0  0  0  0  0  0  0
   66.8875   71.7549   86.7875 C   0  0  0  0  0  0  0  0  0  0  0  0
   66.3274   71.7067   85.5006 C   0  0  0  0  0  0  0  0  0  0  0  0
   66.6444   70.6565   84.6322 C   0  0  0  0  0  0  0  0  0  0  0  0
   65.9323   70.5981   83.0302 Cl  0  0  0  0  0  0  0  0  0  0  0  0
   67.5285   69.6531   85.0413 C   0  0  0  0  0  0  0  0  0  0  0  0
   68.0999   69.7006   86.3170 C   0  0  0  0  0  0  0  0  0  0  0  0
   69.2106   68.4427   86.8277 Cl  0  0  0  0  0  0  0  0  0  0  0  0
   67.7851   70.7507   87.1864 C   0  0  0  0  0  0  0  0  0  0  0  0
  9 10  2  0  0  0
 10 11  1  0  0  0
 10  1  1  0  0  0
  1  2  2  0  0  0
  2  3  1  0  0  0
  3 13  1  0  0  0
 13 14  1  0  0  0
 14 15  1  0  0  0
 15 16  2  0  0  0
 16 17  1  0  0  0
 17 18  1  0  0  0
 17 19  2  0  0  0
 19 20  1  0  0  0
 20 21  1  0  0  0
 20 22  2  0  0  0
  3  4  2  0  0  0
  4  5  1  0  0  0
  5  6  2  0  0  0
  6  7  1  0  0  0
  6  1  1  0  0  0
 22 15  1  0  0  0
 11 12  1  0  0  0
  7  8  1  0  0  0
M  END
> <score>
0.237597

> <minimizedAffinity>
-7.56806

$$$$
HIPS5910


 22 23  0  0  0  0  0  0  0  0999 V2000
   68.6905   75.1920   90.7182 C   0  0  0  0  0  0  0  0  0  0  0  0
   67.7541   74.5915   89.8528 C   0  0  0  0  0  0  0  0  0  0  0  0
   67.6122   73.1919   89.7980 C   0  0  0  0  0  0  0  0  0  0  0  0
   68.4043   72.3939   90.6255 C   0  0  0  0  0  0  0  0  0  0  0  0
   69.3332   72.9723   91.4897 C   0  0  0  0  0  0  0  0  0  0  0  0
   69.4859   74.3642   91.5429 C   0  0  0  0  0  0  0  0  0  0  0  0
   70.4263   74.9144   92.4136 O   0  0  0  0  0  0  0  0  0  0  0  0
   70.9474   74.3545   92.9550 H   0  0  0  0  0  0  0  0  0  0  0  0
   68.9224   77.3194   89.6653 O   0  0  0  0  0  0  0  0  0  0  0  0
   68.8198   76.6729   90.7433 C   0  0  0  0  0  0  0  0  0  0  0  0
   68.8304   77.3700   91.9484 O   0  0  0  0  0  0  0  0  0  0  0  0
   68.7552   76.9058   92.7588 H   0  0  0  0  0  0  0  0  0  0  0  0
   66.6999   72.5543   88.9407 O   0  0  0  0  0  0  0  0  0  0  0  0
   66.5216   72.8497   87.5546 C   0  0  0  0  0  0  0  0  0  0  0  0
   66.9324   71.6793   86.7004 C   0  0  0  0  0  0  0  0  0  0  0  0
   67.8554   70.7410   87.1900 C   0  0  0  0  0  0  0  0  0  0  0  0
   68.2395   69.6512   86.4010 C   0  0  0  0  0  0  0  0  0  0  0  0
   69.4009   68.4895   87.0161 Cl  0  0  0  0  0  0  0  0  0  0  0  0
   67.6978   69.4882   85.1220 C   0  0  0  0  0  0  0  0  0  0  0  0
   66.7688   70.4117   84.6320 C   0  0  0  0  0  0  0  0  0  0  0  0
   66.0884   70.2044   83.0286 Cl  0  0  0  0  0  0  0  0  0  0  0  0
   66.3825   71.5015   85.4200 C   0  0  0  0  0  0  0  0  0  0  0  0
  9 10  2  0  0  0
 10 11  1  0  0  0
 10  1  1  0  0  0
  1  2  2  0  0  0
  2  3  1  0  0  0
  3 13  1  0  0  0
 13 14  1  0  0  0
 14 15  1  0  0  0
 15 16  2  0  0  0
 16 17  1  0  0  0
 17 18  1  0  0  0
 17 19  2  0  0  0
 19 20  1  0  0  0
 20 21  1  0  0  0
 20 22  2  0  0  0
  3  4  2  0  0  0
  4  5  1  0  0  0
  5  6  2  0  0  0
  6  7  1  0  0  0
  6  1  1  0  0  0
 22 15  1  0  0  0
 11 12  1  0  0  0
  7  8  1  0  0  0
M  END
> <score>
0.237597

> <minimizedAffinity>
-7.19082

$$$$
HIPS5920


 27 30  0  0  0  0  0  0  0  0999 V2000
   69.2601   79.0239   90.3672 N   0  0  0  0  0  0  0  0  0  0  0  0
   70.3616   79.6728   89.9392 C   0  0  0  0  0  0  0  0  0  0  0  0
   70.0762   81.0203   90.0163 C   0  0  0  0  0  0  0  0  0  0  0  0
   68.8118   81.1556   90.4630 N   0  0  0  0  0  0  0  0  0  0  0  0
   68.3459   79.9334   90.6731 N   0  0  0  0  0  0  0  0  0  0  0  0
   70.9469   82.1375   89.5795 C   0  0  0  0  0  0  0  0  0  0  0  0
   72.2123   82.2605   90.1801 C   0  0  0  0  0  0  0  0  0  0  0  0
   73.1093   83.2441   89.7672 C   0  0  0  0  0  0  0  0  0  0  0  0
   72.7631   84.1278   88.7485 C   0  0  0  0  0  0  0  0  0  0  0  0
   71.5016   84.0495   88.1439 C   0  0  0  0  0  0  0  0  0  0  0  0
   71.1548   84.9607   87.1337 C   0  0  0  0  0  0  0  0  0  0  0  0
   69.8897   84.9149   86.5487 C   0  0  0  0  0  0  0  0  0  0  0  0
   68.9567   83.9703   86.9731 C   0  0  0  0  0  0  0  0  0  0  0  0
   69.2858   83.0536   87.9748 C   0  0  0  0  0  0  0  0  0  0  0  0
   70.5701   83.0587   88.5626 C   0  0  0  0  0  0  0  0  0  0  0  0
   68.6892   74.8004   90.6954 C   0  0  0  0  0  0  0  0  0  0  0  0
   67.9071   75.5600   89.8106 C   0  0  0  0  0  0  0  0  0  0  0  0
   68.0854   76.9402   89.7003 C   0  0  0  0  0  0  0  0  0  0  0  0
   69.0528   77.6000   90.4769 C   0  0  0  0  0  0  0  0  0  0  0  0
   69.8246   76.8452   91.3760 C   0  0  0  0  0  0  0  0  0  0  0  0
   69.6389   75.4640   91.5104 C   0  0  0  0  0  0  0  0  0  0  0  0
   70.3901   74.8012   92.4838 O   0  0  0  0  0  0  0  0  0  0  0  0
   71.0087   75.2768   93.0026 H   0  0  0  0  0  0  0  0  0  0  0  0
   69.3431   72.5833   91.2810 O   0  0  0  0  0  0  0  0  0  0  0  0
   68.5063   73.3320   90.7094 C   0  0  0  0  0  0  0  0  0  0  0  0
   67.4320   72.7616   90.0317 O   0  0  0  0  0  0  0  0  0  0  0  0
   66.8041   73.3095   89.6033 H   0  0  0  0  0  0  0  0  0  0  0  0
 24 25  2  0  0  0
 25 26  1  0  0  0
 25 16  1  0  0  0
 16 17  2  0  0  0
 17 18  1  0  0  0
 18 19  2  0  0  0
 19  1  1  0  0  0
  1  2  1  0  0  0
  2  3  2  0  0  0
  3  6  1  0  0  0
  6  7  2  0  0  0
  7  8  1  0  0  0
  8  9  2  0  0  0
  9 10  1  0  0  0
 10 11  2  0  0  0
 11 12  1  0  0  0
 12 13  2  0  0  0
 13 14  1  0  0  0
 14 15  2  0  0  0
  3  4  2  0  0  0
  4  5  2  0  0  0
 19 20  1  0  0  0
 20 21  2  0  0  0
 21 22  1  0  0  0
 21 16  1  0  0  0
  5  1  1  0  0  0
 15  6  1  0  0  0
 15 10  1  0  0  0
 26 27  1  0  0  0
 22 23  1  0  0  0
M  END
> <score>
0.633223

> <minimizedAffinity>
-9.28509

$$$$
HIPS5920


 27 30  0  0  0  0  0  0  0  0999 V2000
   69.1833   79.5696   90.3177 N   0  0  0  0  0  0  0  0  0  0  0  0
   69.6698   78.3230   90.1543 C   0  0  0  0  0  0  0  0  0  0  0  0
   68.7270   77.4635   90.6793 C   0  0  0  0  0  0  0  0  0  0  0  0
   67.7106   78.2033   91.1654 N   0  0  0  0  0  0  0  0  0  0  0  0
   68.0104   79.4715   90.9268 N   0  0  0  0  0  0  0  0  0  0  0  0
   68.8416   75.9911   90.8047 C   0  0  0  0  0  0  0  0  0  0  0  0
   69.6888   75.4787   91.8031 C   0  0  0  0  0  0  0  0  0  0  0  0
   69.7892   74.1060   92.0231 C   0  0  0  0  0  0  0  0  0  0  0  0
   69.0493   73.2147   91.2509 C   0  0  0  0  0  0  0  0  0  0  0  0
   68.2130   73.6887   90.2316 C   0  0  0  0  0  0  0  0  0  0  0  0
   67.4892   72.7794   89.4440 C   0  0  0  0  0  0  0  0  0  0  0  0
   66.6806   73.2370   88.4041 C   0  0  0  0  0  0  0  0  0  0  0  0
   66.5959   74.6016   88.1327 C   0  0  0  0  0  0  0  0  0  0  0  0
   67.3064   75.5211   88.9084 C   0  0  0  0  0  0  0  0  0  0  0  0
   68.1088   75.0865   89.9865 C   0  0  0  0  0  0  0  0  0  0  0  0
   70.9694   83.2711   89.1424 C   0  0  0  0  0  0  0  0  0  0  0  0
   71.7061   82.3215   89.8683 C   0  0  0  0  0  0  0  0  0  0  0  0
   71.1288   81.1118   90.2586 C   0  0  0  0  0  0  0  0  0  0  0  0
   69.7933   80.8199   89.9339 C   0  0  0  0  0  0  0  0  0  0  0  0
   69.0482   81.7757   89.2231 C   0  0  0  0  0  0  0  0  0  0  0  0
   69.6108   83.0010   88.8459 C   0  0  0  0  0  0  0  0  0  0  0  0
   68.7793   83.9281   88.2132 O   0  0  0  0  0  0  0  0  0  0  0  0
   67.8856   83.7105   88.0347 H   0  0  0  0  0  0  0  0  0  0  0  0
   72.9113   84.5165   88.5391 O   0  0  0  0  0  0  0  0  0  0  0  0
   71.6606   84.4990   88.6907 C   0  0  0  0  0  0  0  0  0  0  0  0
   70.9328   85.6688   88.4890 O   0  0  0  0  0  0  0  0  0  0  0  0
   70.0023   85.6666   88.5991 H   0  0  0  0  0  0  0  0  0  0  0  0
 24 25  2  0  0  0
 25 26  1  0  0  0
 25 16  1  0  0  0
 16 17  2  0  0  0
 17 18  1  0  0  0
 18 19  2  0  0  0
 19  1  1  0  0  0
  1  2  1  0  0  0
  2  3  2  0  0  0
  3  6  1  0  0  0
  6  7  2  0  0  0
  7  8  1  0  0  0
  8  9  2  0  0  0
  9 10  1  0  0  0
 10 11  2  0  0  0
 11 12  1  0  0  0
 12 13  2  0  0  0
 13 14  1  0  0  0
 14 15  2  0  0  0
  3  4  2  0  0  0
  4  5  2  0  0  0
 19 20  1  0  0  0
 20 21  2  0  0  0
 21 22  1  0  0  0
 21 16  1  0  0  0
  5  1  1  0  0  0
 15  6  1  0  0  0
 15 10  1  0  0  0
 26 27  1  0  0  0
 22 23  1  0  0  0
M  END
> <score>
0.633223

> <minimizedAffinity>
-8.83711

$$$$
HIPS5920


 27 30  0  0  0  0  0  0  0  0999 V2000
   68.8389   79.1567   90.1171 N   0  0  0  0  0  0  0  0  0  0  0  0
   68.9802   77.9426   89.5487 C   0  0  0  0  0  0  0  0  0  0  0  0
   67.9868   77.1450   90.0780 C   0  0  0  0  0  0  0  0  0  0  0  0
   67.2871   77.8807   90.9644 N   0  0  0  0  0  0  0  0  0  0  0  0
   67.8198   79.0936   90.9621 N   0  0  0  0  0  0  0  0  0  0  0  0
   67.7789   75.7000   89.8217 C   0  0  0  0  0  0  0  0  0  0  0  0
   66.9350   75.3340   88.7582 C   0  0  0  0  0  0  0  0  0  0  0  0
   66.7513   73.9953   88.4168 C   0  0  0  0  0  0  0  0  0  0  0  0
   67.4028   72.9925   89.1298 C   0  0  0  0  0  0  0  0  0  0  0  0
   68.2325   73.3193   90.2105 C   0  0  0  0  0  0  0  0  0  0  0  0
   68.8661   72.2985   90.9368 C   0  0  0  0  0  0  0  0  0  0  0  0
   69.6664   72.6092   92.0358 C   0  0  0  0  0  0  0  0  0  0  0  0
   69.8321   73.9367   92.4272 C   0  0  0  0  0  0  0  0  0  0  0  0
   69.2120   74.9657   91.7140 C   0  0  0  0  0  0  0  0  0  0  0  0
   68.4207   74.6807   90.5792 C   0  0  0  0  0  0  0  0  0  0  0  0
   71.1740   82.6693   89.4236 C   0  0  0  0  0  0  0  0  0  0  0  0
   71.7498   81.5349   90.0178 C   0  0  0  0  0  0  0  0  0  0  0  0
   70.9929   80.3852   90.2505 C   0  0  0  0  0  0  0  0  0  0  0  0
   69.6340   80.3406   89.8960 C   0  0  0  0  0  0  0  0  0  0  0  0
   69.0506   81.4803   89.3177 C   0  0  0  0  0  0  0  0  0  0  0  0
   69.7952   82.6459   89.0999 C   0  0  0  0  0  0  0  0  0  0  0  0
   69.1209   83.7604   88.5957 O   0  0  0  0  0  0  0  0  0  0  0  0
   68.2076   83.7038   88.3940 H   0  0  0  0  0  0  0  0  0  0  0  0
   73.2905   83.7633   89.3258 O   0  0  0  0  0  0  0  0  0  0  0  0
   72.0472   83.8278   89.1319 C   0  0  0  0  0  0  0  0  0  0  0  0
   71.4861   85.0255   88.6966 O   0  0  0  0  0  0  0  0  0  0  0  0
   70.5626   85.0840   88.5493 H   0  0  0  0  0  0  0  0  0  0  0  0
 24 25  2  0  0  0
 25 26  1  0  0  0
 25 16  1  0  0  0
 16 17  2  0  0  0
 17 18  1  0  0  0
 18 19  2  0  0  0
 19  1  1  0  0  0
  1  2  1  0  0  0
  2  3  2  0  0  0
  3  6  1  0  0  0
  6  7  2  0  0  0
  7  8  1  0  0  0
  8  9  2  0  0  0
  9 10  1  0  0  0
 10 11  2  0  0  0
 11 12  1  0  0  0
 12 13  2  0  0  0
 13 14  1  0  0  0
 14 15  2  0  0  0
  3  4  2  0  0  0
  4  5  2  0  0  0
 19 20  1  0  0  0
 20 21  2  0  0  0
 21 22  1  0  0  0
 21 16  1  0  0  0
  5  1  1  0  0  0
 15  6  1  0  0  0
 15 10  1  0  0  0
 26 27  1  0  0  0
 22 23  1  0  0  0
M  END
> <score>
0.633223

> <minimizedAffinity>
-8.77881

$$$$
HIPS5921


 25 27  0  0  0  0  0  0  0  0999 V2000
   69.1478   79.3379   90.3033 N   0  0  0  0  0  0  0  0  0  0  0  0
   69.5086   78.0731   90.0076 C   0  0  0  0  0  0  0  0  0  0  0  0
   68.5512   77.2499   90.5706 C   0  0  0  0  0  0  0  0  0  0  0  0
   67.6442   78.0332   91.1896 N   0  0  0  0  0  0  0  0  0  0  0  0
   68.0303   79.2878   91.0129 N   0  0  0  0  0  0  0  0  0  0  0  0
   71.1927   82.9399   89.2518 C   0  0  0  0  0  0  0  0  0  0  0  0
   71.8596   81.8953   89.9126 C   0  0  0  0  0  0  0  0  0  0  0  0
   71.1857   80.7229   90.2582 C   0  0  0  0  0  0  0  0  0  0  0  0
   69.8263   80.5610   89.9497 C   0  0  0  0  0  0  0  0  0  0  0  0
   69.1485   81.6156   89.3117 C   0  0  0  0  0  0  0  0  0  0  0  0
   69.8099   82.8051   88.9809 C   0  0  0  0  0  0  0  0  0  0  0  0
   69.0515   83.8360   88.4222 O   0  0  0  0  0  0  0  0  0  0  0  0
   68.1379   83.7091   88.2572 H   0  0  0  0  0  0  0  0  0  0  0  0
   73.1671   84.2597   89.2087 O   0  0  0  0  0  0  0  0  0  0  0  0
   71.9714   84.1256   88.8322 C   0  0  0  0  0  0  0  0  0  0  0  0
   71.4171   85.0697   87.9728 O   0  0  0  0  0  0  0  0  0  0  0  0
   70.5293   84.9791   87.6871 H   0  0  0  0  0  0  0  0  0  0  0  0
   68.4904   75.7691   90.5367 C   0  0  0  0  0  0  0  0  0  0  0  0
   67.6597   75.1232   89.6026 C   0  0  0  0  0  0  0  0  0  0  0  0
   67.5921   73.7263   89.5585 C   0  0  0  0  0  0  0  0  0  0  0  0
   66.5515   72.9351   88.3885 Cl  0  0  0  0  0  0  0  0  0  0  0  0
   68.3529   72.9605   90.4456 C   0  0  0  0  0  0  0  0  0  0  0  0
   69.1824   73.5894   91.3779 C   0  0  0  0  0  0  0  0  0  0  0  0
   70.1372   72.6255   92.4902 Cl  0  0  0  0  0  0  0  0  0  0  0  0
   69.2526   74.9863   91.4250 C   0  0  0  0  0  0  0  0  0  0  0  0
 14 15  2  0  0  0
 15 16  1  0  0  0
 15  6  1  0  0  0
  6  7  2  0  0  0
  7  8  1  0  0  0
  8  9  2  0  0  0
  9  1  1  0  0  0
  1  2  1  0  0  0
  2  3  2  0  0  0
  3 18  1  0  0  0
 18 19  2  0  0  0
 19 20  1  0  0  0
 20 21  1  0  0  0
 20 22  2  0  0  0
 22 23  1  0  0  0
 23 24  1  0  0  0
 23 25  2  0  0  0
  3  4  2  0  0  0
  4  5  2  0  0  0
  9 10  1  0  0  0
 10 11  2  0  0  0
 11 12  1  0  0  0
 11  6  1  0  0  0
  5  1  1  0  0  0
 25 18  1  0  0  0
 16 17  1  0  0  0
 12 13  1  0  0  0
M  END
> <score>
-0.190436

> <minimizedAffinity>
-7.69807

$$$$
HIPS5921


 25 27  0  0  0  0  0  0  0  0999 V2000
   69.0752   79.3412   90.3011 N   0  0  0  0  0  0  0  0  0  0  0  0
   69.4374   78.0850   89.9724 C   0  0  0  0  0  0  0  0  0  0  0  0
   68.4943   77.2447   90.5344 C   0  0  0  0  0  0  0  0  0  0  0  0
   67.5942   78.0097   91.1855 N   0  0  0  0  0  0  0  0  0  0  0  0
   67.9705   79.2699   91.0288 N   0  0  0  0  0  0  0  0  0  0  0  0
   71.0828   82.9762   89.2922 C   0  0  0  0  0  0  0  0  0  0  0  0
   71.7570   81.9359   89.9525 C   0  0  0  0  0  0  0  0  0  0  0  0
   71.0953   80.7527   90.2841 C   0  0  0  0  0  0  0  0  0  0  0  0
   69.7410   80.5753   89.9618 C   0  0  0  0  0  0  0  0  0  0  0  0
   69.0556   81.6252   89.3244 C   0  0  0  0  0  0  0  0  0  0  0  0
   69.7045   82.8253   89.0075 C   0  0  0  0  0  0  0  0  0  0  0  0
   68.9380   83.8500   88.4483 O   0  0  0  0  0  0  0  0  0  0  0  0
   68.0277   83.7124   88.2740 H   0  0  0  0  0  0  0  0  0  0  0  0
   73.1026   84.1079   88.7611 O   0  0  0  0  0  0  0  0  0  0  0  0
   71.8499   84.1746   88.8876 C   0  0  0  0  0  0  0  0  0  0  0  0
   71.1963   85.3654   88.5843 O   0  0  0  0  0  0  0  0  0  0  0  0
   70.2656   85.4252   88.6750 H   0  0  0  0  0  0  0  0  0  0  0  0
   68.4406   75.7647   90.4701 C   0  0  0  0  0  0  0  0  0  0  0  0
   69.2185   74.9961   91.3556 C   0  0  0  0  0  0  0  0  0  0  0  0
   69.1781   73.5984   91.3069 C   0  0  0  0  0  0  0  0  0  0  0  0
   70.1540   72.6535   92.4172 Cl  0  0  0  0  0  0  0  0  0  0  0  0
   68.3608   72.9540   90.3747 C   0  0  0  0  0  0  0  0  0  0  0  0
   67.5828   73.7053   89.4898 C   0  0  0  0  0  0  0  0  0  0  0  0
   66.5570   72.8937   88.3208 Cl  0  0  0  0  0  0  0  0  0  0  0  0
   67.6207   75.1035   89.5355 C   0  0  0  0  0  0  0  0  0  0  0  0
 14 15  2  0  0  0
 15 16  1  0  0  0
 15  6  1  0  0  0
  6  7  2  0  0  0
  7  8  1  0  0  0
  8  9  2  0  0  0
  9  1  1  0  0  0
  1  2  1  0  0  0
  2  3  2  0  0  0
  3 18  1  0  0  0
 18 19  2  0  0  0
 19 20  1  0  0  0
 20 21  1  0  0  0
 20 22  2  0  0  0
 22 23  1  0  0  0
 23 24  1  0  0  0
 23 25  2  0  0  0
  3  4  2  0  0  0
  4  5  2  0  0  0
  9 10  1  0  0  0
 10 11  2  0  0  0
 11 12  1  0  0  0
 11  6  1  0  0  0
  5  1  1  0  0  0
 25 18  1  0  0  0
 16 17  1  0  0  0
 12 13  1  0  0  0
M  END
> <score>
-0.190436

> <minimizedAffinity>
-7.65457

$$$$
HIPS5921


 25 27  0  0  0  0  0  0  0  0999 V2000
   68.7408   78.0404   90.8216 N   0  0  0  0  0  0  0  0  0  0  0  0
   69.6923   78.8367   90.2945 C   0  0  0  0  0  0  0  0  0  0  0  0
   69.1267   80.0915   90.1650 C   0  0  0  0  0  0  0  0  0  0  0  0
   67.8560   80.0207   90.6118 N   0  0  0  0  0  0  0  0  0  0  0  0
   67.6505   78.7713   91.0004 N   0  0  0  0  0  0  0  0  0  0  0  0
   69.0165   73.8724   91.7230 C   0  0  0  0  0  0  0  0  0  0  0  0
   68.3989   74.3186   90.5431 C   0  0  0  0  0  0  0  0  0  0  0  0
   68.3071   75.6813   90.2559 C   0  0  0  0  0  0  0  0  0  0  0  0
   68.8334   76.6362   91.1395 C   0  0  0  0  0  0  0  0  0  0  0  0
   69.4289   76.1944   92.3347 C   0  0  0  0  0  0  0  0  0  0  0  0
   69.5059   74.8302   92.6430 C   0  0  0  0  0  0  0  0  0  0  0  0
   70.0388   74.4741   93.8838 O   0  0  0  0  0  0  0  0  0  0  0  0
   70.3531   75.1372   94.4664 H   0  0  0  0  0  0  0  0  0  0  0  0
   69.3053   71.6435   90.9542 O   0  0  0  0  0  0  0  0  0  0  0  0
   69.1635   72.4165   91.9400 C   0  0  0  0  0  0  0  0  0  0  0  0
   69.2084   71.8931   93.2290 O   0  0  0  0  0  0  0  0  0  0  0  0
   69.1041   72.4591   93.9684 H   0  0  0  0  0  0  0  0  0  0  0  0
   69.7560   81.3227   89.6304 C   0  0  0  0  0  0  0  0  0  0  0  0
   71.0881   81.6301   89.9634 C   0  0  0  0  0  0  0  0  0  0  0  0
   71.6956   82.7883   89.4662 C   0  0  0  0  0  0  0  0  0  0  0  0
   73.3571   83.1585   89.8905 Cl  0  0  0  0  0  0  0  0  0  0  0  0
   70.9800   83.6508   88.6317 C   0  0  0  0  0  0  0  0  0  0  0  0
   69.6565   83.3571   88.2928 C   0  0  0  0  0  0  0  0  0  0  0  0
   68.7605   84.4413   87.2443 Cl  0  0  0  0  0  0  0  0  0  0  0  0
   69.0456   82.1995   88.7882 C   0  0  0  0  0  0  0  0  0  0  0  0
 14 15  2  0  0  0
 15 16  1  0  0  0
 15  6  1  0  0  0
  6  7  2  0  0  0
  7  8  1  0  0  0
  8  9  2  0  0  0
  9  1  1  0  0  0
  1  2  1  0  0  0
  2  3  2  0  0  0
  3 18  1  0  0  0
 18 19  2  0  0  0
 19 20  1  0  0  0
 20 21  1  0  0  0
 20 22  2  0  0  0
 22 23  1  0  0  0
 23 24  1  0  0  0
 23 25  2  0  0  0
  3  4  2  0  0  0
  4  5  2  0  0  0
  9 10  1  0  0  0
 10 11  2  0  0  0
 11 12  1  0  0  0
 11  6  1  0  0  0
  5  1  1  0  0  0
 25 18  1  0  0  0
 16 17  1  0  0  0
 12 13  1  0  0  0
M  END
> <score>
-0.190436

> <minimizedAffinity>
-7.48979

$$$$
HIPS5963


 21 21  0  0  0  0  0  0  0  0999 V2000
   70.5456   76.6285   91.3052 N   0  0  0  0  0  0  0  0  0  0  0  0
   69.9259   76.1466   92.5042 C   0  0  0  0  0  0  0  0  0  0  0  0
   70.3564   76.5131   93.6319 O   0  0  0  0  0  0  0  0  0  0  0  0
   68.8203   75.2380   92.4142 N   0  0  0  0  0  0  0  0  0  0  0  0
   70.2314   76.2823   90.4387 H   0  0  0  0  0  0  0  0  0  0  0  0
   68.6753   74.7598   91.5659 H   0  0  0  0  0  0  0  0  0  0  0  0
   67.9140   74.9913   93.5006 C   0  0  0  0  0  0  0  0  0  0  0  0
   66.6375   75.5776   93.5806 C   0  0  0  0  0  0  0  0  0  0  0  0
   65.8871   75.1363   94.6611 C   0  0  0  0  0  0  0  0  0  0  0  0
   66.8011   74.0120   95.5106 S   0  0  0  0  0  0  0  0  0  0  0  0
   68.1628   74.0697   94.5226 C   0  0  0  0  0  0  0  0  0  0  0  0
   69.3954   73.3017   94.7680 C   0  0  0  0  0  0  0  0  0  0  0  0
   69.5403   72.6849   95.8570 O   0  0  0  0  0  0  0  0  0  0  0  0
   70.4156   73.2699   93.8231 O   0  0  0  0  0  0  0  0  0  0  0  0
   70.3159   73.7258   93.0105 H   0  0  0  0  0  0  0  0  0  0  0  0
   71.6266   77.6147   91.3174 C   0  0  0  0  0  0  0  0  0  0  0  0
   71.4645   78.6305   90.1747 C   0  0  0  0  0  0  0  0  0  0  0  0
   70.1105   79.3663   90.1800 C   0  0  0  0  0  0  0  0  0  0  0  0
   70.2209   80.8840   89.9236 C   0  0  0  0  0  0  0  0  0  0  0  0
   72.0433   82.6340   89.8329 C   0  0  0  0  0  0  0  0  0  0  0  0
   71.4223   81.5057   90.6509 C   0  0  0  0  0  0  0  0  0  0  0  0
 20 21  1  0  0  0
 21 19  1  0  0  0
 19 18  1  0  0  0
 18 17  1  0  0  0
 17 16  1  0  0  0
 16  1  1  0  0  0
  1  2  1  0  0  0
  2  3  2  0  0  0
  2  4  1  0  0  0
  4  7  1  0  0  0
  7  8  1  0  0  0
  8  9  2  0  0  0
  9 10  1  0  0  0
 10 11  1  0  0  0
 11 12  1  0  0  0
 12 13  2  0  0  0
 12 14  1  0  0  0
 11  7  2  0  0  0
  1  5  1  0  0  0
  4  6  1  0  0  0
 14 15  1  0  0  0
M  END
> <score>
0.640496

> <minimizedAffinity>
-5.85554

$$$$
HIPS5963


 21 21  0  0  0  0  0  0  0  0999 V2000
   70.7547   76.1368   91.4686 N   0  0  0  0  0  0  0  0  0  0  0  0
   70.0351   75.8786   92.6809 C   0  0  0  0  0  0  0  0  0  0  0  0
   70.2243   76.6019   93.6968 O   0  0  0  0  0  0  0  0  0  0  0  0
   69.1065   74.7873   92.7344 N   0  0  0  0  0  0  0  0  0  0  0  0
   70.6353   75.5230   90.7082 H   0  0  0  0  0  0  0  0  0  0  0  0
   69.1693   74.0851   92.0473 H   0  0  0  0  0  0  0  0  0  0  0  0
   68.0893   74.6684   93.7413 C   0  0  0  0  0  0  0  0  0  0  0  0
   66.8117   75.2428   93.6101 C   0  0  0  0  0  0  0  0  0  0  0  0
   65.9500   74.9322   94.6524 C   0  0  0  0  0  0  0  0  0  0  0  0
   66.7678   73.9375   95.7306 S   0  0  0  0  0  0  0  0  0  0  0  0
   68.2273   73.8876   94.8932 C   0  0  0  0  0  0  0  0  0  0  0  0
   69.4265   73.1736   95.3639 C   0  0  0  0  0  0  0  0  0  0  0  0
   70.4827   73.2071   94.6777 O   0  0  0  0  0  0  0  0  0  0  0  0
   69.4013   72.4389   96.5447 O   0  0  0  0  0  0  0  0  0  0  0  0
   68.6200   72.4087   97.0611 H   0  0  0  0  0  0  0  0  0  0  0  0
   71.6598   77.2765   91.3161 C   0  0  0  0  0  0  0  0  0  0  0  0
   71.2069   78.1958   90.1700 C   0  0  0  0  0  0  0  0  0  0  0  0
   69.7064   78.5452   90.2048 C   0  0  0  0  0  0  0  0  0  0  0  0
   68.8806   77.8746   89.0869 C   0  0  0  0  0  0  0  0  0  0  0  0
   67.7206   75.6784   89.5588 C   0  0  0  0  0  0  0  0  0  0  0  0
   67.6139   77.1985   89.6323 C   0  0  0  0  0  0  0  0  0  0  0  0
 20 21  1  0  0  0
 21 19  1  0  0  0
 19 18  1  0  0  0
 18 17  1  0  0  0
 17 16  1  0  0  0
 16  1  1  0  0  0
  1  2  1  0  0  0
  2  3  2  0  0  0
  2  4  1  0  0  0
  4  7  1  0  0  0
  7  8  1  0  0  0
  8  9  2  0  0  0
  9 10  1  0  0  0
 10 11  1  0  0  0
 11 12  1  0  0  0
 12 13  2  0  0  0
 12 14  1  0  0  0
 11  7  2  0  0  0
  1  5  1  0  0  0
  4  6  1  0  0  0
 14 15  1  0  0  0
M  END
> <score>
0.640496

> <minimizedAffinity>
-5.63216

$$$$
HIPS5963


 21 21  0  0  0  0  0  0  0  0999 V2000
   70.2187   78.1064   90.5076 N   0  0  0  0  0  0  0  0  0  0  0  0
   70.4438   76.8190   91.0957 C   0  0  0  0  0  0  0  0  0  0  0  0
   71.5971   76.4952   91.4908 O   0  0  0  0  0  0  0  0  0  0  0  0
   69.3521   75.8979   91.2229 N   0  0  0  0  0  0  0  0  0  0  0  0
   69.3244   78.3139   90.1522 H   0  0  0  0  0  0  0  0  0  0  0  0
   68.5457   76.0498   90.6790 H   0  0  0  0  0  0  0  0  0  0  0  0
   69.3774   74.7648   92.1050 C   0  0  0  0  0  0  0  0  0  0  0  0
   69.5383   73.4435   91.6491 C   0  0  0  0  0  0  0  0  0  0  0  0
   69.6276   72.5077   92.6697 C   0  0  0  0  0  0  0  0  0  0  0  0
   69.5179   73.3187   94.1364 S   0  0  0  0  0  0  0  0  0  0  0  0
   69.3533   74.8682   93.4994 C   0  0  0  0  0  0  0  0  0  0  0  0
   69.1659   76.0812   94.3136 C   0  0  0  0  0  0  0  0  0  0  0  0
   68.2980   76.9306   93.9779 O   0  0  0  0  0  0  0  0  0  0  0  0
   69.9543   76.3156   95.4353 O   0  0  0  0  0  0  0  0  0  0  0  0
   70.6021   75.6892   95.6919 H   0  0  0  0  0  0  0  0  0  0  0  0
   71.2654   79.1249   90.4144 C   0  0  0  0  0  0  0  0  0  0  0  0
   70.6680   80.5088   90.1116 C   0  0  0  0  0  0  0  0  0  0  0  0
   71.6581   81.6733   90.3071 C   0  0  0  0  0  0  0  0  0  0  0  0
   70.9804   83.0439   90.5158 C   0  0  0  0  0  0  0  0  0  0  0  0
   69.8279   83.6513   92.6825 C   0  0  0  0  0  0  0  0  0  0  0  0
   69.6926   82.9300   91.3450 C   0  0  0  0  0  0  0  0  0  0  0  0
 20 21  1  0  0  0
 21 19  1  0  0  0
 19 18  1  0  0  0
 18 17  1  0  0  0
 17 16  1  0  0  0
 16  1  1  0  0  0
  1  2  1  0  0  0
  2  3  2  0  0  0
  2  4  1  0  0  0
  4  7  1  0  0  0
  7  8  1  0  0  0
  8  9  2  0  0  0
  9 10  1  0  0  0
 10 11  1  0  0  0
 11 12  1  0  0  0
 12 13  2  0  0  0
 12 14  1  0  0  0
 11  7  2  0  0  0
  1  5  1  0  0  0
  4  6  1  0  0  0
 14 15  1  0  0  0
M  END
> <score>
0.640496

> <minimizedAffinity>
-5.50066

$$$$
HIPS5964


 13 13  0  0  0  0  0  0  0  0999 V2000
   69.0934   75.1159   91.1660 C   0  0  0  0  0  0  0  0  0  0  0  0
   68.4728   76.4975   90.4322 S   0  0  0  0  0  0  0  0  0  0  0  0
   67.4866   75.7200   89.3198 C   0  0  0  0  0  0  0  0  0  0  0  0
   67.6264   74.3516   89.5011 C   0  0  0  0  0  0  0  0  0  0  0  0
   66.6778   73.0948   88.4151 Br  0  0  0  0  0  0  0  0  0  0  0  0
   68.5257   74.0021   90.5279 C   0  0  0  0  0  0  0  0  0  0  0  0
   68.8346   72.6393   90.8463 N   0  0  0  0  0  0  0  0  0  0  0  0
   68.3960   71.9074   90.3552 H   0  0  0  0  0  0  0  0  0  0  0  0
   69.4854   72.4350   91.5562 H   0  0  0  0  0  0  0  0  0  0  0  0
   70.0393   75.1605   92.2968 C   0  0  0  0  0  0  0  0  0  0  0  0
   70.7805   76.1624   92.4824 O   0  0  0  0  0  0  0  0  0  0  0  0
   69.2807   73.9055   94.2910 C   0  0  0  0  0  0  0  0  0  0  0  0
   70.1225   74.0592   93.1545 O   0  0  0  0  0  0  0  0  0  0  0  0
 12 13  1  0  0  0
 13 10  1  0  0  0
 10 11  2  0  0  0
 10  1  1  0  0  0
  1  2  1  0  0  0
  2  3  1  0  0  0
  3  4  2  0  0  0
  4  5  1  0  0  0
  4  6  1  0  0  0
  6  7  1  0  0  0
  6  1  2  0  0  0
  7  8  1  0  0  0
  7  9  1  0  0  0
M  END
> <score>
0.407769

> <minimizedAffinity>
-4.36993

$$$$
HIPS5964


 13 13  0  0  0  0  0  0  0  0999 V2000
   68.5657   74.1047   92.9669 C   0  0  0  0  0  0  0  0  0  0  0  0
   69.3130   75.3965   92.1888 S   0  0  0  0  0  0  0  0  0  0  0  0
   68.7367   75.0751   90.6464 C   0  0  0  0  0  0  0  0  0  0  0  0
   67.9426   73.9393   90.7102 C   0  0  0  0  0  0  0  0  0  0  0  0
   67.0983   73.2181   89.1527 Br  0  0  0  0  0  0  0  0  0  0  0  0
   67.8433   73.3856   92.0020 C   0  0  0  0  0  0  0  0  0  0  0  0
   67.0988   72.1905   92.2694 N   0  0  0  0  0  0  0  0  0  0  0  0
   66.6150   71.7385   91.5408 H   0  0  0  0  0  0  0  0  0  0  0  0
   67.0711   71.8215   93.1817 H   0  0  0  0  0  0  0  0  0  0  0  0
   68.6782   73.8644   94.4177 C   0  0  0  0  0  0  0  0  0  0  0  0
   69.7322   74.1569   95.0431 O   0  0  0  0  0  0  0  0  0  0  0  0
   66.4202   74.0016   95.4225 C   0  0  0  0  0  0  0  0  0  0  0  0
   67.6018   73.2811   95.0934 O   0  0  0  0  0  0  0  0  0  0  0  0
 12 13  1  0  0  0
 13 10  1  0  0  0
 10 11  2  0  0  0
 10  1  1  0  0  0
  1  2  1  0  0  0
  2  3  1  0  0  0
  3  4  2  0  0  0
  4  5  1  0  0  0
  4  6  1  0  0  0
  6  7  1  0  0  0
  6  1  2  0  0  0
  7  8  1  0  0  0
  7  9  1  0  0  0
M  END
> <score>
0.407769

> <minimizedAffinity>
-4.32791

$$$$
HIPS5964


 13 13  0  0  0  0  0  0  0  0999 V2000
   69.2083   73.0034   93.5656 C   0  0  0  0  0  0  0  0  0  0  0  0
   68.5976   73.5845   92.1089 S   0  0  0  0  0  0  0  0  0  0  0  0
   69.0448   72.2776   91.1569 C   0  0  0  0  0  0  0  0  0  0  0  0
   69.6884   71.3533   91.9671 C   0  0  0  0  0  0  0  0  0  0  0  0
   70.3768   69.7127   91.2647 Br  0  0  0  0  0  0  0  0  0  0  0  0
   69.7895   71.7506   93.3151 C   0  0  0  0  0  0  0  0  0  0  0  0
   70.4516   70.9508   94.3031 N   0  0  0  0  0  0  0  0  0  0  0  0
   70.8367   70.0797   94.0540 H   0  0  0  0  0  0  0  0  0  0  0  0
   70.5213   71.2726   95.2309 H   0  0  0  0  0  0  0  0  0  0  0  0
   69.0823   73.7344   94.8403 C   0  0  0  0  0  0  0  0  0  0  0  0
   69.8700   74.6745   95.1288 O   0  0  0  0  0  0  0  0  0  0  0  0
   66.7511   73.8411   95.6659 C   0  0  0  0  0  0  0  0  0  0  0  0
   68.0854   73.3537   95.7441 O   0  0  0  0  0  0  0  0  0  0  0  0
 12 13  1  0  0  0
 13 10  1  0  0  0
 10 11  2  0  0  0
 10  1  1  0  0  0
  1  2  1  0  0  0
  2  3  1  0  0  0
  3  4  2  0  0  0
  4  5  1  0  0  0
  4  6  1  0  0  0
  6  7  1  0  0  0
  6  1  2  0  0  0
  7  8  1  0  0  0
  7  9  1  0  0  0
M  END
> <score>
0.407769

> <minimizedAffinity>
-4.21922

$$$$
HIPS5965


 20 21  0  0  0  0  0  0  0  0999 V2000
   70.5158   69.6768   93.4267 C   0  0  0  0  0  0  0  0  0  0  0  0
   70.5608   68.9289   91.9213 S   0  0  0  0  0  0  0  0  0  0  0  0
   70.0501   70.2453   91.0170 C   0  0  0  0  0  0  0  0  0  0  0  0
   69.8185   71.3104   91.8834 C   0  0  0  0  0  0  0  0  0  0  0  0
   70.0855   70.9990   93.2378 C   0  0  0  0  0  0  0  0  0  0  0  0
   69.9659   71.9603   94.2948 N   0  0  0  0  0  0  0  0  0  0  0  0
   69.6576   72.8740   94.0966 H   0  0  0  0  0  0  0  0  0  0  0  0
   70.1920   71.7066   95.2188 H   0  0  0  0  0  0  0  0  0  0  0  0
   69.3040   72.6104   91.3994 C   0  0  0  0  0  0  0  0  0  0  0  0
   68.2617   72.6621   90.4598 C   0  0  0  0  0  0  0  0  0  0  0  0
   67.7958   73.8925   89.9898 C   0  0  0  0  0  0  0  0  0  0  0  0
   68.3701   75.0849   90.4427 C   0  0  0  0  0  0  0  0  0  0  0  0
   67.7568   76.6136   89.8274 Cl  0  0  0  0  0  0  0  0  0  0  0  0
   69.4243   75.0425   91.3706 C   0  0  0  0  0  0  0  0  0  0  0  0
   70.1794   76.5172   91.9598 Cl  0  0  0  0  0  0  0  0  0  0  0  0
   69.8897   73.8085   91.8402 C   0  0  0  0  0  0  0  0  0  0  0  0
   70.9360   69.0060   94.6711 C   0  0  0  0  0  0  0  0  0  0  0  0
   70.0912   68.6765   95.5460 O   0  0  0  0  0  0  0  0  0  0  0  0
   73.2676   69.7956   94.9294 C   0  0  0  0  0  0  0  0  0  0  0  0
   72.2959   68.7578   94.8817 O   0  0  0  0  0  0  0  0  0  0  0  0
 19 20  1  0  0  0
 20 17  1  0  0  0
 17 18  2  0  0  0
 17  1  1  0  0  0
  1  2  1  0  0  0
  2  3  1  0  0  0
  3  4  2  0  0  0
  4  9  1  0  0  0
  9 10  2  0  0  0
 10 11  1  0  0  0
 11 12  2  0  0  0
 12 13  1  0  0  0
 12 14  1  0  0  0
 14 15  1  0  0  0
 14 16  2  0  0  0
  4  5  1  0  0  0
  5  6  1  0  0  0
  5  1  2  0  0  0
 16  9  1  0  0  0
  6  7  1  0  0  0
  6  8  1  0  0  0
M  END
> <score>
0.645785

> <minimizedAffinity>
-6.59693

$$$$
HIPS5965


 20 21  0  0  0  0  0  0  0  0999 V2000
   68.8750   73.6469   93.4894 C   0  0  0  0  0  0  0  0  0  0  0  0
   69.0051   72.3573   92.4184 S   0  0  0  0  0  0  0  0  0  0  0  0
   68.7554   73.2290   91.0080 C   0  0  0  0  0  0  0  0  0  0  0  0
   68.5504   74.5638   91.3469 C   0  0  0  0  0  0  0  0  0  0  0  0
   68.6238   74.8059   92.7393 C   0  0  0  0  0  0  0  0  0  0  0  0
   68.4955   76.1154   93.3086 N   0  0  0  0  0  0  0  0  0  0  0  0
   68.3188   76.8899   92.7271 H   0  0  0  0  0  0  0  0  0  0  0  0
   68.5842   76.2402   94.2812 H   0  0  0  0  0  0  0  0  0  0  0  0
   68.2471   75.5893   90.3244 C   0  0  0  0  0  0  0  0  0  0  0  0
   67.4074   75.2909   89.2393 C   0  0  0  0  0  0  0  0  0  0  0  0
   67.1431   76.2568   88.2650 C   0  0  0  0  0  0  0  0  0  0  0  0
   67.7209   77.5275   88.3554 C   0  0  0  0  0  0  0  0  0  0  0  0
   67.3647   78.7160   87.1095 Cl  0  0  0  0  0  0  0  0  0  0  0  0
   68.5752   77.8301   89.4291 C   0  0  0  0  0  0  0  0  0  0  0  0
   69.3282   79.4123   89.5764 Cl  0  0  0  0  0  0  0  0  0  0  0  0
   68.8387   76.8606   90.4041 C   0  0  0  0  0  0  0  0  0  0  0  0
   69.0708   73.5071   94.9445 C   0  0  0  0  0  0  0  0  0  0  0  0
   70.2120   73.6462   95.4605 O   0  0  0  0  0  0  0  0  0  0  0  0
   66.7171   73.8532   95.6277 C   0  0  0  0  0  0  0  0  0  0  0  0
   67.9714   73.1934   95.7496 O   0  0  0  0  0  0  0  0  0  0  0  0
 19 20  1  0  0  0
 20 17  1  0  0  0
 17 18  2  0  0  0
 17  1  1  0  0  0
  1  2  1  0  0  0
  2  3  1  0  0  0
  3  4  2  0  0  0
  4  9  1  0  0  0
  9 10  2  0  0  0
 10 11  1  0  0  0
 11 12  2  0  0  0
 12 13  1  0  0  0
 12 14  1  0  0  0
 14 15  1  0  0  0
 14 16  2  0  0  0
  4  5  1  0  0  0
  5  6  1  0  0  0
  5  1  2  0  0  0
 16  9  1  0  0  0
  6  7  1  0  0  0
  6  8  1  0  0  0
M  END
> <score>
0.645785

> <minimizedAffinity>
-6.09450

$$$$
HIPS5965


 20 21  0  0  0  0  0  0  0  0999 V2000
   68.9851   73.6790   93.9885 C   0  0  0  0  0  0  0  0  0  0  0  0
   67.4260   74.0351   94.5078 S   0  0  0  0  0  0  0  0  0  0  0  0
   66.9450   74.8984   93.1532 C   0  0  0  0  0  0  0  0  0  0  0  0
   68.0097   74.9386   92.2569 C   0  0  0  0  0  0  0  0  0  0  0  0
   69.1563   74.2489   92.7177 C   0  0  0  0  0  0  0  0  0  0  0  0
   70.3507   74.1167   91.9358 N   0  0  0  0  0  0  0  0  0  0  0  0
   70.4084   74.5414   91.0495 H   0  0  0  0  0  0  0  0  0  0  0  0
   71.1132   73.6012   92.2852 H   0  0  0  0  0  0  0  0  0  0  0  0
   67.9233   75.6764   90.9774 C   0  0  0  0  0  0  0  0  0  0  0  0
   67.4353   75.0475   89.8206 C   0  0  0  0  0  0  0  0  0  0  0  0
   67.3776   75.7430   88.6102 C   0  0  0  0  0  0  0  0  0  0  0  0
   67.8151   77.0695   88.5364 C   0  0  0  0  0  0  0  0  0  0  0  0
   67.7272   77.9113   86.9952 Cl  0  0  0  0  0  0  0  0  0  0  0  0
   68.3199   77.7020   89.6851 C   0  0  0  0  0  0  0  0  0  0  0  0
   68.8874   79.3656   89.6342 Cl  0  0  0  0  0  0  0  0  0  0  0  0
   68.3770   77.0032   90.8968 C   0  0  0  0  0  0  0  0  0  0  0  0
   69.9226   72.8490   94.7678 C   0  0  0  0  0  0  0  0  0  0  0  0
   69.6600   72.5161   95.9544 O   0  0  0  0  0  0  0  0  0  0  0  0
   71.4232   71.0921   93.8800 C   0  0  0  0  0  0  0  0  0  0  0  0
   71.1267   72.4510   94.1786 O   0  0  0  0  0  0  0  0  0  0  0  0
 19 20  1  0  0  0
 20 17  1  0  0  0
 17 18  2  0  0  0
 17  1  1  0  0  0
  1  2  1  0  0  0
  2  3  1  0  0  0
  3  4  2  0  0  0
  4  9  1  0  0  0
  9 10  2  0  0  0
 10 11  1  0  0  0
 11 12  2  0  0  0
 12 13  1  0  0  0
 12 14  1  0  0  0
 14 15  1  0  0  0
 14 16  2  0  0  0
  4  5  1  0  0  0
  5  6  1  0  0  0
  5  1  2  0  0  0
 16  9  1  0  0  0
  6  7  1  0  0  0
  6  8  1  0  0  0
M  END
> <score>
0.645785

> <minimizedAffinity>
-5.96473

$$$$
HIPS5966


 23 24  0  0  0  0  0  0  0  0999 V2000
   70.6867   70.3282   93.7616 C   0  0  0  0  0  0  0  0  0  0  0  0
   70.8079   69.3550   92.3957 S   0  0  0  0  0  0  0  0  0  0  0  0
   70.1062   70.4249   91.3120 C   0  0  0  0  0  0  0  0  0  0  0  0
   69.7669   71.5873   91.9994 C   0  0  0  0  0  0  0  0  0  0  0  0
   70.0841   71.5359   93.3776 C   0  0  0  0  0  0  0  0  0  0  0  0
   69.7759   72.6009   94.2865 N   0  0  0  0  0  0  0  0  0  0  0  0
   69.3521   73.4249   93.9538 H   0  0  0  0  0  0  0  0  0  0  0  0
   69.9881   72.5083   95.2434 H   0  0  0  0  0  0  0  0  0  0  0  0
   69.1731   72.7545   91.3107 C   0  0  0  0  0  0  0  0  0  0  0  0
   69.5975   74.0551   91.6149 C   0  0  0  0  0  0  0  0  0  0  0  0
   69.0509   75.1530   90.9469 C   0  0  0  0  0  0  0  0  0  0  0  0
   68.0722   74.9742   89.9505 C   0  0  0  0  0  0  0  0  0  0  0  0
   67.6583   73.6604   89.6326 C   0  0  0  0  0  0  0  0  0  0  0  0
   66.4485   73.3406   88.3926 Cl  0  0  0  0  0  0  0  0  0  0  0  0
   68.2121   72.5660   90.3073 C   0  0  0  0  0  0  0  0  0  0  0  0
   67.4829   76.1673   89.2293 C   0  0  0  0  0  0  0  0  0  0  0  0
   66.3697   76.6662   89.8840 F   0  0  0  0  0  0  0  0  0  0  0  0
   67.1039   75.7972   87.9516 F   0  0  0  0  0  0  0  0  0  0  0  0
   68.4274   77.1747   89.1501 F   0  0  0  0  0  0  0  0  0  0  0  0
   71.1054   69.8854   95.1045 C   0  0  0  0  0  0  0  0  0  0  0  0
   70.4410   70.2025   96.1272 O   0  0  0  0  0  0  0  0  0  0  0  0
   73.5629   69.6187   95.2338 C   0  0  0  0  0  0  0  0  0  0  0  0
   72.2446   69.0841   95.2298 O   0  0  0  0  0  0  0  0  0  0  0  0
 22 23  1  0  0  0
 23 20  1  0  0  0
 20 21  2  0  0  0
 20  1  1  0  0  0
  1  2  1  0  0  0
  2  3  1  0  0  0
  3  4  2  0  0  0
  4  9  1  0  0  0
  9 10  2  0  0  0
 10 11  1  0  0  0
 11 12  2  0  0  0
 12 16  1  0  0  0
 16 17  1  0  0  0
 16 18  1  0  0  0
 16 19  1  0  0  0
 12 13  1  0  0  0
 13 14  1  0  0  0
 13 15  2  0  0  0
  4  5  1  0  0  0
  5  6  1  0  0  0
  5  1  2  0  0  0
 15  9  1  0  0  0
  6  7  1  0  0  0
  6  8  1  0  0  0
M  END
> <score>
0.645785

> <minimizedAffinity>
-7.21633

$$$$
HIPS5966


 23 24  0  0  0  0  0  0  0  0999 V2000
   70.6099   69.9600   93.6387 C   0  0  0  0  0  0  0  0  0  0  0  0
   70.7658   69.1083   92.1972 S   0  0  0  0  0  0  0  0  0  0  0  0
   70.1349   70.2880   91.1864 C   0  0  0  0  0  0  0  0  0  0  0  0
   69.7939   71.3938   91.9609 C   0  0  0  0  0  0  0  0  0  0  0  0
   70.0518   71.2125   93.3405 C   0  0  0  0  0  0  0  0  0  0  0  0
   69.7304   72.2009   94.3279 N   0  0  0  0  0  0  0  0  0  0  0  0
   69.3399   73.0620   94.0536 H   0  0  0  0  0  0  0  0  0  0  0  0
   69.9001   72.0185   95.2804 H   0  0  0  0  0  0  0  0  0  0  0  0
   69.2565   72.6326   91.3562 C   0  0  0  0  0  0  0  0  0  0  0  0
   68.2170   72.5765   90.4177 C   0  0  0  0  0  0  0  0  0  0  0  0
   67.6969   73.7491   89.8658 C   0  0  0  0  0  0  0  0  0  0  0  0
   68.1990   75.0080   90.2477 C   0  0  0  0  0  0  0  0  0  0  0  0
   69.2352   75.0634   91.2076 C   0  0  0  0  0  0  0  0  0  0  0  0
   69.9166   76.5935   91.7537 Cl  0  0  0  0  0  0  0  0  0  0  0  0
   69.7501   73.8826   91.7557 C   0  0  0  0  0  0  0  0  0  0  0  0
   67.6319   76.2761   89.6468 C   0  0  0  0  0  0  0  0  0  0  0  0
   68.6158   77.0504   89.0559 F   0  0  0  0  0  0  0  0  0  0  0  0
   67.0249   77.0282   90.6362 F   0  0  0  0  0  0  0  0  0  0  0  0
   66.6954   75.9536   88.6812 F   0  0  0  0  0  0  0  0  0  0  0  0
   70.9617   69.3894   94.9523 C   0  0  0  0  0  0  0  0  0  0  0  0
   70.1748   68.6078   95.5504 O   0  0  0  0  0  0  0  0  0  0  0  0
   73.4361   69.4112   94.8869 C   0  0  0  0  0  0  0  0  0  0  0  0
   72.1982   69.7095   95.5214 O   0  0  0  0  0  0  0  0  0  0  0  0
 22 23  1  0  0  0
 23 20  1  0  0  0
 20 21  2  0  0  0
 20  1  1  0  0  0
  1  2  1  0  0  0
  2  3  1  0  0  0
  3  4  2  0  0  0
  4  9  1  0  0  0
  9 10  2  0  0  0
 10 11  1  0  0  0
 11 12  2  0  0  0
 12 16  1  0  0  0
 16 17  1  0  0  0
 16 18  1  0  0  0
 16 19  1  0  0  0
 12 13  1  0  0  0
 13 14  1  0  0  0
 13 15  2  0  0  0
  4  5  1  0  0  0
  5  6  1  0  0  0
  5  1  2  0  0  0
 15  9  1  0  0  0
  6  7  1  0  0  0
  6  8  1  0  0  0
M  END
> <score>
0.645785

> <minimizedAffinity>
-7.19544

$$$$
HIPS5966


 23 24  0  0  0  0  0  0  0  0999 V2000
   68.9141   73.5869   93.9733 C   0  0  0  0  0  0  0  0  0  0  0  0
   67.4059   74.0759   94.5331 S   0  0  0  0  0  0  0  0  0  0  0  0
   66.9034   74.8516   93.1340 C   0  0  0  0  0  0  0  0  0  0  0  0
   67.9115   74.7348   92.1807 C   0  0  0  0  0  0  0  0  0  0  0  0
   69.0467   74.0315   92.6490 C   0  0  0  0  0  0  0  0  0  0  0  0
   70.2237   73.8375   91.8538 N   0  0  0  0  0  0  0  0  0  0  0  0
   70.2541   74.1741   90.9292 H   0  0  0  0  0  0  0  0  0  0  0  0
   71.0017   73.3677   92.2325 H   0  0  0  0  0  0  0  0  0  0  0  0
   67.7542   75.2713   90.8108 C   0  0  0  0  0  0  0  0  0  0  0  0
   67.3110   74.4470   89.7675 C   0  0  0  0  0  0  0  0  0  0  0  0
   67.1422   74.9622   88.4805 C   0  0  0  0  0  0  0  0  0  0  0  0
   67.4041   76.3187   88.2089 C   0  0  0  0  0  0  0  0  0  0  0  0
   67.8339   77.1526   89.2663 C   0  0  0  0  0  0  0  0  0  0  0  0
   68.1739   78.8640   89.0221 Cl  0  0  0  0  0  0  0  0  0  0  0  0
   68.0000   76.6274   90.5532 C   0  0  0  0  0  0  0  0  0  0  0  0
   67.2195   76.8724   86.8124 C   0  0  0  0  0  0  0  0  0  0  0  0
   68.3724   77.4776   86.3420 F   0  0  0  0  0  0  0  0  0  0  0  0
   66.2067   77.8144   86.8161 F   0  0  0  0  0  0  0  0  0  0  0  0
   66.8839   75.8467   85.9471 F   0  0  0  0  0  0  0  0  0  0  0  0
   69.8930   72.8753   94.8162 C   0  0  0  0  0  0  0  0  0  0  0  0
   69.6304   72.5930   96.0158 O   0  0  0  0  0  0  0  0  0  0  0  0
   71.4689   71.1335   94.0354 C   0  0  0  0  0  0  0  0  0  0  0  0
   71.1173   72.4938   94.2585 O   0  0  0  0  0  0  0  0  0  0  0  0
 22 23  1  0  0  0
 23 20  1  0  0  0
 20 21  2  0  0  0
 20  1  1  0  0  0
  1  2  1  0  0  0
  2  3  1  0  0  0
  3  4  2  0  0  0
  4  9  1  0  0  0
  9 10  2  0  0  0
 10 11  1  0  0  0
 11 12  2  0  0  0
 12 16  1  0  0  0
 16 17  1  0  0  0
 16 18  1  0  0  0
 16 19  1  0  0  0
 12 13  1  0  0  0
 13 14  1  0  0  0
 13 15  2  0  0  0
  4  5  1  0  0  0
  5  6  1  0  0  0
  5  1  2  0  0  0
 15  9  1  0  0  0
  6  7  1  0  0  0
  6  8  1  0  0  0
M  END
> <score>
0.645785

> <minimizedAffinity>
-6.88321

$$$$
HIPS5967


 25 26  0  0  0  0  0  0  0  0999 V2000
   69.4708   74.2279   92.3819 C   0  0  0  0  0  0  0  0  0  0  0  0
   68.8531   74.2525   91.1125 C   0  0  0  0  0  0  0  0  0  0  0  0
   68.5444   72.9840   90.6273 C   0  0  0  0  0  0  0  0  0  0  0  0
   69.0760   71.8456   91.7414 S   0  0  0  0  0  0  0  0  0  0  0  0
   69.6898   72.9340   92.8654 C   0  0  0  0  0  0  0  0  0  0  0  0
   68.5402   75.4809   90.3550 C   0  0  0  0  0  0  0  0  0  0  0  0
   67.4617   75.4998   89.4568 C   0  0  0  0  0  0  0  0  0  0  0  0
   67.1589   76.6623   88.7430 C   0  0  0  0  0  0  0  0  0  0  0  0
   67.9343   77.8149   88.9090 C   0  0  0  0  0  0  0  0  0  0  0  0
   67.5045   79.2671   88.0163 Cl  0  0  0  0  0  0  0  0  0  0  0  0
   69.0316   77.7965   89.7863 C   0  0  0  0  0  0  0  0  0  0  0  0
   70.0323   79.2222   90.0238 Cl  0  0  0  0  0  0  0  0  0  0  0  0
   69.3344   76.6300   90.4988 C   0  0  0  0  0  0  0  0  0  0  0  0
   70.4114   72.5368   94.0849 C   0  0  0  0  0  0  0  0  0  0  0  0
   71.5492   72.0007   94.0121 O   0  0  0  0  0  0  0  0  0  0  0  0
   69.8155   72.7200   95.3287 O   0  0  0  0  0  0  0  0  0  0  0  0
   68.9694   73.1182   95.3887 H   0  0  0  0  0  0  0  0  0  0  0  0
   69.7450   75.4142   93.1411 N   0  0  0  0  0  0  0  0  0  0  0  0
   70.5549   75.9356   92.9374 H   0  0  0  0  0  0  0  0  0  0  0  0
   68.8549   75.8715   94.2104 C   0  0  0  0  0  0  0  0  0  0  0  0
   67.7634   76.8171   93.6763 C   0  0  0  0  0  0  0  0  0  0  0  0
   66.3343   76.2823   93.8749 C   0  0  0  0  0  0  0  0  0  0  0  0
   66.2670   74.7516   93.8029 C   0  0  0  0  0  0  0  0  0  0  0  0
   66.6639   73.9597   96.1932 C   0  0  0  0  0  0  0  0  0  0  0  0
   65.6506   74.1218   95.0606 C   0  0  0  0  0  0  0  0  0  0  0  0
 24 25  1  0  0  0
 25 23  1  0  0  0
 23 22  1  0  0  0
 22 21  1  0  0  0
 21 20  1  0  0  0
 20 18  1  0  0  0
 18  1  1  0  0  0
  1  2  1  0  0  0
  2  6  1  0  0  0
  6  7  2  0  0  0
  7  8  1  0  0  0
  8  9  2  0  0  0
  9 10  1  0  0  0
  9 11  1  0  0  0
 11 12  1  0  0  0
 11 13  2  0  0  0
  2  3  2  0  0  0
  3  4  1  0  0  0
  4  5  1  0  0  0
  5 14  1  0  0  0
 14 15  2  0  0  0
 14 16  1  0  0  0
  5  1  2  0  0  0
 13  6  1  0  0  0
 18 19  1  0  0  0
 16 17  1  0  0  0
M  END
> <score>
-0.855624

> <minimizedAffinity>
-6.82967

$$$$
HIPS5967


 25 26  0  0  0  0  0  0  0  0999 V2000
   70.2989   71.7742   93.4488 C   0  0  0  0  0  0  0  0  0  0  0  0
   69.7833   71.9091   92.1414 C   0  0  0  0  0  0  0  0  0  0  0  0
   69.7230   70.7030   91.4476 C   0  0  0  0  0  0  0  0  0  0  0  0
   70.3469   69.4932   92.4308 S   0  0  0  0  0  0  0  0  0  0  0  0
   70.6884   70.4669   93.7575 C   0  0  0  0  0  0  0  0  0  0  0  0
   69.3329   73.1824   91.5441 C   0  0  0  0  0  0  0  0  0  0  0  0
   68.2917   73.1901   90.6027 C   0  0  0  0  0  0  0  0  0  0  0  0
   67.8586   74.3936   90.0402 C   0  0  0  0  0  0  0  0  0  0  0  0
   68.4658   75.6010   90.4021 C   0  0  0  0  0  0  0  0  0  0  0  0
   67.8739   77.0980   89.6957 Cl  0  0  0  0  0  0  0  0  0  0  0  0
   69.5263   75.5992   91.3238 C   0  0  0  0  0  0  0  0  0  0  0  0
   70.3175   77.0933   91.8053 Cl  0  0  0  0  0  0  0  0  0  0  0  0
   69.9598   74.3919   91.8845 C   0  0  0  0  0  0  0  0  0  0  0  0
   71.3706   69.9918   94.9717 C   0  0  0  0  0  0  0  0  0  0  0  0
   70.7817   70.0028   96.0855 O   0  0  0  0  0  0  0  0  0  0  0  0
   72.6917   69.5618   94.8962 O   0  0  0  0  0  0  0  0  0  0  0  0
   73.1346   69.5515   94.0706 H   0  0  0  0  0  0  0  0  0  0  0  0
   70.3180   72.8511   94.3969 N   0  0  0  0  0  0  0  0  0  0  0  0
   71.0373   73.5212   94.3447 H   0  0  0  0  0  0  0  0  0  0  0  0
   69.2983   72.9819   95.4399 C   0  0  0  0  0  0  0  0  0  0  0  0
   68.3723   74.1848   95.1823 C   0  0  0  0  0  0  0  0  0  0  0  0
   66.9499   73.9971   95.7385 C   0  0  0  0  0  0  0  0  0  0  0  0
   65.8742   74.5423   94.7905 C   0  0  0  0  0  0  0  0  0  0  0  0
   66.3575   76.6173   93.3910 C   0  0  0  0  0  0  0  0  0  0  0  0
   66.4571   75.0949   93.4817 C   0  0  0  0  0  0  0  0  0  0  0  0
 24 25  1  0  0  0
 25 23  1  0  0  0
 23 22  1  0  0  0
 22 21  1  0  0  0
 21 20  1  0  0  0
 20 18  1  0  0  0
 18  1  1  0  0  0
  1  2  1  0  0  0
  2  6  1  0  0  0
  6  7  2  0  0  0
  7  8  1  0  0  0
  8  9  2  0  0  0
  9 10  1  0  0  0
  9 11  1  0  0  0
 11 12  1  0  0  0
 11 13  2  0  0  0
  2  3  2  0  0  0
  3  4  1  0  0  0
  4  5  1  0  0  0
  5 14  1  0  0  0
 14 15  2  0  0  0
 14 16  1  0  0  0
  5  1  2  0  0  0
 13  6  1  0  0  0
 18 19  1  0  0  0
 16 17  1  0  0  0
M  END
> <score>
-0.855624

> <minimizedAffinity>
-6.61215

$$$$
HIPS5967


 25 26  0  0  0  0  0  0  0  0999 V2000
   68.3230   75.6875   94.0119 C   0  0  0  0  0  0  0  0  0  0  0  0
   67.0812   76.3116   93.7632 C   0  0  0  0  0  0  0  0  0  0  0  0
   66.0091   75.6634   94.3715 C   0  0  0  0  0  0  0  0  0  0  0  0
   66.5928   74.3055   95.1686 S   0  0  0  0  0  0  0  0  0  0  0  0
   68.2126   74.5208   94.7750 C   0  0  0  0  0  0  0  0  0  0  0  0
   66.9035   77.5351   92.9555 C   0  0  0  0  0  0  0  0  0  0  0  0
   66.7434   78.7790   93.5860 C   0  0  0  0  0  0  0  0  0  0  0  0
   66.5814   79.9396   92.8248 C   0  0  0  0  0  0  0  0  0  0  0  0
   66.5667   79.8712   91.4275 C   0  0  0  0  0  0  0  0  0  0  0  0
   66.3907   81.3562   90.5034 Cl  0  0  0  0  0  0  0  0  0  0  0  0
   66.6998   78.6267   90.7889 C   0  0  0  0  0  0  0  0  0  0  0  0
   66.6859   78.4959   89.0359 Cl  0  0  0  0  0  0  0  0  0  0  0  0
   66.8599   77.4650   91.5537 C   0  0  0  0  0  0  0  0  0  0  0  0
   69.2758   73.5628   95.1174 C   0  0  0  0  0  0  0  0  0  0  0  0
   70.2870   73.4337   94.3770 O   0  0  0  0  0  0  0  0  0  0  0  0
   69.1455   72.7643   96.2493 O   0  0  0  0  0  0  0  0  0  0  0  0
   68.3956   72.8559   96.8035 H   0  0  0  0  0  0  0  0  0  0  0  0
   69.5780   76.2562   93.6114 N   0  0  0  0  0  0  0  0  0  0  0  0
   70.1398   76.6991   94.2877 H   0  0  0  0  0  0  0  0  0  0  0  0
   70.0472   76.1966   92.2253 C   0  0  0  0  0  0  0  0  0  0  0  0
   69.8455   74.7969   91.6163 C   0  0  0  0  0  0  0  0  0  0  0  0
   68.6745   74.7214   90.6209 C   0  0  0  0  0  0  0  0  0  0  0  0
   68.2404   73.2780   90.3364 C   0  0  0  0  0  0  0  0  0  0  0  0
   66.9174   74.5231   88.5483 C   0  0  0  0  0  0  0  0  0  0  0  0
   67.1774   73.1814   89.2322 C   0  0  0  0  0  0  0  0  0  0  0  0
 24 25  1  0  0  0
 25 23  1  0  0  0
 23 22  1  0  0  0
 22 21  1  0  0  0
 21 20  1  0  0  0
 20 18  1  0  0  0
 18  1  1  0  0  0
  1  2  1  0  0  0
  2  6  1  0  0  0
  6  7  2  0  0  0
  7  8  1  0  0  0
  8  9  2  0  0  0
  9 10  1  0  0  0
  9 11  1  0  0  0
 11 12  1  0  0  0
 11 13  2  0  0  0
  2  3  2  0  0  0
  3  4  1  0  0  0
  4  5  1  0  0  0
  5 14  1  0  0  0
 14 15  2  0  0  0
 14 16  1  0  0  0
  5  1  2  0  0  0
 13  6  1  0  0  0
 18 19  1  0  0  0
 16 17  1  0  0  0
M  END
> <score>
-0.855624

> <minimizedAffinity>
-6.48847

$$$$
HIPS5968


 25 26  0  0  0  0  0  0  0  0999 V2000
   69.9505   71.9421   93.1593 C   0  0  0  0  0  0  0  0  0  0  0  0
   69.6794   71.8945   91.7710 C   0  0  0  0  0  0  0  0  0  0  0  0
   70.0871   70.7014   91.1773 C   0  0  0  0  0  0  0  0  0  0  0  0
   70.7460   69.7130   92.3643 S   0  0  0  0  0  0  0  0  0  0  0  0
   70.5416   70.7760   93.6509 C   0  0  0  0  0  0  0  0  0  0  0  0
   68.9887   72.9594   91.0067 C   0  0  0  0  0  0  0  0  0  0  0  0
   69.2757   74.3102   91.2615 C   0  0  0  0  0  0  0  0  0  0  0  0
   68.6202   75.3182   90.5499 C   0  0  0  0  0  0  0  0  0  0  0  0
   67.6757   74.9921   89.5713 C   0  0  0  0  0  0  0  0  0  0  0  0
   66.8671   76.2887   88.7014 Cl  0  0  0  0  0  0  0  0  0  0  0  0
   67.3921   73.6437   89.2985 C   0  0  0  0  0  0  0  0  0  0  0  0
   66.2165   73.1891   88.0725 Cl  0  0  0  0  0  0  0  0  0  0  0  0
   68.0528   72.6354   90.0093 C   0  0  0  0  0  0  0  0  0  0  0  0
   68.3173   73.4231   94.3701 C   0  0  0  0  0  0  0  0  0  0  0  0
   67.3317   72.8192   93.8658 O   0  0  0  0  0  0  0  0  0  0  0  0
   69.6553   73.0739   93.9892 N   0  0  0  0  0  0  0  0  0  0  0  0
   70.3997   73.6327   94.3098 H   0  0  0  0  0  0  0  0  0  0  0  0
   68.0819   74.5505   95.3275 C   0  0  0  0  0  0  0  0  0  0  0  0
   66.7437   74.3636   96.0536 C   0  0  0  0  0  0  0  0  0  0  0  0
   65.8748   75.9930   94.2931 C   0  0  0  0  0  0  0  0  0  0  0  0
   65.7345   75.4736   95.7237 C   0  0  0  0  0  0  0  0  0  0  0  0
   70.9866   70.5081   95.0290 C   0  0  0  0  0  0  0  0  0  0  0  0
   71.9661   69.7419   95.2320 O   0  0  0  0  0  0  0  0  0  0  0  0
   70.3462   71.1029   96.1114 O   0  0  0  0  0  0  0  0  0  0  0  0
   69.6171   71.6739   95.9685 H   0  0  0  0  0  0  0  0  0  0  0  0
 20 21  1  0  0  0
 21 19  1  0  0  0
 19 18  1  0  0  0
 18 14  1  0  0  0
 14 15  2  0  0  0
 14 16  1  0  0  0
 16  1  1  0  0  0
  1  2  1  0  0  0
  2  6  1  0  0  0
  6  7  2  0  0  0
  7  8  1  0  0  0
  8  9  2  0  0  0
  9 10  1  0  0  0
  9 11  1  0  0  0
 11 12  1  0  0  0
 11 13  2  0  0  0
  2  3  2  0  0  0
  3  4  1  0  0  0
  4  5  1  0  0  0
  5 22  1  0  0  0
 22 23  2  0  0  0
 22 24  1  0  0  0
  5  1  2  0  0  0
 13  6  1  0  0  0
 16 17  1  0  0  0
 24 25  1  0  0  0
M  END
> <score>
0.062742

> <minimizedAffinity>
-7.17268

$$$$
HIPS5968


 25 26  0  0  0  0  0  0  0  0999 V2000
   69.9054   72.2959   92.6846 C   0  0  0  0  0  0  0  0  0  0  0  0
   69.3506   72.1629   91.3893 C   0  0  0  0  0  0  0  0  0  0  0  0
   69.4596   70.8700   90.8805 C   0  0  0  0  0  0  0  0  0  0  0  0
   70.2064   69.9043   92.0337 S   0  0  0  0  0  0  0  0  0  0  0  0
   70.4191   71.1015   93.1950 C   0  0  0  0  0  0  0  0  0  0  0  0
   68.6706   73.2483   90.6447 C   0  0  0  0  0  0  0  0  0  0  0  0
   67.6361   72.9458   89.7444 C   0  0  0  0  0  0  0  0  0  0  0  0
   66.9980   73.9650   89.0330 C   0  0  0  0  0  0  0  0  0  0  0  0
   67.3788   75.2985   89.2148 C   0  0  0  0  0  0  0  0  0  0  0  0
   66.5565   76.5525   88.2966 Cl  0  0  0  0  0  0  0  0  0  0  0  0
   68.4024   75.6131   90.1237 C   0  0  0  0  0  0  0  0  0  0  0  0
   68.9081   77.2763   90.3876 Cl  0  0  0  0  0  0  0  0  0  0  0  0
   69.0374   74.5912   90.8387 C   0  0  0  0  0  0  0  0  0  0  0  0
   68.9321   73.9070   94.3530 C   0  0  0  0  0  0  0  0  0  0  0  0
   67.8852   73.2143   94.4739 O   0  0  0  0  0  0  0  0  0  0  0  0
   69.9456   73.5326   93.4098 N   0  0  0  0  0  0  0  0  0  0  0  0
   70.6979   74.1482   93.2541 H   0  0  0  0  0  0  0  0  0  0  0  0
   69.0863   75.1596   95.1594 C   0  0  0  0  0  0  0  0  0  0  0  0
   68.9563   76.3940   94.2581 C   0  0  0  0  0  0  0  0  0  0  0  0
   67.1882   78.0133   93.3859 C   0  0  0  0  0  0  0  0  0  0  0  0
   67.5418   76.5561   93.6815 C   0  0  0  0  0  0  0  0  0  0  0  0
   71.0969   70.8957   94.4862 C   0  0  0  0  0  0  0  0  0  0  0  0
   70.4476   71.0156   95.5594 O   0  0  0  0  0  0  0  0  0  0  0  0
   72.4451   70.5558   94.5354 O   0  0  0  0  0  0  0  0  0  0  0  0
   72.9346   70.4648   93.7416 H   0  0  0  0  0  0  0  0  0  0  0  0
 20 21  1  0  0  0
 21 19  1  0  0  0
 19 18  1  0  0  0
 18 14  1  0  0  0
 14 15  2  0  0  0
 14 16  1  0  0  0
 16  1  1  0  0  0
  1  2  1  0  0  0
  2  6  1  0  0  0
  6  7  2  0  0  0
  7  8  1  0  0  0
  8  9  2  0  0  0
  9 10  1  0  0  0
  9 11  1  0  0  0
 11 12  1  0  0  0
 11 13  2  0  0  0
  2  3  2  0  0  0
  3  4  1  0  0  0
  4  5  1  0  0  0
  5 22  1  0  0  0
 22 23  2  0  0  0
 22 24  1  0  0  0
  5  1  2  0  0  0
 13  6  1  0  0  0
 16 17  1  0  0  0
 24 25  1  0  0  0
M  END
> <score>
0.062742

> <minimizedAffinity>
-7.02966

$$$$
HIPS5968


 25 26  0  0  0  0  0  0  0  0999 V2000
   68.9622   74.0770   92.4394 C   0  0  0  0  0  0  0  0  0  0  0  0
   68.6470   73.6679   91.1216 C   0  0  0  0  0  0  0  0  0  0  0  0
   68.8449   72.3042   90.9129 C   0  0  0  0  0  0  0  0  0  0  0  0
   69.3742   71.6161   92.3504 S   0  0  0  0  0  0  0  0  0  0  0  0
   69.3766   73.0280   93.2633 C   0  0  0  0  0  0  0  0  0  0  0  0
   68.1106   74.5573   90.0650 C   0  0  0  0  0  0  0  0  0  0  0  0
   67.2676   74.0401   89.0680 C   0  0  0  0  0  0  0  0  0  0  0  0
   66.7668   74.8729   88.0643 C   0  0  0  0  0  0  0  0  0  0  0  0
   67.0947   76.2325   88.0456 C   0  0  0  0  0  0  0  0  0  0  0  0
   66.4500   77.2472   86.7625 Cl  0  0  0  0  0  0  0  0  0  0  0  0
   67.9253   76.7628   89.0465 C   0  0  0  0  0  0  0  0  0  0  0  0
   68.3576   78.4670   89.0646 Cl  0  0  0  0  0  0  0  0  0  0  0  0
   68.4225   75.9278   90.0536 C   0  0  0  0  0  0  0  0  0  0  0  0
   67.6515   76.0041   93.3854 C   0  0  0  0  0  0  0  0  0  0  0  0
   66.5687   75.3631   93.3019 O   0  0  0  0  0  0  0  0  0  0  0  0
   68.8725   75.4342   92.8940 N   0  0  0  0  0  0  0  0  0  0  0  0
   69.6803   75.9965   92.8677 H   0  0  0  0  0  0  0  0  0  0  0  0
   67.6467   77.3921   93.9481 C   0  0  0  0  0  0  0  0  0  0  0  0
   67.1321   78.3900   92.9031 C   0  0  0  0  0  0  0  0  0  0  0  0
   64.9876   78.9381   94.1720 C   0  0  0  0  0  0  0  0  0  0  0  0
   66.2554   79.4899   93.5206 C   0  0  0  0  0  0  0  0  0  0  0  0
   69.8134   73.1090   94.6674 C   0  0  0  0  0  0  0  0  0  0  0  0
   70.0241   74.2347   95.1929 O   0  0  0  0  0  0  0  0  0  0  0  0
   69.9832   71.9558   95.4269 O   0  0  0  0  0  0  0  0  0  0  0  0
   69.8285   71.1150   95.0432 H   0  0  0  0  0  0  0  0  0  0  0  0
 20 21  1  0  0  0
 21 19  1  0  0  0
 19 18  1  0  0  0
 18 14  1  0  0  0
 14 15  2  0  0  0
 14 16  1  0  0  0
 16  1  1  0  0  0
  1  2  1  0  0  0
  2  6  1  0  0  0
  6  7  2  0  0  0
  7  8  1  0  0  0
  8  9  2  0  0  0
  9 10  1  0  0  0
  9 11  1  0  0  0
 11 12  1  0  0  0
 11 13  2  0  0  0
  2  3  2  0  0  0
  3  4  1  0  0  0
  4  5  1  0  0  0
  5 22  1  0  0  0
 22 23  2  0  0  0
 22 24  1  0  0  0
  5  1  2  0  0  0
 13  6  1  0  0  0
 16 17  1  0  0  0
 24 25  1  0  0  0
M  END
> <score>
0.062742

> <minimizedAffinity>
-6.97316

$$$$
HIPS5969


 30 31  0  0  0  0  0  0  0  0999 V2000
   68.9166   74.0486   92.7117 C   0  0  0  0  0  0  0  0  0  0  0  0
   69.4794   73.1939   93.6948 C   0  0  0  0  0  0  0  0  0  0  0  0
   69.8957   71.9039   93.3197 C   0  0  0  0  0  0  0  0  0  0  0  0
   69.7409   71.4567   92.0091 C   0  0  0  0  0  0  0  0  0  0  0  0
   69.1780   72.2892   91.0458 C   0  0  0  0  0  0  0  0  0  0  0  0
   68.7745   73.5906   91.3772 C   0  0  0  0  0  0  0  0  0  0  0  0
   68.2385   74.4670   90.3074 C   0  0  0  0  0  0  0  0  0  0  0  0
   67.3676   73.9446   89.3378 C   0  0  0  0  0  0  0  0  0  0  0  0
   66.8458   74.7712   88.3395 C   0  0  0  0  0  0  0  0  0  0  0  0
   67.1918   76.1261   88.2923 C   0  0  0  0  0  0  0  0  0  0  0  0
   66.5119   77.1360   87.0229 Cl  0  0  0  0  0  0  0  0  0  0  0  0
   68.0730   76.6548   89.2504 C   0  0  0  0  0  0  0  0  0  0  0  0
   68.5376   78.3508   89.2248 Cl  0  0  0  0  0  0  0  0  0  0  0  0
   68.5961   75.8247   90.2484 C   0  0  0  0  0  0  0  0  0  0  0  0
   66.8194   77.0869   93.6467 N   0  0  0  0  0  0  0  0  0  0  0  0
   67.1619   75.7243   93.3636 C   0  0  0  0  0  0  0  0  0  0  0  0
   66.2752   74.8271   93.3941 O   0  0  0  0  0  0  0  0  0  0  0  0
   68.5196   75.3841   93.0573 N   0  0  0  0  0  0  0  0  0  0  0  0
   67.4941   77.7860   93.4884 H   0  0  0  0  0  0  0  0  0  0  0  0
   69.2043   76.0911   93.0848 H   0  0  0  0  0  0  0  0  0  0  0  0
   65.5086   77.4808   94.1611 C   0  0  0  0  0  0  0  0  0  0  0  0
   65.3028   78.9974   94.0469 C   0  0  0  0  0  0  0  0  0  0  0  0
   66.6261   79.7347   93.7795 C   0  0  0  0  0  0  0  0  0  0  0  0
   66.5660   80.6070   92.5155 C   0  0  0  0  0  0  0  0  0  0  0  0
   64.6889   80.6764   90.8268 C   0  0  0  0  0  0  0  0  0  0  0  0
   65.8884   79.8854   91.3401 C   0  0  0  0  0  0  0  0  0  0  0  0
   69.6075   73.6027   95.1188 C   0  0  0  0  0  0  0  0  0  0  0  0
   69.2621   72.8104   96.0375 O   0  0  0  0  0  0  0  0  0  0  0  0
   70.0740   74.8689   95.4620 O   0  0  0  0  0  0  0  0  0  0  0  0
   70.3347   75.4697   94.7918 H   0  0  0  0  0  0  0  0  0  0  0  0
 25 26  1  0  0  0
 26 24  1  0  0  0
 24 23  1  0  0  0
 23 22  1  0  0  0
 22 21  1  0  0  0
 21 15  1  0  0  0
 15 16  1  0  0  0
 16 17  2  0  0  0
 16 18  1  0  0  0
 18  1  1  0  0  0
  1  2  2  0  0  0
  2 27  1  0  0  0
 27 28  2  0  0  0
 27 29  1  0  0  0
  2  3  1  0  0  0
  3  4  2  0  0  0
  4  5  1  0  0  0
  5  6  2  0  0  0
  6  7  1  0  0  0
  7  8  2  0  0  0
  8  9  1  0  0  0
  9 10  2  0  0  0
 10 11  1  0  0  0
 10 12  1  0  0  0
 12 13  1  0  0  0
 12 14  2  0  0  0
  6  1  1  0  0  0
 14  7  1  0  0  0
 15 19  1  0  0  0
 18 20  1  0  0  0
 29 30  1  0  0  0
M  END
> <score>
-0.465878

> <minimizedAffinity>
-7.74470

$$$$
HIPS5969


 30 31  0  0  0  0  0  0  0  0999 V2000
   68.0464   75.8506   94.0112 C   0  0  0  0  0  0  0  0  0  0  0  0
   68.0704   74.5787   94.6402 C   0  0  0  0  0  0  0  0  0  0  0  0
   66.8547   73.9130   94.8794 C   0  0  0  0  0  0  0  0  0  0  0  0
   65.6397   74.4968   94.5269 C   0  0  0  0  0  0  0  0  0  0  0  0
   65.6131   75.7498   93.9208 C   0  0  0  0  0  0  0  0  0  0  0  0
   66.8064   76.4322   93.6438 C   0  0  0  0  0  0  0  0  0  0  0  0
   66.7374   77.7357   92.9396 C   0  0  0  0  0  0  0  0  0  0  0  0
   66.6731   78.9312   93.6731 C   0  0  0  0  0  0  0  0  0  0  0  0
   66.6269   80.1620   93.0136 C   0  0  0  0  0  0  0  0  0  0  0  0
   66.6372   80.2147   91.6154 C   0  0  0  0  0  0  0  0  0  0  0  0
   66.5817   81.7828   90.8208 Cl  0  0  0  0  0  0  0  0  0  0  0  0
   66.6880   79.0231   90.8728 C   0  0  0  0  0  0  0  0  0  0  0  0
   66.6981   79.0438   89.1143 Cl  0  0  0  0  0  0  0  0  0  0  0  0
   66.7322   77.7911   91.5355 C   0  0  0  0  0  0  0  0  0  0  0  0
   71.2474   76.9930   92.2931 N   0  0  0  0  0  0  0  0  0  0  0  0
   69.9989   76.3209   92.5018 C   0  0  0  0  0  0  0  0  0  0  0  0
   69.5351   75.5528   91.6146 O   0  0  0  0  0  0  0  0  0  0  0  0
   69.2738   76.5351   93.7189 N   0  0  0  0  0  0  0  0  0  0  0  0
   71.6535   77.4796   93.0465 H   0  0  0  0  0  0  0  0  0  0  0  0
   69.6299   77.1742   94.3777 H   0  0  0  0  0  0  0  0  0  0  0  0
   71.9428   76.9854   91.0068 C   0  0  0  0  0  0  0  0  0  0  0  0
   71.8152   78.3423   90.3012 C   0  0  0  0  0  0  0  0  0  0  0  0
   70.3499   78.6832   89.9797 C   0  0  0  0  0  0  0  0  0  0  0  0
   70.0372   80.1744   90.1817 C   0  0  0  0  0  0  0  0  0  0  0  0
   71.0544   82.3839   89.5009 C   0  0  0  0  0  0  0  0  0  0  0  0
   71.3056   81.0418   90.1821 C   0  0  0  0  0  0  0  0  0  0  0  0
   69.3367   73.9429   95.0912 C   0  0  0  0  0  0  0  0  0  0  0  0
   69.5256   72.7095   94.9064 O   0  0  0  0  0  0  0  0  0  0  0  0
   70.3147   74.6822   95.7513 O   0  0  0  0  0  0  0  0  0  0  0  0
   70.1902   75.5994   95.8967 H   0  0  0  0  0  0  0  0  0  0  0  0
 25 26  1  0  0  0
 26 24  1  0  0  0
 24 23  1  0  0  0
 23 22  1  0  0  0
 22 21  1  0  0  0
 21 15  1  0  0  0
 15 16  1  0  0  0
 16 17  2  0  0  0
 16 18  1  0  0  0
 18  1  1  0  0  0
  1  2  2  0  0  0
  2 27  1  0  0  0
 27 28  2  0  0  0
 27 29  1  0  0  0
  2  3  1  0  0  0
  3  4  2  0  0  0
  4  5  1  0  0  0
  5  6  2  0  0  0
  6  7  1  0  0  0
  7  8  2  0  0  0
  8  9  1  0  0  0
  9 10  2  0  0  0
 10 11  1  0  0  0
 10 12  1  0  0  0
 12 13  1  0  0  0
 12 14  2  0  0  0
  6  1  1  0  0  0
 14  7  1  0  0  0
 15 19  1  0  0  0
 18 20  1  0  0  0
 29 30  1  0  0  0
M  END
> <score>
-0.465878

> <minimizedAffinity>
-7.24310

$$$$
HIPS5969


 30 31  0  0  0  0  0  0  0  0999 V2000
   67.6366   75.0871   93.5628 C   0  0  0  0  0  0  0  0  0  0  0  0
   66.6245   75.9702   94.0206 C   0  0  0  0  0  0  0  0  0  0  0  0
   65.8922   75.6303   95.1723 C   0  0  0  0  0  0  0  0  0  0  0  0
   66.1361   74.4355   95.8465 C   0  0  0  0  0  0  0  0  0  0  0  0
   67.1201   73.5619   95.3922 C   0  0  0  0  0  0  0  0  0  0  0  0
   67.8874   73.8792   94.2622 C   0  0  0  0  0  0  0  0  0  0  0  0
   68.9684   72.9516   93.8488 C   0  0  0  0  0  0  0  0  0  0  0  0
   70.0903   72.7643   94.6720 C   0  0  0  0  0  0  0  0  0  0  0  0
   71.1018   71.8774   94.2949 C   0  0  0  0  0  0  0  0  0  0  0  0
   71.0099   71.1725   93.0898 C   0  0  0  0  0  0  0  0  0  0  0  0
   72.3011   70.0620   92.6508 Cl  0  0  0  0  0  0  0  0  0  0  0  0
   69.8973   71.3634   92.2532 C   0  0  0  0  0  0  0  0  0  0  0  0
   69.7442   70.5012   90.7280 Cl  0  0  0  0  0  0  0  0  0  0  0  0
   68.8861   72.2538   92.6318 C   0  0  0  0  0  0  0  0  0  0  0  0
   70.3504   76.5437   91.3230 N   0  0  0  0  0  0  0  0  0  0  0  0
   69.6359   76.1887   92.5136 C   0  0  0  0  0  0  0  0  0  0  0  0
   70.0747   76.5354   93.6447 O   0  0  0  0  0  0  0  0  0  0  0  0
   68.4263   75.4271   92.4134 N   0  0  0  0  0  0  0  0  0  0  0  0
   69.9249   76.3798   90.4504 H   0  0  0  0  0  0  0  0  0  0  0  0
   68.1264   75.1266   91.5252 H   0  0  0  0  0  0  0  0  0  0  0  0
   71.6854   77.1394   91.3514 C   0  0  0  0  0  0  0  0  0  0  0  0
   71.8274   78.2297   90.2807 C   0  0  0  0  0  0  0  0  0  0  0  0
   70.4580   78.7402   89.8005 C   0  0  0  0  0  0  0  0  0  0  0  0
   70.1945   80.1950   90.2209 C   0  0  0  0  0  0  0  0  0  0  0  0
   71.2083   82.4530   90.7245 C   0  0  0  0  0  0  0  0  0  0  0  0
   71.4631   81.0598   90.1568 C   0  0  0  0  0  0  0  0  0  0  0  0
   66.2849   77.2258   93.2998 C   0  0  0  0  0  0  0  0  0  0  0  0
   66.5249   77.3311   92.0660 O   0  0  0  0  0  0  0  0  0  0  0  0
   65.7327   78.3122   93.9734 O   0  0  0  0  0  0  0  0  0  0  0  0
   65.5483   78.2506   94.8900 H   0  0  0  0  0  0  0  0  0  0  0  0
 25 26  1  0  0  0
 26 24  1  0  0  0
 24 23  1  0  0  0
 23 22  1  0  0  0
 22 21  1  0  0  0
 21 15  1  0  0  0
 15 16  1  0  0  0
 16 17  2  0  0  0
 16 18  1  0  0  0
 18  1  1  0  0  0
  1  2  2  0  0  0
  2 27  1  0  0  0
 27 28  2  0  0  0
 27 29  1  0  0  0
  2  3  1  0  0  0
  3  4  2  0  0  0
  4  5  1  0  0  0
  5  6  2  0  0  0
  6  7  1  0  0  0
  7  8  2  0  0  0
  8  9  1  0  0  0
  9 10  2  0  0  0
 10 11  1  0  0  0
 10 12  1  0  0  0
 12 13  1  0  0  0
 12 14  2  0  0  0
  6  1  1  0  0  0
 14  7  1  0  0  0
 15 19  1  0  0  0
 18 20  1  0  0  0
 29 30  1  0  0  0
M  END
> <score>
-0.465878

> <minimizedAffinity>
-7.20802

$$$$
HIPS5993


 20 21  0  0  0  0  0  0  0  0999 V2000
   69.9038   72.2207   94.2960 N   0  0  0  0  0  0  0  0  0  0  0  0
   70.1188   71.1553   93.3620 C   0  0  0  0  0  0  0  0  0  0  0  0
   69.8696   71.2871   91.9753 C   0  0  0  0  0  0  0  0  0  0  0  0
   70.1844   70.1423   91.2478 C   0  0  0  0  0  0  0  0  0  0  0  0
   70.7468   68.9760   92.3135 S   0  0  0  0  0  0  0  0  0  0  0  0
   70.6208   69.8952   93.7169 C   0  0  0  0  0  0  0  0  0  0  0  0
   69.5482   73.0843   93.9844 H   0  0  0  0  0  0  0  0  0  0  0  0
   70.1118   72.0891   95.2493 H   0  0  0  0  0  0  0  0  0  0  0  0
   69.2918   72.4863   91.3294 C   0  0  0  0  0  0  0  0  0  0  0  0
   69.6872   73.7737   91.7267 C   0  0  0  0  0  0  0  0  0  0  0  0
   69.1211   74.9021   91.1282 C   0  0  0  0  0  0  0  0  0  0  0  0
   68.1468   74.7605   90.1344 C   0  0  0  0  0  0  0  0  0  0  0  0
   67.4573   76.2044   89.4053 Cl  0  0  0  0  0  0  0  0  0  0  0  0
   67.7332   73.4766   89.7416 C   0  0  0  0  0  0  0  0  0  0  0  0
   66.5061   73.2540   88.5019 Cl  0  0  0  0  0  0  0  0  0  0  0  0
   68.3017   72.3473   90.3429 C   0  0  0  0  0  0  0  0  0  0  0  0
   71.0543   69.4156   95.0426 C   0  0  0  0  0  0  0  0  0  0  0  0
   70.2431   68.7815   95.7690 O   0  0  0  0  0  0  0  0  0  0  0  0
   72.3528   69.6231   95.4940 O   0  0  0  0  0  0  0  0  0  0  0  0
   72.9643   70.0933   94.9621 H   0  0  0  0  0  0  0  0  0  0  0  0
  1  2  1  0  0  0
  2  3  1  0  0  0
  3  9  1  0  0  0
  9 10  2  0  0  0
 10 11  1  0  0  0
 11 12  2  0  0  0
 12 13  1  0  0  0
 12 14  1  0  0  0
 14 15  1  0  0  0
 14 16  2  0  0  0
  3  4  2  0  0  0
  4  5  1  0  0  0
  5  6  1  0  0  0
  6 17  1  0  0  0
 17 18  2  0  0  0
 17 19  1  0  0  0
  6  2  2  0  0  0
 16  9  1  0  0  0
  1  7  1  0  0  0
  1  8  1  0  0  0
 19 20  1  0  0  0
M  END
> <score>
0.255042

> <minimizedAffinity>
-6.78148

$$$$
HIPS5993


 20 21  0  0  0  0  0  0  0  0999 V2000
   69.9493   72.1068   94.2771 N   0  0  0  0  0  0  0  0  0  0  0  0
   70.0755   71.1419   93.2251 C   0  0  0  0  0  0  0  0  0  0  0  0
   69.7983   71.4416   91.8701 C   0  0  0  0  0  0  0  0  0  0  0  0
   70.0248   70.3693   91.0113 C   0  0  0  0  0  0  0  0  0  0  0  0
   70.5442   69.0613   91.9233 S   0  0  0  0  0  0  0  0  0  0  0  0
   70.5103   69.8237   93.4226 C   0  0  0  0  0  0  0  0  0  0  0  0
   69.6379   73.0185   94.0741 H   0  0  0  0  0  0  0  0  0  0  0  0
   70.1740   71.8581   95.2028 H   0  0  0  0  0  0  0  0  0  0  0  0
   69.2764   72.7362   91.3793 C   0  0  0  0  0  0  0  0  0  0  0  0
   68.2487   72.7773   90.4235 C   0  0  0  0  0  0  0  0  0  0  0  0
   67.7760   74.0029   89.9477 C   0  0  0  0  0  0  0  0  0  0  0  0
   68.3294   75.2012   90.4110 C   0  0  0  0  0  0  0  0  0  0  0  0
   67.7083   76.7237   89.7880 Cl  0  0  0  0  0  0  0  0  0  0  0  0
   69.3691   75.1696   91.3554 C   0  0  0  0  0  0  0  0  0  0  0  0
   70.0978   76.6521   91.9585 Cl  0  0  0  0  0  0  0  0  0  0  0  0
   69.8413   73.9403   91.8307 C   0  0  0  0  0  0  0  0  0  0  0  0
   70.9491   69.1754   94.6727 C   0  0  0  0  0  0  0  0  0  0  0  0
   71.8713   68.3175   94.6365 O   0  0  0  0  0  0  0  0  0  0  0  0
   70.3849   69.5161   95.8969 O   0  0  0  0  0  0  0  0  0  0  0  0
   69.6986   70.1527   95.9355 H   0  0  0  0  0  0  0  0  0  0  0  0
  1  2  1  0  0  0
  2  3  1  0  0  0
  3  9  1  0  0  0
  9 10  2  0  0  0
 10 11  1  0  0  0
 11 12  2  0  0  0
 12 13  1  0  0  0
 12 14  1  0  0  0
 14 15  1  0  0  0
 14 16  2  0  0  0
  3  4  2  0  0  0
  4  5  1  0  0  0
  5  6  1  0  0  0
  6 17  1  0  0  0
 17 18  2  0  0  0
 17 19  1  0  0  0
  6  2  2  0  0  0
 16  9  1  0  0  0
  1  7  1  0  0  0
  1  8  1  0  0  0
 19 20  1  0  0  0
M  END
> <score>
0.255042

> <minimizedAffinity>
-6.55908

$$$$
HIPS5993


 20 21  0  0  0  0  0  0  0  0999 V2000
   69.2683   75.4041   93.1220 N   0  0  0  0  0  0  0  0  0  0  0  0
   69.1613   74.1103   92.5151 C   0  0  0  0  0  0  0  0  0  0  0  0
   68.7424   73.9216   91.1767 C   0  0  0  0  0  0  0  0  0  0  0  0
   68.7488   72.5867   90.7806 C   0  0  0  0  0  0  0  0  0  0  0  0
   69.2496   71.6516   92.0794 S   0  0  0  0  0  0  0  0  0  0  0  0
   69.4854   72.9125   93.1678 C   0  0  0  0  0  0  0  0  0  0  0  0
   69.0251   76.2094   92.6105 H   0  0  0  0  0  0  0  0  0  0  0  0
   69.5849   75.4877   94.0504 H   0  0  0  0  0  0  0  0  0  0  0  0
   68.2922   75.0011   90.2705 C   0  0  0  0  0  0  0  0  0  0  0  0
   67.3568   74.7404   89.2564 C   0  0  0  0  0  0  0  0  0  0  0  0
   66.9528   75.7592   88.3899 C   0  0  0  0  0  0  0  0  0  0  0  0
   67.4845   77.0468   88.5175 C   0  0  0  0  0  0  0  0  0  0  0  0
   66.9519   78.3024   87.4076 Cl  0  0  0  0  0  0  0  0  0  0  0  0
   68.4331   77.3132   89.5190 C   0  0  0  0  0  0  0  0  0  0  0  0
   69.1320   78.9157   89.7091 Cl  0  0  0  0  0  0  0  0  0  0  0  0
   68.8365   76.2907   90.3860 C   0  0  0  0  0  0  0  0  0  0  0  0
   70.0157   72.7196   94.5306 C   0  0  0  0  0  0  0  0  0  0  0  0
   70.3567   71.5662   94.9065 O   0  0  0  0  0  0  0  0  0  0  0  0
   70.1761   73.7931   95.3994 O   0  0  0  0  0  0  0  0  0  0  0  0
   69.9258   74.6550   95.1303 H   0  0  0  0  0  0  0  0  0  0  0  0
  1  2  1  0  0  0
  2  3  1  0  0  0
  3  9  1  0  0  0
  9 10  2  0  0  0
 10 11  1  0  0  0
 11 12  2  0  0  0
 12 13  1  0  0  0
 12 14  1  0  0  0
 14 15  1  0  0  0
 14 16  2  0  0  0
  3  4  2  0  0  0
  4  5  1  0  0  0
  5  6  1  0  0  0
  6 17  1  0  0  0
 17 18  2  0  0  0
 17 19  1  0  0  0
  6  2  2  0  0  0
 16  9  1  0  0  0
  1  7  1  0  0  0
  1  8  1  0  0  0
 19 20  1  0  0  0
M  END
> <score>
0.255042

> <minimizedAffinity>
-6.35478

$$$$
HIPS6025


 26 28  0  0  0  0  0  0  0  0999 V2000
   66.8309   76.6122   88.8668 C   0  0  0  0  0  0  0  0  0  0  0  0
   68.3017   73.5201   90.5673 C   0  0  0  0  0  0  0  0  0  0  0  0
   67.8072   72.5032   89.7295 C   0  0  0  0  0  0  0  0  0  0  0  0
   67.0130   72.8175   88.6244 C   0  0  0  0  0  0  0  0  0  0  0  0
   66.6956   74.1463   88.3417 C   0  0  0  0  0  0  0  0  0  0  0  0
   67.1652   75.1751   89.1704 C   0  0  0  0  0  0  0  0  0  0  0  0
   67.9772   74.8582   90.2719 C   0  0  0  0  0  0  0  0  0  0  0  0
   71.0080   71.0254   93.9780 C   0  0  0  0  0  0  0  0  0  0  0  0
   70.3677   72.0975   93.2289 N   0  0  0  0  0  0  0  0  0  0  0  0
   69.6520   71.9491   92.0999 C   0  0  0  0  0  0  0  0  0  0  0  0
   69.1489   73.1883   91.7421 C   0  0  0  0  0  0  0  0  0  0  0  0
   69.6045   74.0496   92.7315 C   0  0  0  0  0  0  0  0  0  0  0  0
   70.3364   73.3585   93.6268 N   0  0  0  0  0  0  0  0  0  0  0  0
   67.1870   77.4597   89.9600 O   0  0  0  0  0  0  0  0  0  0  0  0
   68.3174   78.2921   90.0074 C   0  0  0  0  0  0  0  0  0  0  0  0
   68.2306   79.6921   89.9284 C   0  0  0  0  0  0  0  0  0  0  0  0
   69.3857   80.4716   89.9875 C   0  0  0  0  0  0  0  0  0  0  0  0
   70.6450   79.8718   90.1228 C   0  0  0  0  0  0  0  0  0  0  0  0
   71.7827   80.6771   90.1803 O   0  0  0  0  0  0  0  0  0  0  0  0
   70.7497   78.4640   90.1986 C   0  0  0  0  0  0  0  0  0  0  0  0
   69.5743   77.6916   90.1375 C   0  0  0  0  0  0  0  0  0  0  0  0
   71.7001   81.6091   90.1290 H   0  0  0  0  0  0  0  0  0  0  0  0
   72.0604   77.7798   90.3415 C   0  0  0  0  0  0  0  0  0  0  0  0
   72.9317   77.8524   89.4337 O   0  0  0  0  0  0  0  0  0  0  0  0
   72.3430   77.0444   91.4902 O   0  0  0  0  0  0  0  0  0  0  0  0
   71.7059   76.9807   92.1743 H   0  0  0  0  0  0  0  0  0  0  0  0
  8  9  1  0  0  0
  9 10  1  0  0  0
 10 11  2  0  0  0
 11  2  1  0  0  0
  2  3  2  0  0  0
  3  4  1  0  0  0
  4  5  2  0  0  0
  5  6  1  0  0  0
  6  1  1  0  0  0
  1 14  1  0  0  0
 14 15  1  0  0  0
 15 16  2  0  0  0
 16 17  1  0  0  0
 17 18  2  0  0  0
 18 19  1  0  0  0
 18 20  1  0  0  0
 20 23  1  0  0  0
 23 24  2  0  0  0
 23 25  1  0  0  0
 20 21  2  0  0  0
  6  7  2  0  0  0
 11 12  1  0  0  0
 12 13  2  0  0  0
 13  9  1  0  0  0
  7  2  1  0  0  0
 21 15  1  0  0  0
 19 22  1  0  0  0
 25 26  1  0  0  0
M  END
> <score>
0.054326

> <minimizedAffinity>
-7.86005

$$$$
HIPS6025


 26 28  0  0  0  0  0  0  0  0999 V2000
   67.5688   76.8788   91.0396 C   0  0  0  0  0  0  0  0  0  0  0  0
   69.8905   79.7687   90.1044 C   0  0  0  0  0  0  0  0  0  0  0  0
   71.1467   79.1543   90.2632 C   0  0  0  0  0  0  0  0  0  0  0  0
   71.2383   77.8189   90.6620 C   0  0  0  0  0  0  0  0  0  0  0  0
   70.0825   77.0791   90.9133 C   0  0  0  0  0  0  0  0  0  0  0  0
   68.8206   77.6742   90.7754 C   0  0  0  0  0  0  0  0  0  0  0  0
   68.7300   79.0125   90.3588 C   0  0  0  0  0  0  0  0  0  0  0  0
   71.0231   84.5070   88.9020 C   0  0  0  0  0  0  0  0  0  0  0  0
   70.2896   83.2677   89.1174 N   0  0  0  0  0  0  0  0  0  0  0  0
   70.8213   82.0984   89.5162 C   0  0  0  0  0  0  0  0  0  0  0  0
   69.7904   81.1885   89.6780 C   0  0  0  0  0  0  0  0  0  0  0  0
   68.6417   81.9020   89.3624 C   0  0  0  0  0  0  0  0  0  0  0  0
   68.9735   83.1653   89.0328 N   0  0  0  0  0  0  0  0  0  0  0  0
   67.0893   77.1096   92.3651 O   0  0  0  0  0  0  0  0  0  0  0  0
   67.0386   76.1495   93.3890 C   0  0  0  0  0  0  0  0  0  0  0  0
   65.9175   75.9871   94.2200 C   0  0  0  0  0  0  0  0  0  0  0  0
   65.9184   75.0125   95.2178 C   0  0  0  0  0  0  0  0  0  0  0  0
   67.0344   74.1864   95.4071 C   0  0  0  0  0  0  0  0  0  0  0  0
   67.0061   73.2194   96.4124 O   0  0  0  0  0  0  0  0  0  0  0  0
   68.1724   74.3405   94.5825 C   0  0  0  0  0  0  0  0  0  0  0  0
   68.1555   75.3288   93.5802 C   0  0  0  0  0  0  0  0  0  0  0  0
   66.2459   73.1271   96.9524 H   0  0  0  0  0  0  0  0  0  0  0  0
   69.3803   73.4910   94.7431 C   0  0  0  0  0  0  0  0  0  0  0  0
   69.5686   72.8246   95.7962 O   0  0  0  0  0  0  0  0  0  0  0  0
   70.3260   73.4212   93.7227 O   0  0  0  0  0  0  0  0  0  0  0  0
   70.2007   73.9106   92.9335 H   0  0  0  0  0  0  0  0  0  0  0  0
  8  9  1  0  0  0
  9 10  1  0  0  0
 10 11  2  0  0  0
 11  2  1  0  0  0
  2  3  2  0  0  0
  3  4  1  0  0  0
  4  5  2  0  0  0
  5  6  1  0  0  0
  6  1  1  0  0  0
  1 14  1  0  0  0
 14 15  1  0  0  0
 15 16  2  0  0  0
 16 17  1  0  0  0
 17 18  2  0  0  0
 18 19  1  0  0  0
 18 20  1  0  0  0
 20 23  1  0  0  0
 23 24  2  0  0  0
 23 25  1  0  0  0
 20 21  2  0  0  0
  6  7  2  0  0  0
 11 12  1  0  0  0
 12 13  2  0  0  0
 13  9  1  0  0  0
  7  2  1  0  0  0
 21 15  1  0  0  0
 19 22  1  0  0  0
 25 26  1  0  0  0
M  END
> <score>
0.054326

> <minimizedAffinity>
-7.80376

$$$$
HIPS6025


 26 28  0  0  0  0  0  0  0  0999 V2000
   71.0540   79.6448   90.2230 C   0  0  0  0  0  0  0  0  0  0  0  0
   69.4080   76.3029   91.0825 C   0  0  0  0  0  0  0  0  0  0  0  0
   68.3777   76.2670   90.1245 C   0  0  0  0  0  0  0  0  0  0  0  0
   68.2237   77.3100   89.2084 C   0  0  0  0  0  0  0  0  0  0  0  0
   69.0885   78.4044   89.2368 C   0  0  0  0  0  0  0  0  0  0  0  0
   70.1134   78.4685   90.1913 C   0  0  0  0  0  0  0  0  0  0  0  0
   70.2767   77.4112   91.1013 C   0  0  0  0  0  0  0  0  0  0  0  0
   70.0472   71.7594   93.1143 C   0  0  0  0  0  0  0  0  0  0  0  0
   69.8881   73.1980   92.9548 N   0  0  0  0  0  0  0  0  0  0  0  0
   69.7943   73.8538   91.7843 C   0  0  0  0  0  0  0  0  0  0  0  0
   69.5754   75.1934   92.0566 C   0  0  0  0  0  0  0  0  0  0  0  0
   69.5372   75.2667   93.4428 C   0  0  0  0  0  0  0  0  0  0  0  0
   69.7223   74.0379   93.9631 N   0  0  0  0  0  0  0  0  0  0  0  0
   70.3489   80.8666   89.9992 O   0  0  0  0  0  0  0  0  0  0  0  0
   70.9171   82.0541   89.5094 C   0  0  0  0  0  0  0  0  0  0  0  0
   72.2246   82.4562   89.8297 C   0  0  0  0  0  0  0  0  0  0  0  0
   72.7416   83.6426   89.3095 C   0  0  0  0  0  0  0  0  0  0  0  0
   71.9662   84.4492   88.4657 C   0  0  0  0  0  0  0  0  0  0  0  0
   72.5104   85.6299   87.9595 O   0  0  0  0  0  0  0  0  0  0  0  0
   70.6469   84.0611   88.1379 C   0  0  0  0  0  0  0  0  0  0  0  0
   70.1400   82.8609   88.6712 C   0  0  0  0  0  0  0  0  0  0  0  0
   73.3861   85.8762   88.1842 H   0  0  0  0  0  0  0  0  0  0  0  0
   69.7843   84.8810   87.2489 C   0  0  0  0  0  0  0  0  0  0  0  0
   68.6331   85.2406   87.6148 O   0  0  0  0  0  0  0  0  0  0  0  0
   70.2424   85.2642   85.9905 O   0  0  0  0  0  0  0  0  0  0  0  0
   71.0958   85.0049   85.7036 H   0  0  0  0  0  0  0  0  0  0  0  0
  8  9  1  0  0  0
  9 10  1  0  0  0
 10 11  2  0  0  0
 11  2  1  0  0  0
  2  3  2  0  0  0
  3  4  1  0  0  0
  4  5  2  0  0  0
  5  6  1  0  0  0
  6  1  1  0  0  0
  1 14  1  0  0  0
 14 15  1  0  0  0
 15 16  2  0  0  0
 16 17  1  0  0  0
 17 18  2  0  0  0
 18 19  1  0  0  0
 18 20  1  0  0  0
 20 23  1  0  0  0
 23 24  2  0  0  0
 23 25  1  0  0  0
 20 21  2  0  0  0
  6  7  2  0  0  0
 11 12  1  0  0  0
 12 13  2  0  0  0
 13  9  1  0  0  0
  7  2  1  0  0  0
 21 15  1  0  0  0
 19 22  1  0  0  0
 25 26  1  0  0  0
M  END
> <score>
0.054326

> <minimizedAffinity>
-7.79725

$$$$
HIPS6026


 26 28  0  0  0  0  0  0  0  0999 V2000
   67.0597   77.1621   92.3607 O   0  0  0  0  0  0  0  0  0  0  0  0
   68.1217   74.3178   94.5652 C   0  0  0  0  0  0  0  0  0  0  0  0
   68.1759   75.3404   93.5967 C   0  0  0  0  0  0  0  0  0  0  0  0
   67.0505   76.1417   93.3261 C   0  0  0  0  0  0  0  0  0  0  0  0
   65.8709   75.9233   94.0402 C   0  0  0  0  0  0  0  0  0  0  0  0
   65.8015   74.9177   95.0034 C   0  0  0  0  0  0  0  0  0  0  0  0
   66.9153   74.1108   95.2719 C   0  0  0  0  0  0  0  0  0  0  0  0
   66.8152   73.1098   96.2381 O   0  0  0  0  0  0  0  0  0  0  0  0
   66.0097   72.9829   96.6996 H   0  0  0  0  0  0  0  0  0  0  0  0
   69.4499   72.8620   95.9087 O   0  0  0  0  0  0  0  0  0  0  0  0
   69.3271   73.4851   94.8192 C   0  0  0  0  0  0  0  0  0  0  0  0
   70.3365   73.3781   93.8664 O   0  0  0  0  0  0  0  0  0  0  0  0
   70.2617   73.8342   93.0514 H   0  0  0  0  0  0  0  0  0  0  0  0
   67.4796   77.0134   91.0035 C   0  0  0  0  0  0  0  0  0  0  0  0
   68.8223   77.6595   90.7825 C   0  0  0  0  0  0  0  0  0  0  0  0
   70.0026   76.9155   90.9284 C   0  0  0  0  0  0  0  0  0  0  0  0
   71.2440   77.5194   90.7219 C   0  0  0  0  0  0  0  0  0  0  0  0
   71.3200   78.8707   90.3771 C   0  0  0  0  0  0  0  0  0  0  0  0
   70.1495   79.6383   90.2402 C   0  0  0  0  0  0  0  0  0  0  0  0
   68.9020   79.0220   90.4515 C   0  0  0  0  0  0  0  0  0  0  0  0
   70.2286   81.0764   89.8771 C   0  0  0  0  0  0  0  0  0  0  0  0
   71.4348   81.7853   90.0136 C   0  0  0  0  0  0  0  0  0  0  0  0
   71.4863   83.1376   89.6670 C   0  0  0  0  0  0  0  0  0  0  0  0
   70.3751   83.7656   89.2010 N   0  0  0  0  0  0  0  0  0  0  0  0
   69.1940   83.1092   89.0577 C   0  0  0  0  0  0  0  0  0  0  0  0
   69.0981   81.7561   89.3914 C   0  0  0  0  0  0  0  0  0  0  0  0
 10 11  2  0  0  0
 11 12  1  0  0  0
 11  2  1  0  0  0
  2  3  2  0  0  0
  3  4  1  0  0  0
  4  1  1  0  0  0
  1 14  1  0  0  0
 14 15  1  0  0  0
 15 16  2  0  0  0
 16 17  1  0  0  0
 17 18  2  0  0  0
 18 19  1  0  0  0
 19 21  1  0  0  0
 21 22  2  0  0  0
 22 23  1  0  0  0
 23 24  2  0  0  0
 24 25  2  0  0  0
 25 26  2  0  0  0
 19 20  2  0  0  0
  4  5  2  0  0  0
  5  6  1  0  0  0
  6  7  2  0  0  0
  7  8  1  0  0  0
  7  2  1  0  0  0
 20 15  1  0  0  0
 26 21  1  0  0  0
 12 13  1  0  0  0
  8  9  1  0  0  0
M  END
> <score>
0.179062

> <minimizedAffinity>
-8.09426

$$$$
HIPS6026


 26 28  0  0  0  0  0  0  0  0999 V2000
   70.4608   80.9504   90.1510 O   0  0  0  0  0  0  0  0  0  0  0  0
   70.6635   84.1249   88.1611 C   0  0  0  0  0  0  0  0  0  0  0  0
   70.1430   82.9486   88.7372 C   0  0  0  0  0  0  0  0  0  0  0  0
   70.9378   82.1362   89.5680 C   0  0  0  0  0  0  0  0  0  0  0  0
   72.2558   82.5140   89.8312 C   0  0  0  0  0  0  0  0  0  0  0  0
   72.7851   83.6761   89.2715 C   0  0  0  0  0  0  0  0  0  0  0  0
   72.0022   84.4849   88.4368 C   0  0  0  0  0  0  0  0  0  0  0  0
   72.5599   85.6394   87.8876 O   0  0  0  0  0  0  0  0  0  0  0  0
   73.4486   85.8669   88.0783 H   0  0  0  0  0  0  0  0  0  0  0  0
   68.6847   85.3740   87.7000 O   0  0  0  0  0  0  0  0  0  0  0  0
   69.7981   84.9547   87.2817 C   0  0  0  0  0  0  0  0  0  0  0  0
   70.1968   85.2822   85.9887 O   0  0  0  0  0  0  0  0  0  0  0  0
   71.0208   84.9792   85.6616 H   0  0  0  0  0  0  0  0  0  0  0  0
   71.1634   79.7074   90.1912 C   0  0  0  0  0  0  0  0  0  0  0  0
   70.2028   78.5469   90.1900 C   0  0  0  0  0  0  0  0  0  0  0  0
   69.2042   78.4508   89.2094 C   0  0  0  0  0  0  0  0  0  0  0  0
   68.3172   77.3731   89.2130 C   0  0  0  0  0  0  0  0  0  0  0  0
   68.4122   76.3875   90.1980 C   0  0  0  0  0  0  0  0  0  0  0  0
   69.3966   76.4724   91.1988 C   0  0  0  0  0  0  0  0  0  0  0  0
   70.2860   77.5631   91.1888 C   0  0  0  0  0  0  0  0  0  0  0  0
   69.4967   75.4270   92.2492 C   0  0  0  0  0  0  0  0  0  0  0  0
   69.2874   75.7470   93.6019 C   0  0  0  0  0  0  0  0  0  0  0  0
   69.3875   74.7481   94.5733 C   0  0  0  0  0  0  0  0  0  0  0  0
   69.6871   73.4727   94.2126 N   0  0  0  0  0  0  0  0  0  0  0  0
   69.8956   73.1308   92.9142 C   0  0  0  0  0  0  0  0  0  0  0  0
   69.8043   74.0979   91.9103 C   0  0  0  0  0  0  0  0  0  0  0  0
 10 11  2  0  0  0
 11 12  1  0  0  0
 11  2  1  0  0  0
  2  3  2  0  0  0
  3  4  1  0  0  0
  4  1  1  0  0  0
  1 14  1  0  0  0
 14 15  1  0  0  0
 15 16  2  0  0  0
 16 17  1  0  0  0
 17 18  2  0  0  0
 18 19  1  0  0  0
 19 21  1  0  0  0
 21 22  2  0  0  0
 22 23  1  0  0  0
 23 24  2  0  0  0
 24 25  2  0  0  0
 25 26  2  0  0  0
 19 20  2  0  0  0
  4  5  2  0  0  0
  5  6  1  0  0  0
  6  7  2  0  0  0
  7  8  1  0  0  0
  7  2  1  0  0  0
 20 15  1  0  0  0
 26 21  1  0  0  0
 12 13  1  0  0  0
  8  9  1  0  0  0
M  END
> <score>
0.179062

> <minimizedAffinity>
-7.79555

$$$$
HIPS6026


 26 28  0  0  0  0  0  0  0  0999 V2000
   70.8479   81.1358   90.5642 O   0  0  0  0  0  0  0  0  0  0  0  0
   70.7241   84.0330   88.1832 C   0  0  0  0  0  0  0  0  0  0  0  0
   70.3137   82.9201   88.9445 C   0  0  0  0  0  0  0  0  0  0  0  0
   71.2139   82.2553   89.7987 C   0  0  0  0  0  0  0  0  0  0  0  0
   72.5272   82.7184   89.8979 C   0  0  0  0  0  0  0  0  0  0  0  0
   72.9485   83.8197   89.1539 C   0  0  0  0  0  0  0  0  0  0  0  0
   72.0599   84.4810   88.2953 C   0  0  0  0  0  0  0  0  0  0  0  0
   72.5106   85.5773   87.5602 O   0  0  0  0  0  0  0  0  0  0  0  0
   73.3987   85.8642   87.6436 H   0  0  0  0  0  0  0  0  0  0  0  0
   68.5419   84.8221   87.6321 O   0  0  0  0  0  0  0  0  0  0  0  0
   69.7487   84.7057   87.2850 C   0  0  0  0  0  0  0  0  0  0  0  0
   70.1456   85.2164   86.0521 O   0  0  0  0  0  0  0  0  0  0  0  0
   71.0383   85.1387   85.7783 H   0  0  0  0  0  0  0  0  0  0  0  0
   71.1742   79.7798   90.2555 C   0  0  0  0  0  0  0  0  0  0  0  0
   69.9291   78.9390   90.1459 C   0  0  0  0  0  0  0  0  0  0  0  0
   68.7133   79.5162   89.7503 C   0  0  0  0  0  0  0  0  0  0  0  0
   67.5629   78.7321   89.6501 C   0  0  0  0  0  0  0  0  0  0  0  0
   67.6123   77.3692   89.9514 C   0  0  0  0  0  0  0  0  0  0  0  0
   68.8177   76.7737   90.3641 C   0  0  0  0  0  0  0  0  0  0  0  0
   69.9727   77.5718   90.4639 C   0  0  0  0  0  0  0  0  0  0  0  0
   68.8713   75.3252   90.6884 C   0  0  0  0  0  0  0  0  0  0  0  0
   68.0381   74.4098   90.0222 C   0  0  0  0  0  0  0  0  0  0  0  0
   68.1045   73.0520   90.3438 C   0  0  0  0  0  0  0  0  0  0  0  0
   68.9698   72.6178   91.2972 N   0  0  0  0  0  0  0  0  0  0  0  0
   69.7882   73.4767   91.9597 C   0  0  0  0  0  0  0  0  0  0  0  0
   69.7554   74.8426   91.6689 C   0  0  0  0  0  0  0  0  0  0  0  0
 10 11  2  0  0  0
 11 12  1  0  0  0
 11  2  1  0  0  0
  2  3  2  0  0  0
  3  4  1  0  0  0
  4  1  1  0  0  0
  1 14  1  0  0  0
 14 15  1  0  0  0
 15 16  2  0  0  0
 16 17  1  0  0  0
 17 18  2  0  0  0
 18 19  1  0  0  0
 19 21  1  0  0  0
 21 22  2  0  0  0
 22 23  1  0  0  0
 23 24  2  0  0  0
 24 25  2  0  0  0
 25 26  2  0  0  0
 19 20  2  0  0  0
  4  5  2  0  0  0
  5  6  1  0  0  0
  6  7  2  0  0  0
  7  8  1  0  0  0
  7  2  1  0  0  0
 20 15  1  0  0  0
 26 21  1  0  0  0
 12 13  1  0  0  0
  8  9  1  0  0  0
M  END
> <score>
0.179062

> <minimizedAffinity>
-7.77569

$$$$
HIPS6037


 25 27  0  0  0  0  0  0  0  0999 V2000
   67.0724   77.1952   92.4164 O   0  0  0  0  0  0  0  0  0  0  0  0
   68.1300   74.3262   94.5858 C   0  0  0  0  0  0  0  0  0  0  0  0
   68.1951   75.3791   93.6542 C   0  0  0  0  0  0  0  0  0  0  0  0
   67.0557   76.1487   93.3532 C   0  0  0  0  0  0  0  0  0  0  0  0
   65.8523   75.8660   94.0025 C   0  0  0  0  0  0  0  0  0  0  0  0
   65.7791   74.8401   94.9445 C   0  0  0  0  0  0  0  0  0  0  0  0
   66.9091   74.0786   95.2596 C   0  0  0  0  0  0  0  0  0  0  0  0
   66.7871   73.1186   96.2663 O   0  0  0  0  0  0  0  0  0  0  0  0
   65.9613   72.9847   96.6883 H   0  0  0  0  0  0  0  0  0  0  0  0
   69.4650   72.8353   95.8659 O   0  0  0  0  0  0  0  0  0  0  0  0
   69.3332   73.4919   94.7976 C   0  0  0  0  0  0  0  0  0  0  0  0
   70.3558   73.4708   93.8537 O   0  0  0  0  0  0  0  0  0  0  0  0
   70.2676   73.9553   93.0565 H   0  0  0  0  0  0  0  0  0  0  0  0
   67.4510   77.0711   91.0446 C   0  0  0  0  0  0  0  0  0  0  0  0
   68.7949   77.7061   90.7985 C   0  0  0  0  0  0  0  0  0  0  0  0
   69.9712   76.9561   90.9389 C   0  0  0  0  0  0  0  0  0  0  0  0
   71.2132   77.5498   90.7126 C   0  0  0  0  0  0  0  0  0  0  0  0
   71.2944   78.8972   90.3535 C   0  0  0  0  0  0  0  0  0  0  0  0
   70.1279   79.6735   90.2207 C   0  0  0  0  0  0  0  0  0  0  0  0
   68.8794   79.0648   90.4532 C   0  0  0  0  0  0  0  0  0  0  0  0
   70.2118   81.1082   89.8422 C   0  0  0  0  0  0  0  0  0  0  0  0
   71.3312   81.9214   89.8912 C   0  0  0  0  0  0  0  0  0  0  0  0
   70.9203   83.1592   89.4446 C   0  0  0  0  0  0  0  0  0  0  0  0
   69.6435   83.1210   89.1432 O   0  0  0  0  0  0  0  0  0  0  0  0
   69.1864   81.9111   89.3685 C   0  0  0  0  0  0  0  0  0  0  0  0
 10 11  2  0  0  0
 11 12  1  0  0  0
 11  2  1  0  0  0
  2  3  2  0  0  0
  3  4  1  0  0  0
  4  1  1  0  0  0
  1 14  1  0  0  0
 14 15  1  0  0  0
 15 16  2  0  0  0
 16 17  1  0  0  0
 17 18  2  0  0  0
 18 19  1  0  0  0
 19 21  1  0  0  0
 21 22  1  0  0  0
 22 23  2  0  0  0
 23 24  1  0  0  0
 24 25  1  0  0  0
 19 20  2  0  0  0
  4  5  2  0  0  0
  5  6  1  0  0  0
  6  7  2  0  0  0
  7  8  1  0  0  0
  7  2  1  0  0  0
 20 15  1  0  0  0
 25 21  2  0  0  0
 12 13  1  0  0  0
  8  9  1  0  0  0
M  END
> <score>
0.033665

> <minimizedAffinity>
-7.82792

$$$$
HIPS6037


 25 27  0  0  0  0  0  0  0  0999 V2000
   67.2152   77.4772   89.9492 O   0  0  0  0  0  0  0  0  0  0  0  0
   70.8267   78.4508   90.2040 C   0  0  0  0  0  0  0  0  0  0  0  0
   69.6708   77.6520   90.1228 C   0  0  0  0  0  0  0  0  0  0  0  0
   68.3952   78.2366   90.0134 C   0  0  0  0  0  0  0  0  0  0  0  0
   68.2853   79.6279   89.9715 C   0  0  0  0  0  0  0  0  0  0  0  0
   69.4241   80.4310   90.0283 C   0  0  0  0  0  0  0  0  0  0  0  0
   70.6967   79.8588   90.1239 C   0  0  0  0  0  0  0  0  0  0  0  0
   71.7991   80.7156   90.0989 O   0  0  0  0  0  0  0  0  0  0  0  0
   71.6712   81.6422   90.0453 H   0  0  0  0  0  0  0  0  0  0  0  0
   72.9878   77.7784   89.4816 O   0  0  0  0  0  0  0  0  0  0  0  0
   72.1334   77.7879   90.4088 C   0  0  0  0  0  0  0  0  0  0  0  0
   72.4093   77.1178   91.5971 O   0  0  0  0  0  0  0  0  0  0  0  0
   71.7810   77.1188   92.2923 H   0  0  0  0  0  0  0  0  0  0  0  0
   66.8019   76.6839   88.8354 C   0  0  0  0  0  0  0  0  0  0  0  0
   67.1163   75.2287   89.0661 C   0  0  0  0  0  0  0  0  0  0  0  0
   66.5606   74.2422   88.2389 C   0  0  0  0  0  0  0  0  0  0  0  0
   66.8527   72.8959   88.4587 C   0  0  0  0  0  0  0  0  0  0  0  0
   67.6932   72.5203   89.5092 C   0  0  0  0  0  0  0  0  0  0  0  0
   68.2510   73.4918   90.3613 C   0  0  0  0  0  0  0  0  0  0  0  0
   67.9482   74.8479   90.1317 C   0  0  0  0  0  0  0  0  0  0  0  0
   69.1427   73.0946   91.4818 C   0  0  0  0  0  0  0  0  0  0  0  0
   69.5708   71.8161   91.7963 C   0  0  0  0  0  0  0  0  0  0  0  0
   70.3762   71.9486   92.9072 C   0  0  0  0  0  0  0  0  0  0  0  0
   70.4427   73.2112   93.2593 O   0  0  0  0  0  0  0  0  0  0  0  0
   69.7175   73.9256   92.4303 C   0  0  0  0  0  0  0  0  0  0  0  0
 10 11  2  0  0  0
 11 12  1  0  0  0
 11  2  1  0  0  0
  2  3  2  0  0  0
  3  4  1  0  0  0
  4  1  1  0  0  0
  1 14  1  0  0  0
 14 15  1  0  0  0
 15 16  2  0  0  0
 16 17  1  0  0  0
 17 18  2  0  0  0
 18 19  1  0  0  0
 19 21  1  0  0  0
 21 22  1  0  0  0
 22 23  2  0  0  0
 23 24  1  0  0  0
 24 25  1  0  0  0
 19 20  2  0  0  0
  4  5  2  0  0  0
  5  6  1  0  0  0
  6  7  2  0  0  0
  7  8  1  0  0  0
  7  2  1  0  0  0
 20 15  1  0  0  0
 25 21  2  0  0  0
 12 13  1  0  0  0
  8  9  1  0  0  0
M  END
> <score>
0.033665

> <minimizedAffinity>
-7.72375

$$$$
HIPS6037


 25 27  0  0  0  0  0  0  0  0999 V2000
   70.3272   80.8252   90.1210 O   0  0  0  0  0  0  0  0  0  0  0  0
   70.5836   84.0039   88.1497 C   0  0  0  0  0  0  0  0  0  0  0  0
   70.0465   82.8288   88.7076 C   0  0  0  0  0  0  0  0  0  0  0  0
   70.8177   82.0154   89.5588 C   0  0  0  0  0  0  0  0  0  0  0  0
   72.1275   82.3942   89.8596 C   0  0  0  0  0  0  0  0  0  0  0  0
   72.6650   83.5680   89.3318 C   0  0  0  0  0  0  0  0  0  0  0  0
   71.9019   84.3892   88.4955 C   0  0  0  0  0  0  0  0  0  0  0  0
   72.4727   85.5881   88.0634 O   0  0  0  0  0  0  0  0  0  0  0  0
   73.3486   85.8071   88.3141 H   0  0  0  0  0  0  0  0  0  0  0  0
   68.5387   84.9734   87.4269 O   0  0  0  0  0  0  0  0  0  0  0  0
   69.7610   84.7734   87.1906 C   0  0  0  0  0  0  0  0  0  0  0  0
   70.3078   85.2295   85.9948 O   0  0  0  0  0  0  0  0  0  0  0  0
   71.2150   85.0860   85.8096 H   0  0  0  0  0  0  0  0  0  0  0  0
   71.0455   79.5934   90.2062 C   0  0  0  0  0  0  0  0  0  0  0  0
   70.1036   78.4182   90.1639 C   0  0  0  0  0  0  0  0  0  0  0  0
   69.0491   78.3861   89.2403 C   0  0  0  0  0  0  0  0  0  0  0  0
   68.1781   77.2968   89.2074 C   0  0  0  0  0  0  0  0  0  0  0  0
   68.3447   76.2351   90.0996 C   0  0  0  0  0  0  0  0  0  0  0  0
   69.3873   76.2521   91.0449 C   0  0  0  0  0  0  0  0  0  0  0  0
   70.2597   77.3573   91.0709 C   0  0  0  0  0  0  0  0  0  0  0  0
   69.5645   75.1253   91.9976 C   0  0  0  0  0  0  0  0  0  0  0  0
   69.7094   73.7838   91.6877 C   0  0  0  0  0  0  0  0  0  0  0  0
   69.8435   73.1287   92.8932 C   0  0  0  0  0  0  0  0  0  0  0  0
   69.7842   73.9944   93.8780 O   0  0  0  0  0  0  0  0  0  0  0  0
   69.6176   75.1979   93.3805 C   0  0  0  0  0  0  0  0  0  0  0  0
 10 11  2  0  0  0
 11 12  1  0  0  0
 11  2  1  0  0  0
  2  3  2  0  0  0
  3  4  1  0  0  0
  4  1  1  0  0  0
  1 14  1  0  0  0
 14 15  1  0  0  0
 15 16  2  0  0  0
 16 17  1  0  0  0
 17 18  2  0  0  0
 18 19  1  0  0  0
 19 21  1  0  0  0
 21 22  1  0  0  0
 22 23  2  0  0  0
 23 24  1  0  0  0
 24 25  1  0  0  0
 19 20  2  0  0  0
  4  5  2  0  0  0
  5  6  1  0  0  0
  6  7  2  0  0  0
  7  8  1  0  0  0
  7  2  1  0  0  0
 20 15  1  0  0  0
 25 21  2  0  0  0
 12 13  1  0  0  0
  8  9  1  0  0  0
M  END
> <score>
0.033665

> <minimizedAffinity>
-7.65538

$$$$
HIPS6063


 30 33  0  0  0  0  0  0  0  0999 V2000
   69.9032   78.8892   90.3207 C   0  0  0  0  0  0  0  0  0  0  0  0
   71.2747   78.7411   90.0615 C   0  0  0  0  0  0  0  0  0  0  0  0
   71.9858   77.6738   90.6157 C   0  0  0  0  0  0  0  0  0  0  0  0
   71.3355   76.7478   91.4347 C   0  0  0  0  0  0  0  0  0  0  0  0
   69.9641   76.8793   91.6962 C   0  0  0  0  0  0  0  0  0  0  0  0
   69.2527   77.9568   91.1455 C   0  0  0  0  0  0  0  0  0  0  0  0
   69.2823   75.9107   92.5798 C   0  0  0  0  0  0  0  0  0  0  0  0
   69.2955   76.1446   93.9623 C   0  0  0  0  0  0  0  0  0  0  0  0
   68.6364   75.2681   94.8233 C   0  0  0  0  0  0  0  0  0  0  0  0
   67.9883   74.1829   94.3290 N   0  0  0  0  0  0  0  0  0  0  0  0
   67.9602   73.9084   92.9981 C   0  0  0  0  0  0  0  0  0  0  0  0
   67.2927   72.7662   92.5420 C   0  0  0  0  0  0  0  0  0  0  0  0
   67.2814   72.4572   91.1807 C   0  0  0  0  0  0  0  0  0  0  0  0
   67.9376   73.2856   90.2686 C   0  0  0  0  0  0  0  0  0  0  0  0
   68.5983   74.4365   90.7080 C   0  0  0  0  0  0  0  0  0  0  0  0
   68.6141   74.7675   92.0790 C   0  0  0  0  0  0  0  0  0  0  0  0
   69.1536   80.0593   89.7430 C   0  0  0  0  0  0  0  0  0  0  0  0
   69.6194   81.2843   90.3094 O   0  0  0  0  0  0  0  0  0  0  0  0
   70.3253   84.1487   87.9947 C   0  0  0  0  0  0  0  0  0  0  0  0
   69.6281   83.1290   88.6687 C   0  0  0  0  0  0  0  0  0  0  0  0
   70.2785   82.3074   89.6084 C   0  0  0  0  0  0  0  0  0  0  0  0
   71.6353   82.5109   89.8665 C   0  0  0  0  0  0  0  0  0  0  0  0
   72.3364   83.5258   89.2162 C   0  0  0  0  0  0  0  0  0  0  0  0
   71.6930   84.3643   88.3005 C   0  0  0  0  0  0  0  0  0  0  0  0
   72.4344   85.4126   87.7507 O   0  0  0  0  0  0  0  0  0  0  0  0
   73.3367   85.5190   87.9801 H   0  0  0  0  0  0  0  0  0  0  0  0
   68.3936   85.2626   87.1493 O   0  0  0  0  0  0  0  0  0  0  0  0
   69.5989   84.9390   86.9760 C   0  0  0  0  0  0  0  0  0  0  0  0
   70.2672   85.3830   85.8378 O   0  0  0  0  0  0  0  0  0  0  0  0
   71.1636   85.1481   85.6993 H   0  0  0  0  0  0  0  0  0  0  0  0
 27 28  2  0  0  0
 28 29  1  0  0  0
 28 19  1  0  0  0
 19 20  2  0  0  0
 20 21  1  0  0  0
 21 18  1  0  0  0
 18 17  1  0  0  0
 17  1  1  0  0  0
  1  2  2  0  0  0
  2  3  1  0  0  0
  3  4  2  0  0  0
  4  5  1  0  0  0
  5  7  1  0  0  0
  7  8  2  0  0  0
  8  9  1  0  0  0
  9 10  2  0  0  0
 10 11  2  0  0  0
 11 12  2  0  0  0
 12 13  1  0  0  0
 13 14  2  0  0  0
 14 15  1  0  0  0
 15 16  2  0  0  0
  5  6  2  0  0  0
 21 22  2  0  0  0
 22 23  1  0  0  0
 23 24  2  0  0  0
 24 25  1  0  0  0
 24 19  1  0  0  0
  6  1  1  0  0  0
 16  7  1  0  0  0
 16 11  1  0  0  0
 29 30  1  0  0  0
 25 26  1  0  0  0
M  END
> <score>
0.202318

> <minimizedAffinity>
-9.22108

$$$$
HIPS6063


 30 33  0  0  0  0  0  0  0  0999 V2000
   69.7403   78.1837   90.0976 C   0  0  0  0  0  0  0  0  0  0  0  0
   68.8838   78.1514   88.9861 C   0  0  0  0  0  0  0  0  0  0  0  0
   67.9819   77.0972   88.8212 C   0  0  0  0  0  0  0  0  0  0  0  0
   67.9291   76.0659   89.7618 C   0  0  0  0  0  0  0  0  0  0  0  0
   68.7738   76.0889   90.8809 C   0  0  0  0  0  0  0  0  0  0  0  0
   69.6852   77.1445   91.0409 C   0  0  0  0  0  0  0  0  0  0  0  0
   68.7312   74.9864   91.8640 C   0  0  0  0  0  0  0  0  0  0  0  0
   69.6635   73.9462   91.7407 C   0  0  0  0  0  0  0  0  0  0  0  0
   69.6722   72.9053   92.6683 C   0  0  0  0  0  0  0  0  0  0  0  0
   68.7752   72.8899   93.6867 N   0  0  0  0  0  0  0  0  0  0  0  0
   67.8446   73.8690   93.8381 C   0  0  0  0  0  0  0  0  0  0  0  0
   66.9308   73.7963   94.8954 C   0  0  0  0  0  0  0  0  0  0  0  0
   65.9515   74.7799   95.0449 C   0  0  0  0  0  0  0  0  0  0  0  0
   65.8787   75.8395   94.1392 C   0  0  0  0  0  0  0  0  0  0  0  0
   66.7923   75.9321   93.0851 C   0  0  0  0  0  0  0  0  0  0  0  0
   67.7923   74.9507   92.9230 C   0  0  0  0  0  0  0  0  0  0  0  0
   70.7286   79.3084   90.2496 C   0  0  0  0  0  0  0  0  0  0  0  0
   70.0663   80.5717   90.1885 O   0  0  0  0  0  0  0  0  0  0  0  0
   70.4522   83.7318   88.2073 C   0  0  0  0  0  0  0  0  0  0  0  0
   69.8817   82.5589   88.7353 C   0  0  0  0  0  0  0  0  0  0  0  0
   70.6000   81.7453   89.6315 C   0  0  0  0  0  0  0  0  0  0  0  0
   71.8975   82.1121   89.9932 C   0  0  0  0  0  0  0  0  0  0  0  0
   72.4715   83.2784   89.4885 C   0  0  0  0  0  0  0  0  0  0  0  0
   71.7563   84.1071   88.6182 C   0  0  0  0  0  0  0  0  0  0  0  0
   72.3603   85.3017   88.2191 O   0  0  0  0  0  0  0  0  0  0  0  0
   73.2246   85.5111   88.5142 H   0  0  0  0  0  0  0  0  0  0  0  0
   68.4260   84.6715   87.3714 O   0  0  0  0  0  0  0  0  0  0  0  0
   69.6673   84.5120   87.2248 C   0  0  0  0  0  0  0  0  0  0  0  0
   70.3123   85.1284   86.1557 O   0  0  0  0  0  0  0  0  0  0  0  0
   71.2351   85.0163   86.0376 H   0  0  0  0  0  0  0  0  0  0  0  0
 27 28  2  0  0  0
 28 29  1  0  0  0
 28 19  1  0  0  0
 19 20  2  0  0  0
 20 21  1  0  0  0
 21 18  1  0  0  0
 18 17  1  0  0  0
 17  1  1  0  0  0
  1  2  2  0  0  0
  2  3  1  0  0  0
  3  4  2  0  0  0
  4  5  1  0  0  0
  5  7  1  0  0  0
  7  8  2  0  0  0
  8  9  1  0  0  0
  9 10  2  0  0  0
 10 11  2  0  0  0
 11 12  2  0  0  0
 12 13  1  0  0  0
 13 14  2  0  0  0
 14 15  1  0  0  0
 15 16  2  0  0  0
  5  6  2  0  0  0
 21 22  2  0  0  0
 22 23  1  0  0  0
 23 24  2  0  0  0
 24 25  1  0  0  0
 24 19  1  0  0  0
  6  1  1  0  0  0
 16  7  1  0  0  0
 16 11  1  0  0  0
 29 30  1  0  0  0
 25 26  1  0  0  0
M  END
> <score>
0.202318

> <minimizedAffinity>
-9.21680

$$$$
HIPS6063


 30 33  0  0  0  0  0  0  0  0999 V2000
   67.5233   79.2874   91.4793 C   0  0  0  0  0  0  0  0  0  0  0  0
   66.9425   80.0156   92.5293 C   0  0  0  0  0  0  0  0  0  0  0  0
   66.9813   81.4122   92.5247 C   0  0  0  0  0  0  0  0  0  0  0  0
   67.6016   82.0931   91.4747 C   0  0  0  0  0  0  0  0  0  0  0  0
   68.1796   81.3787   90.4155 C   0  0  0  0  0  0  0  0  0  0  0  0
   68.1473   79.9753   90.4256 C   0  0  0  0  0  0  0  0  0  0  0  0
   68.8539   82.1001   89.3161 C   0  0  0  0  0  0  0  0  0  0  0  0
   68.1212   82.3805   88.1539 C   0  0  0  0  0  0  0  0  0  0  0  0
   68.7161   83.0862   87.1089 C   0  0  0  0  0  0  0  0  0  0  0  0
   70.0061   83.4962   87.2083 N   0  0  0  0  0  0  0  0  0  0  0  0
   70.7590   83.2354   88.3095 C   0  0  0  0  0  0  0  0  0  0  0  0
   72.0901   83.6650   88.3541 C   0  0  0  0  0  0  0  0  0  0  0  0
   72.8828   83.3780   89.4668 C   0  0  0  0  0  0  0  0  0  0  0  0
   72.3513   82.6598   90.5393 C   0  0  0  0  0  0  0  0  0  0  0  0
   71.0197   82.2347   90.5143 C   0  0  0  0  0  0  0  0  0  0  0  0
   70.2027   82.5216   89.4009 C   0  0  0  0  0  0  0  0  0  0  0  0
   67.5023   77.7829   91.5094 C   0  0  0  0  0  0  0  0  0  0  0  0
   66.5481   77.3122   92.4615 O   0  0  0  0  0  0  0  0  0  0  0  0
   68.1157   74.4786   94.3519 C   0  0  0  0  0  0  0  0  0  0  0  0
   67.9450   75.5128   93.4131 C   0  0  0  0  0  0  0  0  0  0  0  0
   66.7569   76.2665   93.3755 C   0  0  0  0  0  0  0  0  0  0  0  0
   65.7369   75.9748   94.2830 C   0  0  0  0  0  0  0  0  0  0  0  0
   65.8966   74.9615   95.2276 C   0  0  0  0  0  0  0  0  0  0  0  0
   67.0835   74.2247   95.2903 C   0  0  0  0  0  0  0  0  0  0  0  0
   67.2079   73.2836   96.3149 O   0  0  0  0  0  0  0  0  0  0  0  0
   66.5006   73.1471   96.9141 H   0  0  0  0  0  0  0  0  0  0  0  0
   70.2315   73.9034   93.4139 O   0  0  0  0  0  0  0  0  0  0  0  0
   69.3639   73.6852   94.3012 C   0  0  0  0  0  0  0  0  0  0  0  0
   69.6142   72.7248   95.2780 O   0  0  0  0  0  0  0  0  0  0  0  0
   68.9758   72.5547   95.9424 H   0  0  0  0  0  0  0  0  0  0  0  0
 27 28  2  0  0  0
 28 29  1  0  0  0
 28 19  1  0  0  0
 19 20  2  0  0  0
 20 21  1  0  0  0
 21 18  1  0  0  0
 18 17  1  0  0  0
 17  1  1  0  0  0
  1  2  2  0  0  0
  2  3  1  0  0  0
  3  4  2  0  0  0
  4  5  1  0  0  0
  5  7  1  0  0  0
  7  8  2  0  0  0
  8  9  1  0  0  0
  9 10  2  0  0  0
 10 11  2  0  0  0
 11 12  2  0  0  0
 12 13  1  0  0  0
 13 14  2  0  0  0
 14 15  1  0  0  0
 15 16  2  0  0  0
  5  6  2  0  0  0
 21 22  2  0  0  0
 22 23  1  0  0  0
 23 24  2  0  0  0
 24 25  1  0  0  0
 24 19  1  0  0  0
  6  1  1  0  0  0
 16  7  1  0  0  0
 16 11  1  0  0  0
 29 30  1  0  0  0
 25 26  1  0  0  0
M  END
> <score>
0.202318

> <minimizedAffinity>
-8.92679

$$$$
HIPS6066


 34 37  0  0  0  0  0  0  0  0999 V2000
   68.3137   79.6331   89.6323 C   0  0  0  0  0  0  0  0  0  0  0  0
   67.5573   79.9510   88.4949 C   0  0  0  0  0  0  0  0  0  0  0  0
   66.9614   78.9375   87.7419 C   0  0  0  0  0  0  0  0  0  0  0  0
   67.1035   77.6014   88.1242 C   0  0  0  0  0  0  0  0  0  0  0  0
   67.8417   77.2634   89.2727 C   0  0  0  0  0  0  0  0  0  0  0  0
   68.4403   78.2912   90.0253 C   0  0  0  0  0  0  0  0  0  0  0  0
   67.9817   75.8444   89.6881 C   0  0  0  0  0  0  0  0  0  0  0  0
   68.7974   75.4969   90.7792 C   0  0  0  0  0  0  0  0  0  0  0  0
   68.9265   74.1621   91.1679 C   0  0  0  0  0  0  0  0  0  0  0  0
   68.2449   73.1587   90.4767 C   0  0  0  0  0  0  0  0  0  0  0  0
   67.4201   73.4862   89.3845 C   0  0  0  0  0  0  0  0  0  0  0  0
   67.2983   74.8265   88.9975 C   0  0  0  0  0  0  0  0  0  0  0  0
   66.7090   72.5189   88.6555 O   0  0  0  0  0  0  0  0  0  0  0  0
   66.3847   72.6046   87.2673 C   0  0  0  0  0  0  0  0  0  0  0  0
   67.0090   71.4690   86.5001 C   0  0  0  0  0  0  0  0  0  0  0  0
   66.7340   71.2933   85.1333 C   0  0  0  0  0  0  0  0  0  0  0  0
   67.3096   70.2302   84.4304 C   0  0  0  0  0  0  0  0  0  0  0  0
   68.1549   69.3315   85.0873 C   0  0  0  0  0  0  0  0  0  0  0  0
   68.4230   69.4922   86.4493 C   0  0  0  0  0  0  0  0  0  0  0  0
   67.8497   70.5540   87.1560 C   0  0  0  0  0  0  0  0  0  0  0  0
   68.9244   80.7227   90.4642 C   0  0  0  0  0  0  0  0  0  0  0  0
   70.2900   80.8851   90.0910 O   0  0  0  0  0  0  0  0  0  0  0  0
   70.5310   83.8861   87.9279 C   0  0  0  0  0  0  0  0  0  0  0  0
   70.0602   82.7115   88.5430 C   0  0  0  0  0  0  0  0  0  0  0  0
   70.8220   82.0448   89.5082 C   0  0  0  0  0  0  0  0  0  0  0  0
   72.0806   82.5577   89.8640 C   0  0  0  0  0  0  0  0  0  0  0  0
   72.5686   83.7102   89.2467 C   0  0  0  0  0  0  0  0  0  0  0  0
   71.8184   84.3693   88.2670 C   0  0  0  0  0  0  0  0  0  0  0  0
   72.3991   85.4704   87.6339 O   0  0  0  0  0  0  0  0  0  0  0  0
   73.2536   85.7596   87.8872 H   0  0  0  0  0  0  0  0  0  0  0  0
   68.4132   84.3241   86.9453 O   0  0  0  0  0  0  0  0  0  0  0  0
   69.6448   84.5921   86.9768 C   0  0  0  0  0  0  0  0  0  0  0  0
   70.1453   85.5974   86.1545 O   0  0  0  0  0  0  0  0  0  0  0  0
   71.0590   85.8043   86.1705 H   0  0  0  0  0  0  0  0  0  0  0  0
 31 32  2  0  0  0
 32 33  1  0  0  0
 32 23  1  0  0  0
 23 24  2  0  0  0
 24 25  1  0  0  0
 25 22  1  0  0  0
 22 21  1  0  0  0
 21  1  1  0  0  0
  1  2  2  0  0  0
  2  3  1  0  0  0
  3  4  2  0  0  0
  4  5  1  0  0  0
  5  7  1  0  0  0
  7  8  2  0  0  0
  8  9  1  0  0  0
  9 10  2  0  0  0
 10 11  1  0  0  0
 11 13  1  0  0  0
 13 14  1  0  0  0
 14 15  1  0  0  0
 15 16  2  0  0  0
 16 17  1  0  0  0
 17 18  2  0  0  0
 18 19  1  0  0  0
 19 20  2  0  0  0
 11 12  2  0  0  0
  5  6  2  0  0  0
 25 26  2  0  0  0
 26 27  1  0  0  0
 27 28  2  0  0  0
 28 29  1  0  0  0
 28 23  1  0  0  0
  6  1  1  0  0  0
 12  7  1  0  0  0
 20 15  1  0  0  0
 33 34  1  0  0  0
 29 30  1  0  0  0
M  END
> <score>
-0.725974

> <minimizedAffinity>
-9.59781

$$$$
HIPS6066


 34 37  0  0  0  0  0  0  0  0999 V2000
   67.5680   79.2597   88.7477 C   0  0  0  0  0  0  0  0  0  0  0  0
   66.9875   79.0302   87.4919 C   0  0  0  0  0  0  0  0  0  0  0  0
   66.8163   77.7255   87.0251 C   0  0  0  0  0  0  0  0  0  0  0  0
   67.2096   76.6401   87.8116 C   0  0  0  0  0  0  0  0  0  0  0  0
   67.7757   76.8487   89.0822 C   0  0  0  0  0  0  0  0  0  0  0  0
   67.9461   78.1672   89.5445 C   0  0  0  0  0  0  0  0  0  0  0  0
   68.1813   75.6952   89.9252 C   0  0  0  0  0  0  0  0  0  0  0  0
   67.8030   74.3871   89.5754 C   0  0  0  0  0  0  0  0  0  0  0  0
   68.1865   73.3046   90.3694 C   0  0  0  0  0  0  0  0  0  0  0  0
   68.9512   73.5110   91.5190 C   0  0  0  0  0  0  0  0  0  0  0  0
   69.3438   74.8121   91.8841 C   0  0  0  0  0  0  0  0  0  0  0  0
   68.9523   75.8938   91.0855 C   0  0  0  0  0  0  0  0  0  0  0  0
   70.1155   75.0778   93.0273 O   0  0  0  0  0  0  0  0  0  0  0  0
   69.6673   75.7959   94.1774 C   0  0  0  0  0  0  0  0  0  0  0  0
   68.2761   75.3704   94.5664 C   0  0  0  0  0  0  0  0  0  0  0  0
   68.0721   74.2159   95.3411 C   0  0  0  0  0  0  0  0  0  0  0  0
   66.7764   73.8216   95.6894 C   0  0  0  0  0  0  0  0  0  0  0  0
   65.6768   74.5702   95.2603 C   0  0  0  0  0  0  0  0  0  0  0  0
   65.8709   75.7124   94.4789 C   0  0  0  0  0  0  0  0  0  0  0  0
   67.1649   76.1103   94.1285 C   0  0  0  0  0  0  0  0  0  0  0  0
   67.7195   80.6594   89.2674 C   0  0  0  0  0  0  0  0  0  0  0  0
   69.0440   80.8323   89.7634 O   0  0  0  0  0  0  0  0  0  0  0  0
   70.2361   83.9105   88.0761 C   0  0  0  0  0  0  0  0  0  0  0  0
   69.4313   82.8295   88.4804 C   0  0  0  0  0  0  0  0  0  0  0  0
   69.9008   81.8795   89.3934 C   0  0  0  0  0  0  0  0  0  0  0  0
   71.2007   82.0081   89.9105 C   0  0  0  0  0  0  0  0  0  0  0  0
   72.0170   83.0638   89.5022 C   0  0  0  0  0  0  0  0  0  0  0  0
   71.5584   84.0052   88.5746 C   0  0  0  0  0  0  0  0  0  0  0  0
   72.4533   84.9899   88.1502 O   0  0  0  0  0  0  0  0  0  0  0  0
   73.3203   85.0191   88.5043 H   0  0  0  0  0  0  0  0  0  0  0  0
   68.5784   85.5061   87.4856 O   0  0  0  0  0  0  0  0  0  0  0  0
   69.6547   84.9282   87.1736 C   0  0  0  0  0  0  0  0  0  0  0  0
   70.3162   85.3019   86.0073 O   0  0  0  0  0  0  0  0  0  0  0  0
   71.1167   84.8785   85.7666 H   0  0  0  0  0  0  0  0  0  0  0  0
 31 32  2  0  0  0
 32 33  1  0  0  0
 32 23  1  0  0  0
 23 24  2  0  0  0
 24 25  1  0  0  0
 25 22  1  0  0  0
 22 21  1  0  0  0
 21  1  1  0  0  0
  1  2  2  0  0  0
  2  3  1  0  0  0
  3  4  2  0  0  0
  4  5  1  0  0  0
  5  7  1  0  0  0
  7  8  2  0  0  0
  8  9  1  0  0  0
  9 10  2  0  0  0
 10 11  1  0  0  0
 11 13  1  0  0  0
 13 14  1  0  0  0
 14 15  1  0  0  0
 15 16  2  0  0  0
 16 17  1  0  0  0
 17 18  2  0  0  0
 18 19  1  0  0  0
 19 20  2  0  0  0
 11 12  2  0  0  0
  5  6  2  0  0  0
 25 26  2  0  0  0
 26 27  1  0  0  0
 27 28  2  0  0  0
 28 29  1  0  0  0
 28 23  1  0  0  0
  6  1  1  0  0  0
 12  7  1  0  0  0
 20 15  1  0  0  0
 33 34  1  0  0  0
 29 30  1  0  0  0
M  END
> <score>
-0.725974

> <minimizedAffinity>
-9.54918

$$$$
HIPS6066


 34 37  0  0  0  0  0  0  0  0999 V2000
   70.4650   77.9695   90.9777 C   0  0  0  0  0  0  0  0  0  0  0  0
   69.0649   77.9340   90.9056 C   0  0  0  0  0  0  0  0  0  0  0  0
   68.3535   79.0650   90.5008 C   0  0  0  0  0  0  0  0  0  0  0  0
   69.0323   80.2350   90.1520 C   0  0  0  0  0  0  0  0  0  0  0  0
   70.4372   80.2847   90.1987 C   0  0  0  0  0  0  0  0  0  0  0  0
   71.1466   79.1404   90.6093 C   0  0  0  0  0  0  0  0  0  0  0  0
   71.1608   81.5235   89.8146 C   0  0  0  0  0  0  0  0  0  0  0  0
   72.4341   81.7997   90.3428 C   0  0  0  0  0  0  0  0  0  0  0  0
   73.1124   82.9647   89.9792 C   0  0  0  0  0  0  0  0  0  0  0  0
   72.5323   83.8670   89.0856 C   0  0  0  0  0  0  0  0  0  0  0  0
   71.2604   83.6068   88.5424 C   0  0  0  0  0  0  0  0  0  0  0  0
   70.5840   82.4384   88.9144 C   0  0  0  0  0  0  0  0  0  0  0  0
   70.6310   84.4770   87.6372 O   0  0  0  0  0  0  0  0  0  0  0  0
   69.8667   85.6291   87.9951 C   0  0  0  0  0  0  0  0  0  0  0  0
   70.7688   86.7770   88.3647 C   0  0  0  0  0  0  0  0  0  0  0  0
   70.2702   87.8739   89.0876 C   0  0  0  0  0  0  0  0  0  0  0  0
   71.1119   88.9408   89.4179 C   0  0  0  0  0  0  0  0  0  0  0  0
   72.4523   88.9245   89.0220 C   0  0  0  0  0  0  0  0  0  0  0  0
   72.9524   87.8430   88.2918 C   0  0  0  0  0  0  0  0  0  0  0  0
   72.1142   86.7741   87.9596 C   0  0  0  0  0  0  0  0  0  0  0  0
   71.2339   76.7441   91.3770 C   0  0  0  0  0  0  0  0  0  0  0  0
   70.5751   76.1164   92.4735 O   0  0  0  0  0  0  0  0  0  0  0  0
   67.7124   73.9381   93.3695 C   0  0  0  0  0  0  0  0  0  0  0  0
   68.7345   74.9028   93.4348 C   0  0  0  0  0  0  0  0  0  0  0  0
   69.5833   75.1326   92.3471 C   0  0  0  0  0  0  0  0  0  0  0  0
   69.4117   74.3821   91.1719 C   0  0  0  0  0  0  0  0  0  0  0  0
   68.4154   73.4077   91.1009 C   0  0  0  0  0  0  0  0  0  0  0  0
   67.5767   73.1611   92.1931 C   0  0  0  0  0  0  0  0  0  0  0  0
   66.6535   72.1191   92.0825 O   0  0  0  0  0  0  0  0  0  0  0  0
   66.5943   71.6281   91.2866 H   0  0  0  0  0  0  0  0  0  0  0  0
   65.5469   73.8487   94.3417 O   0  0  0  0  0  0  0  0  0  0  0  0
   66.7940   73.7995   94.5208 C   0  0  0  0  0  0  0  0  0  0  0  0
   67.2904   73.5532   95.7977 O   0  0  0  0  0  0  0  0  0  0  0  0
   68.2155   73.5148   95.9413 H   0  0  0  0  0  0  0  0  0  0  0  0
 31 32  2  0  0  0
 32 33  1  0  0  0
 32 23  1  0  0  0
 23 24  2  0  0  0
 24 25  1  0  0  0
 25 22  1  0  0  0
 22 21  1  0  0  0
 21  1  1  0  0  0
  1  2  2  0  0  0
  2  3  1  0  0  0
  3  4  2  0  0  0
  4  5  1  0  0  0
  5  7  1  0  0  0
  7  8  2  0  0  0
  8  9  1  0  0  0
  9 10  2  0  0  0
 10 11  1  0  0  0
 11 13  1  0  0  0
 13 14  1  0  0  0
 14 15  1  0  0  0
 15 16  2  0  0  0
 16 17  1  0  0  0
 17 18  2  0  0  0
 18 19  1  0  0  0
 19 20  2  0  0  0
 11 12  2  0  0  0
  5  6  2  0  0  0
 25 26  2  0  0  0
 26 27  1  0  0  0
 27 28  2  0  0  0
 28 29  1  0  0  0
 28 23  1  0  0  0
  6  1  1  0  0  0
 12  7  1  0  0  0
 20 15  1  0  0  0
 33 34  1  0  0  0
 29 30  1  0  0  0
M  END
> <score>
-0.725974

> <minimizedAffinity>
-9.45226

$$$$
HIPS6091


 22 23  0  0  0  0  0  0  0  0999 V2000
   69.3853   73.0758   91.7417 C   0  0  0  0  0  0  0  0  0  0  0  0
   68.4782   72.4443   90.8711 C   0  0  0  0  0  0  0  0  0  0  0  0
   67.7429   73.1780   89.9343 C   0  0  0  0  0  0  0  0  0  0  0  0
   67.9210   74.5698   89.8616 C   0  0  0  0  0  0  0  0  0  0  0  0
   68.8019   75.2115   90.7327 C   0  0  0  0  0  0  0  0  0  0  0  0
   69.5199   74.4844   91.6880 C   0  0  0  0  0  0  0  0  0  0  0  0
   70.3224   75.1978   92.5807 O   0  0  0  0  0  0  0  0  0  0  0  0
   70.3851   76.1302   92.5121 H   0  0  0  0  0  0  0  0  0  0  0  0
   70.7370   72.7538   93.6681 O   0  0  0  0  0  0  0  0  0  0  0  0
   70.1913   72.2374   92.6556 C   0  0  0  0  0  0  0  0  0  0  0  0
   70.3057   70.8665   92.4440 O   0  0  0  0  0  0  0  0  0  0  0  0
   69.9039   70.4729   91.6946 H   0  0  0  0  0  0  0  0  0  0  0  0
   66.8575   72.4826   89.0945 O   0  0  0  0  0  0  0  0  0  0  0  0
   66.5309   72.8498   87.7536 C   0  0  0  0  0  0  0  0  0  0  0  0
   66.8952   71.7486   86.7933 C   0  0  0  0  0  0  0  0  0  0  0  0
   66.2838   71.6857   85.5304 C   0  0  0  0  0  0  0  0  0  0  0  0
   66.6148   70.6614   84.6366 C   0  0  0  0  0  0  0  0  0  0  0  0
   65.8545   70.5962   83.0572 Cl  0  0  0  0  0  0  0  0  0  0  0  0
   67.5515   69.6895   85.0024 C   0  0  0  0  0  0  0  0  0  0  0  0
   68.1551   69.7381   86.2628 C   0  0  0  0  0  0  0  0  0  0  0  0
   69.4306   68.4072   86.7622 Br  0  0  0  0  0  0  0  0  0  0  0  0
   67.8253   70.7612   87.1583 C   0  0  0  0  0  0  0  0  0  0  0  0
  9 10  2  0  0  0
 10 11  1  0  0  0
 10  1  1  0  0  0
  1  2  2  0  0  0
  2  3  1  0  0  0
  3 13  1  0  0  0
 13 14  1  0  0  0
 14 15  1  0  0  0
 15 16  2  0  0  0
 16 17  1  0  0  0
 17 18  1  0  0  0
 17 19  2  0  0  0
 19 20  1  0  0  0
 20 21  1  0  0  0
 20 22  2  0  0  0
  3  4  2  0  0  0
  4  5  1  0  0  0
  5  6  2  0  0  0
  6  7  1  0  0  0
  6  1  1  0  0  0
 22 15  1  0  0  0
 11 12  1  0  0  0
  7  8  1  0  0  0
M  END
> <score>
-0.478443

> <minimizedAffinity>
-7.58454

$$$$
HIPS6091


 22 23  0  0  0  0  0  0  0  0999 V2000
   69.4243   73.0974   91.7791 C   0  0  0  0  0  0  0  0  0  0  0  0
   68.5439   72.4666   90.8811 C   0  0  0  0  0  0  0  0  0  0  0  0
   67.8112   73.2048   89.9459 C   0  0  0  0  0  0  0  0  0  0  0  0
   67.9647   74.6008   89.9030 C   0  0  0  0  0  0  0  0  0  0  0  0
   68.8187   75.2413   90.8013 C   0  0  0  0  0  0  0  0  0  0  0  0
   69.5337   74.5090   91.7547 C   0  0  0  0  0  0  0  0  0  0  0  0
   70.3077   75.2193   92.6748 O   0  0  0  0  0  0  0  0  0  0  0  0
   70.3543   76.1539   92.6251 H   0  0  0  0  0  0  0  0  0  0  0  0
   70.7444   72.7612   93.7251 O   0  0  0  0  0  0  0  0  0  0  0  0
   70.2302   72.2561   92.6906 C   0  0  0  0  0  0  0  0  0  0  0  0
   70.3785   70.8930   92.4515 O   0  0  0  0  0  0  0  0  0  0  0  0
   70.0002   70.5078   91.6856 H   0  0  0  0  0  0  0  0  0  0  0  0
   66.9531   72.5099   89.0778 O   0  0  0  0  0  0  0  0  0  0  0  0
   66.6254   72.9089   87.7463 C   0  0  0  0  0  0  0  0  0  0  0  0
   66.8836   71.7891   86.7732 C   0  0  0  0  0  0  0  0  0  0  0  0
   67.7896   70.7673   87.1010 C   0  0  0  0  0  0  0  0  0  0  0  0
   68.0371   69.7274   86.1982 C   0  0  0  0  0  0  0  0  0  0  0  0
   69.1621   68.4494   86.6197 Cl  0  0  0  0  0  0  0  0  0  0  0  0
   67.3879   69.7071   84.9597 C   0  0  0  0  0  0  0  0  0  0  0  0
   66.4940   70.7276   84.6209 C   0  0  0  0  0  0  0  0  0  0  0  0
   65.6119   70.7005   82.9272 Br  0  0  0  0  0  0  0  0  0  0  0  0
   66.2454   71.7687   85.5220 C   0  0  0  0  0  0  0  0  0  0  0  0
  9 10  2  0  0  0
 10 11  1  0  0  0
 10  1  1  0  0  0
  1  2  2  0  0  0
  2  3  1  0  0  0
  3 13  1  0  0  0
 13 14  1  0  0  0
 14 15  1  0  0  0
 15 16  2  0  0  0
 16 17  1  0  0  0
 17 18  1  0  0  0
 17 19  2  0  0  0
 19 20  1  0  0  0
 20 21  1  0  0  0
 20 22  2  0  0  0
  3  4  2  0  0  0
  4  5  1  0  0  0
  5  6  2  0  0  0
  6  7  1  0  0  0
  6  1  1  0  0  0
 22 15  1  0  0  0
 11 12  1  0  0  0
  7  8  1  0  0  0
M  END
> <score>
-0.478443

> <minimizedAffinity>
-7.48421

$$$$
HIPS6091


 22 23  0  0  0  0  0  0  0  0999 V2000
   68.1474   74.2657   94.6500 C   0  0  0  0  0  0  0  0  0  0  0  0
   68.0494   75.1891   93.5930 C   0  0  0  0  0  0  0  0  0  0  0  0
   66.9223   76.0041   93.4451 C   0  0  0  0  0  0  0  0  0  0  0  0
   65.8740   75.8986   94.3747 C   0  0  0  0  0  0  0  0  0  0  0  0
   65.9489   74.9727   95.4156 C   0  0  0  0  0  0  0  0  0  0  0  0
   67.0632   74.1382   95.5519 C   0  0  0  0  0  0  0  0  0  0  0  0
   67.0381   73.1796   96.5670 O   0  0  0  0  0  0  0  0  0  0  0  0
   66.3016   73.1274   97.1440 H   0  0  0  0  0  0  0  0  0  0  0  0
   69.5896   72.7971   95.8355 O   0  0  0  0  0  0  0  0  0  0  0  0
   69.3973   73.4889   94.7991 C   0  0  0  0  0  0  0  0  0  0  0  0
   70.3422   73.4638   93.7775 O   0  0  0  0  0  0  0  0  0  0  0  0
   70.2088   73.9744   93.0033 H   0  0  0  0  0  0  0  0  0  0  0  0
   66.8925   76.9058   92.3686 O   0  0  0  0  0  0  0  0  0  0  0  0
   67.4005   76.6457   91.0594 C   0  0  0  0  0  0  0  0  0  0  0  0
   68.5858   77.5253   90.7608 C   0  0  0  0  0  0  0  0  0  0  0  0
   69.8878   77.0079   90.8580 C   0  0  0  0  0  0  0  0  0  0  0  0
   70.9927   77.8224   90.5869 C   0  0  0  0  0  0  0  0  0  0  0  0
   72.6152   77.1655   90.7002 Cl  0  0  0  0  0  0  0  0  0  0  0  0
   70.8036   79.1602   90.2259 C   0  0  0  0  0  0  0  0  0  0  0  0
   69.5108   79.6861   90.1393 C   0  0  0  0  0  0  0  0  0  0  0  0
   69.2548   81.5145   89.6506 Br  0  0  0  0  0  0  0  0  0  0  0  0
   68.4046   78.8735   90.4104 C   0  0  0  0  0  0  0  0  0  0  0  0
  9 10  2  0  0  0
 10 11  1  0  0  0
 10  1  1  0  0  0
  1  2  2  0  0  0
  2  3  1  0  0  0
  3 13  1  0  0  0
 13 14  1  0  0  0
 14 15  1  0  0  0
 15 16  2  0  0  0
 16 17  1  0  0  0
 17 18  1  0  0  0
 17 19  2  0  0  0
 19 20  1  0  0  0
 20 21  1  0  0  0
 20 22  2  0  0  0
  3  4  2  0  0  0
  4  5  1  0  0  0
  5  6  2  0  0  0
  6  7  1  0  0  0
  6  1  1  0  0  0
 22 15  1  0  0  0
 11 12  1  0  0  0
  7  8  1  0  0  0
M  END
> <score>
-0.478443

> <minimizedAffinity>
-7.19981

$$$$
HIPS6092


 22 23  0  0  0  0  0  0  0  0999 V2000
   69.2815   73.2278   91.8711 C   0  0  0  0  0  0  0  0  0  0  0  0
   68.4011   72.5433   91.0132 C   0  0  0  0  0  0  0  0  0  0  0  0
   67.6996   73.2261   90.0021 C   0  0  0  0  0  0  0  0  0  0  0  0
   67.8977   74.5991   89.8445 C   0  0  0  0  0  0  0  0  0  0  0  0
   68.7854   75.2867   90.6718 C   0  0  0  0  0  0  0  0  0  0  0  0
   69.4961   74.6147   91.6716 C   0  0  0  0  0  0  0  0  0  0  0  0
   70.4237   75.3493   92.4136 O   0  0  0  0  0  0  0  0  0  0  0  0
   70.5347   76.2652   92.2499 H   0  0  0  0  0  0  0  0  0  0  0  0
   70.7107   73.0364   93.7704 O   0  0  0  0  0  0  0  0  0  0  0  0
   69.9207   72.4691   92.9695 C   0  0  0  0  0  0  0  0  0  0  0  0
   69.6003   71.1279   93.1632 O   0  0  0  0  0  0  0  0  0  0  0  0
   69.0138   70.6964   92.5734 H   0  0  0  0  0  0  0  0  0  0  0  0
   66.7963   72.5842   89.1386 O   0  0  0  0  0  0  0  0  0  0  0  0
   66.5415   72.9560   87.7833 C   0  0  0  0  0  0  0  0  0  0  0  0
   66.8664   71.8221   86.8468 C   0  0  0  0  0  0  0  0  0  0  0  0
   66.2489   71.7508   85.5876 C   0  0  0  0  0  0  0  0  0  0  0  0
   66.5479   70.7001   84.7137 C   0  0  0  0  0  0  0  0  0  0  0  0
   65.6940   70.6047   83.0082 Br  0  0  0  0  0  0  0  0  0  0  0  0
   67.4712   69.7193   85.0891 C   0  0  0  0  0  0  0  0  0  0  0  0
   68.0997   69.7900   86.3363 C   0  0  0  0  0  0  0  0  0  0  0  0
   69.3619   68.4508   86.8467 Br  0  0  0  0  0  0  0  0  0  0  0  0
   67.8034   70.8407   87.2111 C   0  0  0  0  0  0  0  0  0  0  0  0
  9 10  2  0  0  0
 10 11  1  0  0  0
 10  1  1  0  0  0
  1  2  2  0  0  0
  2  3  1  0  0  0
  3 13  1  0  0  0
 13 14  1  0  0  0
 14 15  1  0  0  0
 15 16  2  0  0  0
 16 17  1  0  0  0
 17 18  1  0  0  0
 17 19  2  0  0  0
 19 20  1  0  0  0
 20 21  1  0  0  0
 20 22  2  0  0  0
  3  4  2  0  0  0
  4  5  1  0  0  0
  5  6  2  0  0  0
  6  7  1  0  0  0
  6  1  1  0  0  0
 22 15  1  0  0  0
 11 12  1  0  0  0
  7  8  1  0  0  0
M  END
> <score>
-0.343137

> <minimizedAffinity>
-7.59637

$$$$
HIPS6092


 22 23  0  0  0  0  0  0  0  0999 V2000
   69.2969   73.0019   91.8560 C   0  0  0  0  0  0  0  0  0  0  0  0
   68.4395   72.3527   90.9488 C   0  0  0  0  0  0  0  0  0  0  0  0
   67.7340   73.0808   89.9728 C   0  0  0  0  0  0  0  0  0  0  0  0
   67.9051   74.4646   89.9000 C   0  0  0  0  0  0  0  0  0  0  0  0
   68.7700   75.1189   90.7768 C   0  0  0  0  0  0  0  0  0  0  0  0
   69.4846   74.4024   91.7423 C   0  0  0  0  0  0  0  0  0  0  0  0
   70.3893   75.1096   92.5374 O   0  0  0  0  0  0  0  0  0  0  0  0
   70.4829   76.0357   92.4301 H   0  0  0  0  0  0  0  0  0  0  0  0
   70.9358   72.6331   93.5485 O   0  0  0  0  0  0  0  0  0  0  0  0
   69.9409   72.1916   92.9139 C   0  0  0  0  0  0  0  0  0  0  0  0
   69.4067   70.9529   93.2596 O   0  0  0  0  0  0  0  0  0  0  0  0
   68.6669   70.6153   92.7941 H   0  0  0  0  0  0  0  0  0  0  0  0
   66.8528   72.4740   89.0623 O   0  0  0  0  0  0  0  0  0  0  0  0
   66.6219   72.9070   87.7210 C   0  0  0  0  0  0  0  0  0  0  0  0
   66.8818   71.7897   86.7452 C   0  0  0  0  0  0  0  0  0  0  0  0
   67.7697   70.7548   87.0810 C   0  0  0  0  0  0  0  0  0  0  0  0
   68.0138   69.7141   86.1786 C   0  0  0  0  0  0  0  0  0  0  0  0
   69.2322   68.3175   86.6389 Br  0  0  0  0  0  0  0  0  0  0  0  0
   67.3665   69.6968   84.9392 C   0  0  0  0  0  0  0  0  0  0  0  0
   66.4714   70.7171   84.6023 C   0  0  0  0  0  0  0  0  0  0  0  0
   65.5868   70.6909   82.9101 Br  0  0  0  0  0  0  0  0  0  0  0  0
   66.2246   71.7579   85.5040 C   0  0  0  0  0  0  0  0  0  0  0  0
  9 10  2  0  0  0
 10 11  1  0  0  0
 10  1  1  0  0  0
  1  2  2  0  0  0
  2  3  1  0  0  0
  3 13  1  0  0  0
 13 14  1  0  0  0
 14 15  1  0  0  0
 15 16  2  0  0  0
 16 17  1  0  0  0
 17 18  1  0  0  0
 17 19  2  0  0  0
 19 20  1  0  0  0
 20 21  1  0  0  0
 20 22  2  0  0  0
  3  4  2  0  0  0
  4  5  1  0  0  0
  5  6  2  0  0  0
  6  7  1  0  0  0
  6  1  1  0  0  0
 22 15  1  0  0  0
 11 12  1  0  0  0
  7  8  1  0  0  0
M  END
> <score>
-0.343137

> <minimizedAffinity>
-7.56096

$$$$
HIPS6092


 22 23  0  0  0  0  0  0  0  0999 V2000
   68.7191   75.3257   90.6394 C   0  0  0  0  0  0  0  0  0  0  0  0
   67.7927   74.6844   89.7967 C   0  0  0  0  0  0  0  0  0  0  0  0
   67.6602   73.2833   89.8011 C   0  0  0  0  0  0  0  0  0  0  0  0
   68.4515   72.5274   90.6681 C   0  0  0  0  0  0  0  0  0  0  0  0
   69.3570   73.1508   91.5263 C   0  0  0  0  0  0  0  0  0  0  0  0
   69.4873   74.5433   91.5378 C   0  0  0  0  0  0  0  0  0  0  0  0
   70.3575   75.1058   92.4743 O   0  0  0  0  0  0  0  0  0  0  0  0
   70.8474   74.5524   93.0503 H   0  0  0  0  0  0  0  0  0  0  0  0
   69.2380   77.4832   91.5125 O   0  0  0  0  0  0  0  0  0  0  0  0
   68.8724   76.7932   90.5237 C   0  0  0  0  0  0  0  0  0  0  0  0
   68.6732   77.4159   89.2942 O   0  0  0  0  0  0  0  0  0  0  0  0
   68.4013   76.9120   88.5525 H   0  0  0  0  0  0  0  0  0  0  0  0
   66.7628   72.6029   88.9612 O   0  0  0  0  0  0  0  0  0  0  0  0
   66.5382   72.8949   87.5812 C   0  0  0  0  0  0  0  0  0  0  0  0
   66.8834   71.7087   86.7197 C   0  0  0  0  0  0  0  0  0  0  0  0
   66.2685   71.5458   85.4678 C   0  0  0  0  0  0  0  0  0  0  0  0
   66.5865   70.4463   84.6634 C   0  0  0  0  0  0  0  0  0  0  0  0
   65.7360   70.2264   82.9677 Br  0  0  0  0  0  0  0  0  0  0  0  0
   67.5261   69.5078   85.1012 C   0  0  0  0  0  0  0  0  0  0  0  0
   68.1521   69.6696   86.3412 C   0  0  0  0  0  0  0  0  0  0  0  0
   69.4366   68.3880   86.9367 Br  0  0  0  0  0  0  0  0  0  0  0  0
   67.8368   70.7692   87.1464 C   0  0  0  0  0  0  0  0  0  0  0  0
  9 10  2  0  0  0
 10 11  1  0  0  0
 10  1  1  0  0  0
  1  2  2  0  0  0
  2  3  1  0  0  0
  3 13  1  0  0  0
 13 14  1  0  0  0
 14 15  1  0  0  0
 15 16  2  0  0  0
 16 17  1  0  0  0
 17 18  1  0  0  0
 17 19  2  0  0  0
 19 20  1  0  0  0
 20 21  1  0  0  0
 20 22  2  0  0  0
  3  4  2  0  0  0
  4  5  1  0  0  0
  5  6  2  0  0  0
  6  7  1  0  0  0
  6  1  1  0  0  0
 22 15  1  0  0  0
 11 12  1  0  0  0
  7  8  1  0  0  0
M  END
> <score>
-0.343137

> <minimizedAffinity>
-7.23047

$$$$
HIPS6101


 33 36  0  0  0  0  0  0  0  0999 V2000
   67.9618   79.4277   89.3704 C   0  0  0  0  0  0  0  0  0  0  0  0
   67.3399   79.7689   88.1609 C   0  0  0  0  0  0  0  0  0  0  0  0
   66.8523   78.7716   87.3141 C   0  0  0  0  0  0  0  0  0  0  0  0
   66.9709   77.4263   87.6712 C   0  0  0  0  0  0  0  0  0  0  0  0
   67.5818   77.0640   88.8843 C   0  0  0  0  0  0  0  0  0  0  0  0
   68.0854   78.0744   89.7242 C   0  0  0  0  0  0  0  0  0  0  0  0
   67.6749   75.6383   89.2853 C   0  0  0  0  0  0  0  0  0  0  0  0
   68.4167   75.2582   90.4177 C   0  0  0  0  0  0  0  0  0  0  0  0
   68.5101   73.9130   90.7815 C   0  0  0  0  0  0  0  0  0  0  0  0
   67.8617   72.9339   90.0254 C   0  0  0  0  0  0  0  0  0  0  0  0
   67.1021   73.2976   88.9003 C   0  0  0  0  0  0  0  0  0  0  0  0
   67.0275   74.6443   88.5287 C   0  0  0  0  0  0  0  0  0  0  0  0
   66.4509   72.3437   88.1044 O   0  0  0  0  0  0  0  0  0  0  0  0
   66.9911   71.7319   86.9636 C   0  0  0  0  0  0  0  0  0  0  0  0
   67.6282   70.4781   87.0216 C   0  0  0  0  0  0  0  0  0  0  0  0
   68.1389   69.8946   85.8576 C   0  0  0  0  0  0  0  0  0  0  0  0
   68.0077   70.5495   84.6299 C   0  0  0  0  0  0  0  0  0  0  0  0
   67.3583   71.7851   84.5630 C   0  0  0  0  0  0  0  0  0  0  0  0
   66.8461   72.3705   85.7252 C   0  0  0  0  0  0  0  0  0  0  0  0
   68.4590   80.5123   90.2874 C   0  0  0  0  0  0  0  0  0  0  0  0
   69.8528   80.7398   90.0750 O   0  0  0  0  0  0  0  0  0  0  0  0
   70.3585   83.7560   87.9039 C   0  0  0  0  0  0  0  0  0  0  0  0
   69.7633   82.6116   88.4677 C   0  0  0  0  0  0  0  0  0  0  0  0
   70.4111   81.8860   89.4846 C   0  0  0  0  0  0  0  0  0  0  0  0
   71.6551   82.3230   89.9445 C   0  0  0  0  0  0  0  0  0  0  0  0
   72.2687   83.4396   89.3771 C   0  0  0  0  0  0  0  0  0  0  0  0
   71.6466   84.1476   88.3439 C   0  0  0  0  0  0  0  0  0  0  0  0
   72.3512   85.2040   87.7628 O   0  0  0  0  0  0  0  0  0  0  0  0
   73.2018   85.4322   88.0830 H   0  0  0  0  0  0  0  0  0  0  0  0
   68.3419   84.4002   86.8224 O   0  0  0  0  0  0  0  0  0  0  0  0
   69.5930   84.5351   86.9045 C   0  0  0  0  0  0  0  0  0  0  0  0
   70.2321   85.4667   86.0913 O   0  0  0  0  0  0  0  0  0  0  0  0
   71.1613   85.5752   86.1440 H   0  0  0  0  0  0  0  0  0  0  0  0
 30 31  2  0  0  0
 31 32  1  0  0  0
 31 22  1  0  0  0
 22 23  2  0  0  0
 23 24  1  0  0  0
 24 21  1  0  0  0
 21 20  1  0  0  0
 20  1  1  0  0  0
  1  2  2  0  0  0
  2  3  1  0  0  0
  3  4  2  0  0  0
  4  5  1  0  0  0
  5  7  1  0  0  0
  7  8  2  0  0  0
  8  9  1  0  0  0
  9 10  2  0  0  0
 10 11  1  0  0  0
 11 13  1  0  0  0
 13 14  1  0  0  0
 14 15  2  0  0  0
 15 16  1  0  0  0
 16 17  2  0  0  0
 17 18  1  0  0  0
 18 19  2  0  0  0
 11 12  2  0  0  0
  5  6  2  0  0  0
 24 25  2  0  0  0
 25 26  1  0  0  0
 26 27  2  0  0  0
 27 28  1  0  0  0
 27 22  1  0  0  0
  6  1  1  0  0  0
 12  7  1  0  0  0
 19 14  1  0  0  0
 32 33  1  0  0  0
 28 29  1  0  0  0
M  END
> <score>
-0.106651

> <minimizedAffinity>
-9.50558

$$$$
HIPS6101


 33 36  0  0  0  0  0  0  0  0999 V2000
   69.7231   76.4996   91.8303 C   0  0  0  0  0  0  0  0  0  0  0  0
   71.1176   76.6286   91.7604 C   0  0  0  0  0  0  0  0  0  0  0  0
   71.6953   77.5785   90.9157 C   0  0  0  0  0  0  0  0  0  0  0  0
   70.8872   78.4149   90.1419 C   0  0  0  0  0  0  0  0  0  0  0  0
   69.4870   78.3083   90.2054 C   0  0  0  0  0  0  0  0  0  0  0  0
   68.9132   77.3372   91.0467 C   0  0  0  0  0  0  0  0  0  0  0  0
   68.6247   79.2210   89.4145 C   0  0  0  0  0  0  0  0  0  0  0  0
   67.6844   78.7094   88.5027 C   0  0  0  0  0  0  0  0  0  0  0  0
   66.8852   79.5749   87.7526 C   0  0  0  0  0  0  0  0  0  0  0  0
   67.0099   80.9575   87.9066 C   0  0  0  0  0  0  0  0  0  0  0  0
   67.9327   81.4859   88.8256 C   0  0  0  0  0  0  0  0  0  0  0  0
   68.7446   80.6152   89.5606 C   0  0  0  0  0  0  0  0  0  0  0  0
   68.1013   82.8678   88.9970 O   0  0  0  0  0  0  0  0  0  0  0  0
   68.9349   83.6870   88.2215 C   0  0  0  0  0  0  0  0  0  0  0  0
   70.1829   83.2426   87.7459 C   0  0  0  0  0  0  0  0  0  0  0  0
   70.9769   84.0852   86.9612 C   0  0  0  0  0  0  0  0  0  0  0  0
   70.5281   85.3684   86.6363 C   0  0  0  0  0  0  0  0  0  0  0  0
   69.2810   85.8077   87.0886 C   0  0  0  0  0  0  0  0  0  0  0  0
   68.4848   84.9670   87.8728 C   0  0  0  0  0  0  0  0  0  0  0  0
   69.1116   75.4907   92.7646 C   0  0  0  0  0  0  0  0  0  0  0  0
   70.0940   74.5404   93.1787 O   0  0  0  0  0  0  0  0  0  0  0  0
   70.5084   70.8266   93.4999 C   0  0  0  0  0  0  0  0  0  0  0  0
   70.5667   72.1996   93.8053 C   0  0  0  0  0  0  0  0  0  0  0  0
   70.0569   73.1612   92.9131 C   0  0  0  0  0  0  0  0  0  0  0  0
   69.4740   72.7372   91.7172 C   0  0  0  0  0  0  0  0  0  0  0  0
   69.4330   71.3822   91.3894 C   0  0  0  0  0  0  0  0  0  0  0  0
   69.9662   70.4223   92.2554 C   0  0  0  0  0  0  0  0  0  0  0  0
   69.9692   69.0921   91.8300 O   0  0  0  0  0  0  0  0  0  0  0  0
   69.6005   68.8652   90.9990 H   0  0  0  0  0  0  0  0  0  0  0  0
   70.6228   69.9806   95.7186 O   0  0  0  0  0  0  0  0  0  0  0  0
   70.9735   69.8534   94.5140 C   0  0  0  0  0  0  0  0  0  0  0  0
   71.7467   68.7573   94.1421 O   0  0  0  0  0  0  0  0  0  0  0  0
   72.0129   68.6529   93.2499 H   0  0  0  0  0  0  0  0  0  0  0  0
 30 31  2  0  0  0
 31 32  1  0  0  0
 31 22  1  0  0  0
 22 23  2  0  0  0
 23 24  1  0  0  0
 24 21  1  0  0  0
 21 20  1  0  0  0
 20  1  1  0  0  0
  1  2  2  0  0  0
  2  3  1  0  0  0
  3  4  2  0  0  0
  4  5  1  0  0  0
  5  7  1  0  0  0
  7  8  2  0  0  0
  8  9  1  0  0  0
  9 10  2  0  0  0
 10 11  1  0  0  0
 11 13  1  0  0  0
 13 14  1  0  0  0
 14 15  2  0  0  0
 15 16  1  0  0  0
 16 17  2  0  0  0
 17 18  1  0  0  0
 18 19  2  0  0  0
 11 12  2  0  0  0
  5  6  2  0  0  0
 24 25  2  0  0  0
 25 26  1  0  0  0
 26 27  2  0  0  0
 27 28  1  0  0  0
 27 22  1  0  0  0
  6  1  1  0  0  0
 12  7  1  0  0  0
 19 14  1  0  0  0
 32 33  1  0  0  0
 28 29  1  0  0  0
M  END
> <score>
-0.106651

> <minimizedAffinity>
-9.40813

$$$$
HIPS6101


 33 36  0  0  0  0  0  0  0  0999 V2000
   68.0812   79.4657   89.3967 C   0  0  0  0  0  0  0  0  0  0  0  0
   67.4865   79.8516   88.1870 C   0  0  0  0  0  0  0  0  0  0  0  0
   66.9449   78.8908   87.3307 C   0  0  0  0  0  0  0  0  0  0  0  0
   66.9822   77.5384   87.6786 C   0  0  0  0  0  0  0  0  0  0  0  0
   67.5647   77.1321   88.8917 C   0  0  0  0  0  0  0  0  0  0  0  0
   68.1230   78.1051   89.7412 C   0  0  0  0  0  0  0  0  0  0  0  0
   67.5714   75.7006   89.2827 C   0  0  0  0  0  0  0  0  0  0  0  0
   67.0169   74.7232   88.4376 C   0  0  0  0  0  0  0  0  0  0  0  0
   67.0157   73.3794   88.8182 C   0  0  0  0  0  0  0  0  0  0  0  0
   67.5710   72.9947   90.0406 C   0  0  0  0  0  0  0  0  0  0  0  0
   68.1447   73.9562   90.8901 C   0  0  0  0  0  0  0  0  0  0  0  0
   68.1262   75.3035   90.5132 C   0  0  0  0  0  0  0  0  0  0  0  0
   68.6962   73.6137   92.1334 O   0  0  0  0  0  0  0  0  0  0  0  0
   68.0396   73.7133   93.3688 C   0  0  0  0  0  0  0  0  0  0  0  0
   66.6355   73.7281   93.4673 C   0  0  0  0  0  0  0  0  0  0  0  0
   66.0195   73.8118   94.7201 C   0  0  0  0  0  0  0  0  0  0  0  0
   66.7964   73.8692   95.8805 C   0  0  0  0  0  0  0  0  0  0  0  0
   68.1905   73.8344   95.7903 C   0  0  0  0  0  0  0  0  0  0  0  0
   68.8091   73.7500   94.5389 C   0  0  0  0  0  0  0  0  0  0  0  0
   68.6371   80.5126   90.3239 C   0  0  0  0  0  0  0  0  0  0  0  0
   70.0128   80.7561   90.0276 O   0  0  0  0  0  0  0  0  0  0  0  0
   70.3877   83.9431   88.0860 C   0  0  0  0  0  0  0  0  0  0  0  0
   69.8276   82.7529   88.5876 C   0  0  0  0  0  0  0  0  0  0  0  0
   70.5346   81.9500   89.5018 C   0  0  0  0  0  0  0  0  0  0  0  0
   71.8031   82.3547   89.9225 C   0  0  0  0  0  0  0  0  0  0  0  0
   72.3815   83.5175   89.4139 C   0  0  0  0  0  0  0  0  0  0  0  0
   71.6992   84.3044   88.4807 C   0  0  0  0  0  0  0  0  0  0  0  0
   72.3677   85.4089   87.9481 O   0  0  0  0  0  0  0  0  0  0  0  0
   73.2354   85.6147   88.2357 H   0  0  0  0  0  0  0  0  0  0  0  0
   68.4034   85.1394   87.5547 O   0  0  0  0  0  0  0  0  0  0  0  0
   69.5643   84.7973   87.2005 C   0  0  0  0  0  0  0  0  0  0  0  0
   70.0813   85.2822   86.0026 O   0  0  0  0  0  0  0  0  0  0  0  0
   70.9428   85.0345   85.7298 H   0  0  0  0  0  0  0  0  0  0  0  0
 30 31  2  0  0  0
 31 32  1  0  0  0
 31 22  1  0  0  0
 22 23  2  0  0  0
 23 24  1  0  0  0
 24 21  1  0  0  0
 21 20  1  0  0  0
 20  1  1  0  0  0
  1  2  2  0  0  0
  2  3  1  0  0  0
  3  4  2  0  0  0
  4  5  1  0  0  0
  5  7  1  0  0  0
  7  8  2  0  0  0
  8  9  1  0  0  0
  9 10  2  0  0  0
 10 11  1  0  0  0
 11 13  1  0  0  0
 13 14  1  0  0  0
 14 15  2  0  0  0
 15 16  1  0  0  0
 16 17  2  0  0  0
 17 18  1  0  0  0
 18 19  2  0  0  0
 11 12  2  0  0  0
  5  6  2  0  0  0
 24 25  2  0  0  0
 25 26  1  0  0  0
 26 27  2  0  0  0
 27 28  1  0  0  0
 27 22  1  0  0  0
  6  1  1  0  0  0
 12  7  1  0  0  0
 19 14  1  0  0  0
 32 33  1  0  0  0
 28 29  1  0  0  0
M  END
> <score>
-0.106651

> <minimizedAffinity>
-9.39173

$$$$
HIPS611


 36 39  0  0  0  0  0  0  0  0999 V2000
   68.5070   74.0384   92.9467 C   0  0  0  0  0  0  0  0  0  0  0  0
   68.9190   75.0402   92.0480 C   0  0  0  0  0  0  0  0  0  0  0  0
   68.3242   76.2820   92.2760 C   0  0  0  0  0  0  0  0  0  0  0  0
   67.3065   76.1232   93.6105 S   0  0  0  0  0  0  0  0  0  0  0  0
   67.5996   74.4956   93.9089 C   0  0  0  0  0  0  0  0  0  0  0  0
   68.5577   77.5355   91.5127 C   0  0  0  0  0  0  0  0  0  0  0  0
   67.6970   78.6416   91.6502 C   0  0  0  0  0  0  0  0  0  0  0  0
   67.9230   79.8132   90.9222 C   0  0  0  0  0  0  0  0  0  0  0  0
   69.0008   79.9034   90.0376 C   0  0  0  0  0  0  0  0  0  0  0  0
   69.8809   78.8158   89.9159 C   0  0  0  0  0  0  0  0  0  0  0  0
   69.6586   77.6428   90.6423 C   0  0  0  0  0  0  0  0  0  0  0  0
   69.1971   81.1000   89.3326 O   0  0  0  0  0  0  0  0  0  0  0  0
   70.3472   81.9017   89.3950 C   0  0  0  0  0  0  0  0  0  0  0  0
   70.4879   82.9492   88.4757 C   0  0  0  0  0  0  0  0  0  0  0  0
   71.6252   83.7632   88.4984 C   0  0  0  0  0  0  0  0  0  0  0  0
   72.6363   83.5266   89.4330 C   0  0  0  0  0  0  0  0  0  0  0  0
   72.5154   82.4706   90.3403 C   0  0  0  0  0  0  0  0  0  0  0  0
   71.3794   81.6548   90.3198 C   0  0  0  0  0  0  0  0  0  0  0  0
   70.5824   70.9109   93.7608 N   0  0  0  0  0  0  0  0  0  0  0  0
   70.1379   72.2831   93.7634 C   0  0  0  0  0  0  0  0  0  0  0  0
   70.7131   73.1157   94.5164 O   0  0  0  0  0  0  0  0  0  0  0  0
   69.0431   72.7050   92.9312 N   0  0  0  0  0  0  0  0  0  0  0  0
   68.6404   72.0468   92.3198 H   0  0  0  0  0  0  0  0  0  0  0  0
   70.6037   68.8054   95.0545 C   0  0  0  0  0  0  0  0  0  0  0  0
   70.9700   70.2864   95.0336 C   0  0  0  0  0  0  0  0  0  0  0  0
   70.7284   70.1605   92.5023 C   0  0  0  0  0  0  0  0  0  0  0  0
   72.1789   69.8575   92.2242 C   0  0  0  0  0  0  0  0  0  0  0  0
   73.1929   70.6395   92.8025 C   0  0  0  0  0  0  0  0  0  0  0  0
   74.5377   70.3472   92.5555 C   0  0  0  0  0  0  0  0  0  0  0  0
   74.8813   69.2736   91.7299 C   0  0  0  0  0  0  0  0  0  0  0  0
   73.8802   68.4918   91.1484 C   0  0  0  0  0  0  0  0  0  0  0  0
   72.5342   68.7811   91.3925 C   0  0  0  0  0  0  0  0  0  0  0  0
   66.9556   73.7327   94.9922 C   0  0  0  0  0  0  0  0  0  0  0  0
   67.6399   73.1984   95.9043 O   0  0  0  0  0  0  0  0  0  0  0  0
   65.5714   73.5899   95.0018 O   0  0  0  0  0  0  0  0  0  0  0  0
   65.0550   73.9843   94.3268 H   0  0  0  0  0  0  0  0  0  0  0  0
 24 25  1  0  0  0
 25 19  1  0  0  0
 19 26  1  0  0  0
 26 27  1  0  0  0
 27 28  2  0  0  0
 28 29  1  0  0  0
 29 30  2  0  0  0
 30 31  1  0  0  0
 31 32  2  0  0  0
 19 20  1  0  0  0
 20 21  2  0  0  0
 20 22  1  0  0  0
 22  1  1  0  0  0
  1  2  1  0  0  0
  2  3  2  0  0  0
  3  6  1  0  0  0
  6  7  2  0  0  0
  7  8  1  0  0  0
  8  9  2  0  0  0
  9 12  1  0  0  0
 12 13  1  0  0  0
 13 14  2  0  0  0
 14 15  1  0  0  0
 15 16  2  0  0  0
 16 17  1  0  0  0
 17 18  2  0  0  0
  9 10  1  0  0  0
 10 11  2  0  0  0
  3  4  1  0  0  0
  4  5  1  0  0  0
  5 33  1  0  0  0
 33 34  2  0  0  0
 33 35  1  0  0  0
 32 27  1  0  0  0
  5  1  2  0  0  0
 11  6  1  0  0  0
 18 13  1  0  0  0
 22 23  1  0  0  0
 35 36  1  0  0  0
M  END
> <score>
-0.422021

> <minimizedAffinity>
-8.92077

$$$$
HIPS611


 36 39  0  0  0  0  0  0  0  0999 V2000
   68.2540   74.6992   90.2888 C   0  0  0  0  0  0  0  0  0  0  0  0
   68.6938   76.0099   90.5531 C   0  0  0  0  0  0  0  0  0  0  0  0
   68.2596   76.9501   89.6175 C   0  0  0  0  0  0  0  0  0  0  0  0
   67.3131   76.1403   88.4816 S   0  0  0  0  0  0  0  0  0  0  0  0
   67.4450   74.6046   89.1509 C   0  0  0  0  0  0  0  0  0  0  0  0
   68.5427   78.4089   89.6229 C   0  0  0  0  0  0  0  0  0  0  0  0
   69.7250   78.9182   90.1937 C   0  0  0  0  0  0  0  0  0  0  0  0
   69.9776   80.2929   90.1985 C   0  0  0  0  0  0  0  0  0  0  0  0
   69.0561   81.1866   89.6464 C   0  0  0  0  0  0  0  0  0  0  0  0
   67.8880   80.6854   89.0492 C   0  0  0  0  0  0  0  0  0  0  0  0
   67.6321   79.3115   89.0420 C   0  0  0  0  0  0  0  0  0  0  0  0
   69.3517   82.5576   89.6640 O   0  0  0  0  0  0  0  0  0  0  0  0
   70.4204   83.1682   88.9902 C   0  0  0  0  0  0  0  0  0  0  0  0
   70.2402   83.5590   87.6572 C   0  0  0  0  0  0  0  0  0  0  0  0
   71.2853   84.1602   86.9481 C   0  0  0  0  0  0  0  0  0  0  0  0
   72.5229   84.3629   87.5639 C   0  0  0  0  0  0  0  0  0  0  0  0
   72.7195   83.9569   88.8866 C   0  0  0  0  0  0  0  0  0  0  0  0
   71.6764   83.3551   89.5980 C   0  0  0  0  0  0  0  0  0  0  0  0
   69.8194   72.4583   92.9868 N   0  0  0  0  0  0  0  0  0  0  0  0
   69.6356   73.5668   92.0823 C   0  0  0  0  0  0  0  0  0  0  0  0
   70.4494   74.5300   92.1147 O   0  0  0  0  0  0  0  0  0  0  0  0
   68.5323   73.5902   91.1596 N   0  0  0  0  0  0  0  0  0  0  0  0
   67.9375   72.8066   91.1227 H   0  0  0  0  0  0  0  0  0  0  0  0
   69.2001   73.5146   95.1334 C   0  0  0  0  0  0  0  0  0  0  0  0
   70.2573   72.7288   94.3635 C   0  0  0  0  0  0  0  0  0  0  0  0
   69.6540   71.0681   92.5305 C   0  0  0  0  0  0  0  0  0  0  0  0
   70.7498   70.1899   93.0793 C   0  0  0  0  0  0  0  0  0  0  0  0
   70.4456   69.1415   93.9640 C   0  0  0  0  0  0  0  0  0  0  0  0
   71.4614   68.3186   94.4597 C   0  0  0  0  0  0  0  0  0  0  0  0
   72.7877   68.5351   94.0775 C   0  0  0  0  0  0  0  0  0  0  0  0
   73.1005   69.5764   93.2003 C   0  0  0  0  0  0  0  0  0  0  0  0
   72.0876   70.4019   92.7027 C   0  0  0  0  0  0  0  0  0  0  0  0
   66.8195   73.4026   88.5726 C   0  0  0  0  0  0  0  0  0  0  0  0
   66.5727   72.3939   89.2848 O   0  0  0  0  0  0  0  0  0  0  0  0
   66.5072   73.3765   87.2168 O   0  0  0  0  0  0  0  0  0  0  0  0
   66.6877   74.1230   86.6800 H   0  0  0  0  0  0  0  0  0  0  0  0
 24 25  1  0  0  0
 25 19  1  0  0  0
 19 26  1  0  0  0
 26 27  1  0  0  0
 27 28  2  0  0  0
 28 29  1  0  0  0
 29 30  2  0  0  0
 30 31  1  0  0  0
 31 32  2  0  0  0
 19 20  1  0  0  0
 20 21  2  0  0  0
 20 22  1  0  0  0
 22  1  1  0  0  0
  1  2  1  0  0  0
  2  3  2  0  0  0
  3  6  1  0  0  0
  6  7  2  0  0  0
  7  8  1  0  0  0
  8  9  2  0  0  0
  9 12  1  0  0  0
 12 13  1  0  0  0
 13 14  2  0  0  0
 14 15  1  0  0  0
 15 16  2  0  0  0
 16 17  1  0  0  0
 17 18  2  0  0  0
  9 10  1  0  0  0
 10 11  2  0  0  0
  3  4  1  0  0  0
  4  5  1  0  0  0
  5 33  1  0  0  0
 33 34  2  0  0  0
 33 35  1  0  0  0
 32 27  1  0  0  0
  5  1  2  0  0  0
 11  6  1  0  0  0
 18 13  1  0  0  0
 22 23  1  0  0  0
 35 36  1  0  0  0
M  END
> <score>
-0.422021

> <minimizedAffinity>
-8.75956

$$$$
HIPS611


 36 39  0  0  0  0  0  0  0  0999 V2000
   68.3748   77.8511   89.5956 C   0  0  0  0  0  0  0  0  0  0  0  0
   68.8970   76.9558   90.5479 C   0  0  0  0  0  0  0  0  0  0  0  0
   68.4270   75.6488   90.4106 C   0  0  0  0  0  0  0  0  0  0  0  0
   67.3812   75.6187   89.0888 S   0  0  0  0  0  0  0  0  0  0  0  0
   67.5055   77.2444   88.6822 C   0  0  0  0  0  0  0  0  0  0  0  0
   68.7951   74.4771   91.2472 C   0  0  0  0  0  0  0  0  0  0  0  0
   68.6194   73.1622   90.7745 C   0  0  0  0  0  0  0  0  0  0  0  0
   68.9634   72.0676   91.5728 C   0  0  0  0  0  0  0  0  0  0  0  0
   69.4777   72.2591   92.8578 C   0  0  0  0  0  0  0  0  0  0  0  0
   69.6833   73.5669   93.3264 C   0  0  0  0  0  0  0  0  0  0  0  0
   69.3411   74.6639   92.5310 C   0  0  0  0  0  0  0  0  0  0  0  0
   69.8181   71.1340   93.6232 O   0  0  0  0  0  0  0  0  0  0  0  0
   71.1240   70.6867   93.8757 C   0  0  0  0  0  0  0  0  0  0  0  0
   71.3779   69.9867   95.0621 C   0  0  0  0  0  0  0  0  0  0  0  0
   72.6687   69.5345   95.3551 C   0  0  0  0  0  0  0  0  0  0  0  0
   73.7178   69.7912   94.4689 C   0  0  0  0  0  0  0  0  0  0  0  0
   73.4791   70.5074   93.2929 C   0  0  0  0  0  0  0  0  0  0  0  0
   72.1895   70.9610   92.9975 C   0  0  0  0  0  0  0  0  0  0  0  0
   68.5376   81.6563   90.0910 N   0  0  0  0  0  0  0  0  0  0  0  0
   68.0454   80.3013   90.1395 C   0  0  0  0  0  0  0  0  0  0  0  0
   66.9676   80.0586   90.7484 O   0  0  0  0  0  0  0  0  0  0  0  0
   68.7744   79.2294   89.5162 N   0  0  0  0  0  0  0  0  0  0  0  0
   69.5887   79.4511   89.0093 H   0  0  0  0  0  0  0  0  0  0  0  0
   67.4416   83.6584   91.0384 C   0  0  0  0  0  0  0  0  0  0  0  0
   68.4076   82.5034   91.2850 C   0  0  0  0  0  0  0  0  0  0  0  0
   69.0892   82.2216   88.8484 C   0  0  0  0  0  0  0  0  0  0  0  0
   70.5132   82.6738   89.0510 C   0  0  0  0  0  0  0  0  0  0  0  0
   71.0036   83.8046   88.3764 C   0  0  0  0  0  0  0  0  0  0  0  0
   72.3198   84.2312   88.5776 C   0  0  0  0  0  0  0  0  0  0  0  0
   73.1566   83.5335   89.4522 C   0  0  0  0  0  0  0  0  0  0  0  0
   72.6790   82.4066   90.1256 C   0  0  0  0  0  0  0  0  0  0  0  0
   71.3635   81.9764   89.9268 C   0  0  0  0  0  0  0  0  0  0  0  0
   66.7740   77.8676   87.5655 C   0  0  0  0  0  0  0  0  0  0  0  0
   66.4636   77.2022   86.5424 O   0  0  0  0  0  0  0  0  0  0  0  0
   66.4312   79.2143   87.6364 O   0  0  0  0  0  0  0  0  0  0  0  0
   66.6586   79.7164   88.3941 H   0  0  0  0  0  0  0  0  0  0  0  0
 24 25  1  0  0  0
 25 19  1  0  0  0
 19 26  1  0  0  0
 26 27  1  0  0  0
 27 28  2  0  0  0
 28 29  1  0  0  0
 29 30  2  0  0  0
 30 31  1  0  0  0
 31 32  2  0  0  0
 19 20  1  0  0  0
 20 21  2  0  0  0
 20 22  1  0  0  0
 22  1  1  0  0  0
  1  2  1  0  0  0
  2  3  2  0  0  0
  3  6  1  0  0  0
  6  7  2  0  0  0
  7  8  1  0  0  0
  8  9  2  0  0  0
  9 12  1  0  0  0
 12 13  1  0  0  0
 13 14  2  0  0  0
 14 15  1  0  0  0
 15 16  2  0  0  0
 16 17  1  0  0  0
 17 18  2  0  0  0
  9 10  1  0  0  0
 10 11  2  0  0  0
  3  4  1  0  0  0
  4  5  1  0  0  0
  5 33  1  0  0  0
 33 34  2  0  0  0
 33 35  1  0  0  0
 32 27  1  0  0  0
  5  1  2  0  0  0
 11  6  1  0  0  0
 18 13  1  0  0  0
 22 23  1  0  0  0
 35 36  1  0  0  0
M  END
> <score>
-0.422021

> <minimizedAffinity>
-8.63037

$$$$
HIPS6124


 26 29  0  0  0  0  0  0  0  0999 V2000
   68.8788   77.3897   92.8904 O   0  0  0  0  0  0  0  0  0  0  0  0
   68.7016   74.2689   94.8058 C   0  0  0  0  0  0  0  0  0  0  0  0
   69.1912   75.3244   94.0745 C   0  0  0  0  0  0  0  0  0  0  0  0
   68.3671   76.3386   93.6232 C   0  0  0  0  0  0  0  0  0  0  0  0
   67.0048   76.2723   93.9278 C   0  0  0  0  0  0  0  0  0  0  0  0
   66.5077   75.2224   94.6571 C   0  0  0  0  0  0  0  0  0  0  0  0
   67.3534   74.2383   95.0860 C   0  0  0  0  0  0  0  0  0  0  0  0
   66.8307   73.1845   95.8227 O   0  0  0  0  0  0  0  0  0  0  0  0
   65.9144   73.1576   96.0168 H   0  0  0  0  0  0  0  0  0  0  0  0
   70.5241   72.8476   94.5444 O   0  0  0  0  0  0  0  0  0  0  0  0
   69.5695   73.2035   95.2795 C   0  0  0  0  0  0  0  0  0  0  0  0
   69.3607   72.5809   96.5181 O   0  0  0  0  0  0  0  0  0  0  0  0
   68.6475   72.8496   97.0631 H   0  0  0  0  0  0  0  0  0  0  0  0
   69.6752   77.1287   91.7612 C   0  0  0  0  0  0  0  0  0  0  0  0
   68.8687   76.3408   90.7999 C   0  0  0  0  0  0  0  0  0  0  0  0
   68.7939   74.9569   90.9207 C   0  0  0  0  0  0  0  0  0  0  0  0
   68.0524   74.1977   90.0424 C   0  0  0  0  0  0  0  0  0  0  0  0
   67.3907   74.8623   89.0440 C   0  0  0  0  0  0  0  0  0  0  0  0
   67.4257   76.2223   88.8735 C   0  0  0  0  0  0  0  0  0  0  0  0
   68.1724   76.9662   89.7612 C   0  0  0  0  0  0  0  0  0  0  0  0
   68.0280   72.7305   90.2445 C   0  0  0  0  0  0  0  0  0  0  0  0
   67.4106   72.3224   91.6171 C   0  0  0  0  0  0  0  0  0  0  0  0
   68.8287   72.0887   91.3095 C   0  0  0  0  0  0  0  0  0  0  0  0
   66.7075   76.9375   87.7906 C   0  0  0  0  0  0  0  0  0  0  0  0
   67.1445   76.7832   86.3806 C   0  0  0  0  0  0  0  0  0  0  0  0
   67.3410   78.0714   87.0815 C   0  0  0  0  0  0  0  0  0  0  0  0
 10 11  2  0  0  0
 11 12  1  0  0  0
 11  2  1  0  0  0
  2  3  2  0  0  0
  3  4  1  0  0  0
  4  1  1  0  0  0
  1 14  1  0  0  0
 14 15  1  0  0  0
 15 16  2  0  0  0
 16 17  1  0  0  0
 17 21  1  0  0  0
 21 22  1  0  0  0
 22 23  1  0  0  0
 17 18  2  0  0  0
 18 19  1  0  0  0
 19 24  1  0  0  0
 24 25  1  0  0  0
 25 26  1  0  0  0
 19 20  2  0  0  0
  4  5  2  0  0  0
  5  6  1  0  0  0
  6  7  2  0  0  0
  7  8  1  0  0  0
  7  2  1  0  0  0
 20 15  1  0  0  0
 23 21  1  0  0  0
 26 24  1  0  0  0
 12 13  1  0  0  0
  8  9  1  0  0  0
M  END
> <score>
-0.17865

> <minimizedAffinity>
-8.04753

$$$$
HIPS6124


 26 29  0  0  0  0  0  0  0  0999 V2000
   68.5244   73.1040   90.3495 O   0  0  0  0  0  0  0  0  0  0  0  0
   69.6678   72.5587   93.7896 C   0  0  0  0  0  0  0  0  0  0  0  0
   69.1133   73.1443   92.6768 C   0  0  0  0  0  0  0  0  0  0  0  0
   69.0859   72.4984   91.4547 C   0  0  0  0  0  0  0  0  0  0  0  0
   69.6405   71.2186   91.3674 C   0  0  0  0  0  0  0  0  0  0  0  0
   70.1959   70.6268   92.4731 C   0  0  0  0  0  0  0  0  0  0  0  0
   70.2046   71.2965   93.6643 C   0  0  0  0  0  0  0  0  0  0  0  0
   70.7713   70.6803   94.7713 O   0  0  0  0  0  0  0  0  0  0  0  0
   71.1383   69.8217   94.6930 H   0  0  0  0  0  0  0  0  0  0  0  0
   70.0224   74.4522   95.0932 O   0  0  0  0  0  0  0  0  0  0  0  0
   69.6957   73.2393   95.0737 C   0  0  0  0  0  0  0  0  0  0  0  0
   69.3704   72.5755   96.2648 O   0  0  0  0  0  0  0  0  0  0  0  0
   69.1273   71.6708   96.2457 H   0  0  0  0  0  0  0  0  0  0  0  0
   67.4703   74.0195   90.5174 C   0  0  0  0  0  0  0  0  0  0  0  0
   67.8711   75.3035   89.8962 C   0  0  0  0  0  0  0  0  0  0  0  0
   68.8017   76.1235   90.5262 C   0  0  0  0  0  0  0  0  0  0  0  0
   69.1940   77.3227   89.9734 C   0  0  0  0  0  0  0  0  0  0  0  0
   68.6293   77.6751   88.7762 C   0  0  0  0  0  0  0  0  0  0  0  0
   67.7082   76.9105   88.1077 C   0  0  0  0  0  0  0  0  0  0  0  0
   67.3273   75.7138   88.6752 C   0  0  0  0  0  0  0  0  0  0  0  0
   70.1899   78.1333   90.7117 C   0  0  0  0  0  0  0  0  0  0  0  0
   71.6021   78.0992   90.0511 C   0  0  0  0  0  0  0  0  0  0  0  0
   71.3542   77.5043   91.3720 C   0  0  0  0  0  0  0  0  0  0  0  0
   67.0995   77.2963   86.8114 C   0  0  0  0  0  0  0  0  0  0  0  0
   67.0967   76.3392   85.6771 C   0  0  0  0  0  0  0  0  0  0  0  0
   67.9443   77.5508   85.6233 C   0  0  0  0  0  0  0  0  0  0  0  0
 10 11  2  0  0  0
 11 12  1  0  0  0
 11  2  1  0  0  0
  2  3  2  0  0  0
  3  4  1  0  0  0
  4  1  1  0  0  0
  1 14  1  0  0  0
 14 15  1  0  0  0
 15 16  2  0  0  0
 16 17  1  0  0  0
 17 21  1  0  0  0
 21 22  1  0  0  0
 22 23  1  0  0  0
 17 18  2  0  0  0
 18 19  1  0  0  0
 19 24  1  0  0  0
 24 25  1  0  0  0
 25 26  1  0  0  0
 19 20  2  0  0  0
  4  5  2  0  0  0
  5  6  1  0  0  0
  6  7  2  0  0  0
  7  8  1  0  0  0
  7  2  1  0  0  0
 20 15  1  0  0  0
 23 21  1  0  0  0
 26 24  1  0  0  0
 12 13  1  0  0  0
  8  9  1  0  0  0
M  END
> <score>
-0.17865

> <minimizedAffinity>
-7.99437

$$$$
HIPS6124


 26 29  0  0  0  0  0  0  0  0999 V2000
   68.9233   77.5277   92.7213 O   0  0  0  0  0  0  0  0  0  0  0  0
   68.7972   74.3740   94.5860 C   0  0  0  0  0  0  0  0  0  0  0  0
   69.2659   75.4391   93.8549 C   0  0  0  0  0  0  0  0  0  0  0  0
   68.4327   76.4672   93.4548 C   0  0  0  0  0  0  0  0  0  0  0  0
   67.0829   76.4050   93.8117 C   0  0  0  0  0  0  0  0  0  0  0  0
   66.6067   75.3457   94.5412 C   0  0  0  0  0  0  0  0  0  0  0  0
   67.4610   74.3479   94.9187 C   0  0  0  0  0  0  0  0  0  0  0  0
   66.9594   73.2847   95.6565 O   0  0  0  0  0  0  0  0  0  0  0  0
   66.0513   73.2608   95.8861 H   0  0  0  0  0  0  0  0  0  0  0  0
   69.5182   72.8189   96.1583 O   0  0  0  0  0  0  0  0  0  0  0  0
   69.6748   73.2940   95.0059 C   0  0  0  0  0  0  0  0  0  0  0  0
   70.6719   72.7863   94.1613 O   0  0  0  0  0  0  0  0  0  0  0  0
   70.7852   73.1436   93.3026 H   0  0  0  0  0  0  0  0  0  0  0  0
   69.6719   77.2817   91.5565 C   0  0  0  0  0  0  0  0  0  0  0  0
   68.8403   76.4713   90.6363 C   0  0  0  0  0  0  0  0  0  0  0  0
   68.1481   77.0850   89.5972 C   0  0  0  0  0  0  0  0  0  0  0  0
   67.3671   76.3582   88.7257 C   0  0  0  0  0  0  0  0  0  0  0  0
   67.3001   75.0045   88.9245 C   0  0  0  0  0  0  0  0  0  0  0  0
   67.9582   74.3430   89.9291 C   0  0  0  0  0  0  0  0  0  0  0  0
   68.7351   75.0858   90.7917 C   0  0  0  0  0  0  0  0  0  0  0  0
   66.6648   77.0920   87.6477 C   0  0  0  0  0  0  0  0  0  0  0  0
   67.4282   77.0406   86.2887 C   0  0  0  0  0  0  0  0  0  0  0  0
   67.2556   78.2985   87.0292 C   0  0  0  0  0  0  0  0  0  0  0  0
   67.8824   72.8770   90.1405 C   0  0  0  0  0  0  0  0  0  0  0  0
   67.4272   72.3365   91.4457 C   0  0  0  0  0  0  0  0  0  0  0  0
   68.8409   72.1896   91.0343 C   0  0  0  0  0  0  0  0  0  0  0  0
 10 11  2  0  0  0
 11 12  1  0  0  0
 11  2  1  0  0  0
  2  3  2  0  0  0
  3  4  1  0  0  0
  4  1  1  0  0  0
  1 14  1  0  0  0
 14 15  1  0  0  0
 15 16  2  0  0  0
 16 17  1  0  0  0
 17 21  1  0  0  0
 21 22  1  0  0  0
 22 23  1  0  0  0
 17 18  2  0  0  0
 18 19  1  0  0  0
 19 24  1  0  0  0
 24 25  1  0  0  0
 25 26  1  0  0  0
 19 20  2  0  0  0
  4  5  2  0  0  0
  5  6  1  0  0  0
  6  7  2  0  0  0
  7  8  1  0  0  0
  7  2  1  0  0  0
 20 15  1  0  0  0
 23 21  1  0  0  0
 26 24  1  0  0  0
 12 13  1  0  0  0
  8  9  1  0  0  0
M  END
> <score>
-0.17865

> <minimizedAffinity>
-7.98671

$$$$
HIPS6128


 37 40  0  0  0  0  0  0  0  0999 V2000
   67.8799   76.7893   89.0516 C   0  0  0  0  0  0  0  0  0  0  0  0
   67.6766   78.0126   88.3749 C   0  0  0  0  0  0  0  0  0  0  0  0
   66.9839   77.8641   87.1750 C   0  0  0  0  0  0  0  0  0  0  0  0
   66.6283   76.2360   86.9637 S   0  0  0  0  0  0  0  0  0  0  0  0
   67.3340   75.6850   88.3857 C   0  0  0  0  0  0  0  0  0  0  0  0
   68.1529   79.3297   88.8577 C   0  0  0  0  0  0  0  0  0  0  0  0
   69.1958   79.4199   89.7958 C   0  0  0  0  0  0  0  0  0  0  0  0
   69.6412   80.6674   90.2401 C   0  0  0  0  0  0  0  0  0  0  0  0
   69.0718   81.8429   89.7402 C   0  0  0  0  0  0  0  0  0  0  0  0
   68.0222   81.7577   88.8095 C   0  0  0  0  0  0  0  0  0  0  0  0
   67.5744   80.5113   88.3650 C   0  0  0  0  0  0  0  0  0  0  0  0
   69.5413   83.0758   90.2150 O   0  0  0  0  0  0  0  0  0  0  0  0
   70.4501   83.9096   89.5476 C   0  0  0  0  0  0  0  0  0  0  0  0
   71.7686   83.4687   89.3788 C   0  0  0  0  0  0  0  0  0  0  0  0
   72.6967   84.2609   88.6967 C   0  0  0  0  0  0  0  0  0  0  0  0
   72.3075   85.4941   88.1625 C   0  0  0  0  0  0  0  0  0  0  0  0
   70.9890   85.9345   88.3112 C   0  0  0  0  0  0  0  0  0  0  0  0
   70.0604   85.1462   88.9980 C   0  0  0  0  0  0  0  0  0  0  0  0
   68.4250   76.2680   92.8124 N   0  0  0  0  0  0  0  0  0  0  0  0
   67.8012   76.2681   91.5051 C   0  0  0  0  0  0  0  0  0  0  0  0
   66.6181   75.8425   91.3786 O   0  0  0  0  0  0  0  0  0  0  0  0
   68.5135   76.7095   90.3350 N   0  0  0  0  0  0  0  0  0  0  0  0
   69.4611   76.9633   90.4182 H   0  0  0  0  0  0  0  0  0  0  0  0
   67.7443   75.6305   93.9130 C   0  0  0  0  0  0  0  0  0  0  0  0
   66.4656   76.0642   94.3087 C   0  0  0  0  0  0  0  0  0  0  0  0
   65.8040   75.4348   95.3694 C   0  0  0  0  0  0  0  0  0  0  0  0
   66.4109   74.3676   96.0390 C   0  0  0  0  0  0  0  0  0  0  0  0
   67.6820   73.9298   95.6522 C   0  0  0  0  0  0  0  0  0  0  0  0
   68.3476   74.5587   94.5937 C   0  0  0  0  0  0  0  0  0  0  0  0
   69.7972   76.7685   93.0145 C   0  0  0  0  0  0  0  0  0  0  0  0
   70.7252   76.3962   91.8382 C   0  0  0  0  0  0  0  0  0  0  0  0
   72.1780   77.7236   90.2043 C   0  0  0  0  0  0  0  0  0  0  0  0
   71.9217   77.3487   91.6642 C   0  0  0  0  0  0  0  0  0  0  0  0
   67.2564   74.2900   88.8521 C   0  0  0  0  0  0  0  0  0  0  0  0
   66.3942   73.5006   88.3847 O   0  0  0  0  0  0  0  0  0  0  0  0
   68.1654   73.8299   89.7998 O   0  0  0  0  0  0  0  0  0  0  0  0
   68.8098   74.4117   90.1521 H   0  0  0  0  0  0  0  0  0  0  0  0
 32 33  1  0  0  0
 33 31  1  0  0  0
 31 30  1  0  0  0
 30 19  1  0  0  0
 19 20  1  0  0  0
 20 21  2  0  0  0
 20 22  1  0  0  0
 22  1  1  0  0  0
  1  2  1  0  0  0
  2  6  1  0  0  0
  6  7  2  0  0  0
  7  8  1  0  0  0
  8  9  2  0  0  0
  9 12  1  0  0  0
 12 13  1  0  0  0
 13 14  2  0  0  0
 14 15  1  0  0  0
 15 16  2  0  0  0
 16 17  1  0  0  0
 17 18  2  0  0  0
  9 10  1  0  0  0
 10 11  2  0  0  0
  2  3  2  0  0  0
  3  4  1  0  0  0
  4  5  1  0  0  0
  5 34  1  0  0  0
 34 35  2  0  0  0
 34 36  1  0  0  0
 19 24  1  0  0  0
 24 25  2  0  0  0
 25 26  1  0  0  0
 26 27  2  0  0  0
 27 28  1  0  0  0
 28 29  2  0  0  0
  5  1  2  0  0  0
 29 24  1  0  0  0
 11  6  1  0  0  0
 18 13  1  0  0  0
 22 23  1  0  0  0
 36 37  1  0  0  0
M  END
> <score>
-1.415622

> <minimizedAffinity>
-8.13071

$$$$
HIPS6128


 37 40  0  0  0  0  0  0  0  0999 V2000
   67.3492   75.7259   88.6602 C   0  0  0  0  0  0  0  0  0  0  0  0
   67.7874   76.8937   87.9971 C   0  0  0  0  0  0  0  0  0  0  0  0
   67.7165   76.7926   86.6092 C   0  0  0  0  0  0  0  0  0  0  0  0
   67.1146   75.2744   86.2162 S   0  0  0  0  0  0  0  0  0  0  0  0
   66.9233   74.7153   87.7893 C   0  0  0  0  0  0  0  0  0  0  0  0
   68.2906   78.1089   88.6789 C   0  0  0  0  0  0  0  0  0  0  0  0
   69.4624   78.0680   89.4541 C   0  0  0  0  0  0  0  0  0  0  0  0
   69.9314   79.2213   90.0882 C   0  0  0  0  0  0  0  0  0  0  0  0
   69.2548   80.4364   89.9409 C   0  0  0  0  0  0  0  0  0  0  0  0
   68.0773   80.4802   89.1750 C   0  0  0  0  0  0  0  0  0  0  0  0
   67.6059   79.3279   88.5413 C   0  0  0  0  0  0  0  0  0  0  0  0
   69.7527   81.5707   90.5978 O   0  0  0  0  0  0  0  0  0  0  0  0
   70.7284   82.4400   90.0891 C   0  0  0  0  0  0  0  0  0  0  0  0
   72.0755   82.1754   90.3662 C   0  0  0  0  0  0  0  0  0  0  0  0
   73.0781   83.0048   89.8554 C   0  0  0  0  0  0  0  0  0  0  0  0
   72.7410   84.0969   89.0482 C   0  0  0  0  0  0  0  0  0  0  0  0
   71.3999   84.3586   88.7521 C   0  0  0  0  0  0  0  0  0  0  0  0
   70.3951   83.5334   89.2667 C   0  0  0  0  0  0  0  0  0  0  0  0
   67.8806   74.4907   92.2525 N   0  0  0  0  0  0  0  0  0  0  0  0
   68.0232   74.6373   90.8186 C   0  0  0  0  0  0  0  0  0  0  0  0
   68.8436   73.9055   90.1955 O   0  0  0  0  0  0  0  0  0  0  0  0
   67.2754   75.6268   90.0884 N   0  0  0  0  0  0  0  0  0  0  0  0
   66.6979   76.2523   90.5829 H   0  0  0  0  0  0  0  0  0  0  0  0
   68.7941   73.6292   92.9627 C   0  0  0  0  0  0  0  0  0  0  0  0
   69.0611   72.3302   92.4928 C   0  0  0  0  0  0  0  0  0  0  0  0
   69.9573   71.5022   93.1786 C   0  0  0  0  0  0  0  0  0  0  0  0
   70.5954   71.9652   94.3337 C   0  0  0  0  0  0  0  0  0  0  0  0
   70.3359   73.2556   94.8077 C   0  0  0  0  0  0  0  0  0  0  0  0
   69.4381   74.0852   94.1261 C   0  0  0  0  0  0  0  0  0  0  0  0
   66.9263   75.3098   93.0225 C   0  0  0  0  0  0  0  0  0  0  0  0
   66.0041   74.4420   93.9058 C   0  0  0  0  0  0  0  0  0  0  0  0
   66.7223   73.9153   96.3035 C   0  0  0  0  0  0  0  0  0  0  0  0
   65.9690   74.8753   95.3822 C   0  0  0  0  0  0  0  0  0  0  0  0
   66.3014   73.4245   88.1304 C   0  0  0  0  0  0  0  0  0  0  0  0
   66.2411   73.0333   89.3255 O   0  0  0  0  0  0  0  0  0  0  0  0
   65.7475   72.6402   87.1233 O   0  0  0  0  0  0  0  0  0  0  0  0
   65.7886   72.9249   86.2316 H   0  0  0  0  0  0  0  0  0  0  0  0
 32 33  1  0  0  0
 33 31  1  0  0  0
 31 30  1  0  0  0
 30 19  1  0  0  0
 19 20  1  0  0  0
 20 21  2  0  0  0
 20 22  1  0  0  0
 22  1  1  0  0  0
  1  2  1  0  0  0
  2  6  1  0  0  0
  6  7  2  0  0  0
  7  8  1  0  0  0
  8  9  2  0  0  0
  9 12  1  0  0  0
 12 13  1  0  0  0
 13 14  2  0  0  0
 14 15  1  0  0  0
 15 16  2  0  0  0
 16 17  1  0  0  0
 17 18  2  0  0  0
  9 10  1  0  0  0
 10 11  2  0  0  0
  2  3  2  0  0  0
  3  4  1  0  0  0
  4  5  1  0  0  0
  5 34  1  0  0  0
 34 35  2  0  0  0
 34 36  1  0  0  0
 19 24  1  0  0  0
 24 25  2  0  0  0
 25 26  1  0  0  0
 26 27  2  0  0  0
 27 28  1  0  0  0
 28 29  2  0  0  0
  5  1  2  0  0  0
 29 24  1  0  0  0
 11  6  1  0  0  0
 18 13  1  0  0  0
 22 23  1  0  0  0
 36 37  1  0  0  0
M  END
> <score>
-1.415622

> <minimizedAffinity>
-8.01301

$$$$
HIPS6128


 37 40  0  0  0  0  0  0  0  0999 V2000
   67.9139   79.5260   89.1933 C   0  0  0  0  0  0  0  0  0  0  0  0
   67.4288   79.4098   87.8716 C   0  0  0  0  0  0  0  0  0  0  0  0
   66.9876   80.6215   87.3435 C   0  0  0  0  0  0  0  0  0  0  0  0
   67.2020   81.8173   88.5037 S   0  0  0  0  0  0  0  0  0  0  0  0
   67.8635   80.8328   89.6941 C   0  0  0  0  0  0  0  0  0  0  0  0
   67.3678   78.1425   87.1069 C   0  0  0  0  0  0  0  0  0  0  0  0
   67.9846   78.0289   85.8489 C   0  0  0  0  0  0  0  0  0  0  0  0
   67.9260   76.8272   85.1386 C   0  0  0  0  0  0  0  0  0  0  0  0
   67.2735   75.7148   85.6797 C   0  0  0  0  0  0  0  0  0  0  0  0
   66.6469   75.8263   86.9327 C   0  0  0  0  0  0  0  0  0  0  0  0
   66.7032   77.0275   87.6440 C   0  0  0  0  0  0  0  0  0  0  0  0
   67.2304   74.5282   84.9340 O   0  0  0  0  0  0  0  0  0  0  0  0
   67.2735   73.2322   85.4681 C   0  0  0  0  0  0  0  0  0  0  0  0
   67.7017   72.1806   84.6481 C   0  0  0  0  0  0  0  0  0  0  0  0
   67.7820   70.8792   85.1522 C   0  0  0  0  0  0  0  0  0  0  0  0
   67.4507   70.6227   86.4872 C   0  0  0  0  0  0  0  0  0  0  0  0
   67.0388   71.6692   87.3178 C   0  0  0  0  0  0  0  0  0  0  0  0
   66.9523   72.9708   86.8140 C   0  0  0  0  0  0  0  0  0  0  0  0
   68.5205   76.8813   91.9044 N   0  0  0  0  0  0  0  0  0  0  0  0
   67.8994   77.9447   91.1419 C   0  0  0  0  0  0  0  0  0  0  0  0
   66.8111   78.4463   91.5432 O   0  0  0  0  0  0  0  0  0  0  0  0
   68.4765   78.4209   89.9124 N   0  0  0  0  0  0  0  0  0  0  0  0
   69.2790   77.9758   89.5558 H   0  0  0  0  0  0  0  0  0  0  0  0
   67.8024   76.3043   93.0146 C   0  0  0  0  0  0  0  0  0  0  0  0
   66.4269   76.0282   92.9087 C   0  0  0  0  0  0  0  0  0  0  0  0
   65.7370   75.4573   93.9844 C   0  0  0  0  0  0  0  0  0  0  0  0
   66.4145   75.1545   95.1698 C   0  0  0  0  0  0  0  0  0  0  0  0
   67.7821   75.4255   95.2836 C   0  0  0  0  0  0  0  0  0  0  0  0
   68.4746   75.9990   94.2110 C   0  0  0  0  0  0  0  0  0  0  0  0
   69.7976   76.2742   91.4865 C   0  0  0  0  0  0  0  0  0  0  0  0
   69.6686   74.7505   91.2736 C   0  0  0  0  0  0  0  0  0  0  0  0
   67.8704   73.0229   90.7041 C   0  0  0  0  0  0  0  0  0  0  0  0
   68.5272   74.3498   90.3220 C   0  0  0  0  0  0  0  0  0  0  0  0
   68.3878   81.3355   90.9755 C   0  0  0  0  0  0  0  0  0  0  0  0
   69.5552   81.7997   91.0571 O   0  0  0  0  0  0  0  0  0  0  0  0
   67.5736   81.3245   92.1038 O   0  0  0  0  0  0  0  0  0  0  0  0
   66.7037   80.9806   92.0505 H   0  0  0  0  0  0  0  0  0  0  0  0
 32 33  1  0  0  0
 33 31  1  0  0  0
 31 30  1  0  0  0
 30 19  1  0  0  0
 19 20  1  0  0  0
 20 21  2  0  0  0
 20 22  1  0  0  0
 22  1  1  0  0  0
  1  2  1  0  0  0
  2  6  1  0  0  0
  6  7  2  0  0  0
  7  8  1  0  0  0
  8  9  2  0  0  0
  9 12  1  0  0  0
 12 13  1  0  0  0
 13 14  2  0  0  0
 14 15  1  0  0  0
 15 16  2  0  0  0
 16 17  1  0  0  0
 17 18  2  0  0  0
  9 10  1  0  0  0
 10 11  2  0  0  0
  2  3  2  0  0  0
  3  4  1  0  0  0
  4  5  1  0  0  0
  5 34  1  0  0  0
 34 35  2  0  0  0
 34 36  1  0  0  0
 19 24  1  0  0  0
 24 25  2  0  0  0
 25 26  1  0  0  0
 26 27  2  0  0  0
 27 28  1  0  0  0
 28 29  2  0  0  0
  5  1  2  0  0  0
 29 24  1  0  0  0
 11  6  1  0  0  0
 18 13  1  0  0  0
 22 23  1  0  0  0
 36 37  1  0  0  0
M  END
> <score>
-1.415622

> <minimizedAffinity>
-7.80519

$$$$
HIPS6129


 32 34  0  0  0  0  0  0  0  0999 V2000
   67.3637   81.8442   89.9117 C   0  0  0  0  0  0  0  0  0  0  0  0
   68.0125   83.0937   89.7894 C   0  0  0  0  0  0  0  0  0  0  0  0
   67.4473   84.0877   90.5833 C   0  0  0  0  0  0  0  0  0  0  0  0
   66.1617   83.4185   91.4322 S   0  0  0  0  0  0  0  0  0  0  0  0
   66.2952   81.8603   90.8121 C   0  0  0  0  0  0  0  0  0  0  0  0
   69.2298   83.3253   88.9831 C   0  0  0  0  0  0  0  0  0  0  0  0
   70.4909   83.1885   89.5872 C   0  0  0  0  0  0  0  0  0  0  0  0
   71.6570   83.4265   88.8531 C   0  0  0  0  0  0  0  0  0  0  0  0
   73.2251   83.2886   89.6247 Cl  0  0  0  0  0  0  0  0  0  0  0  0
   71.5728   83.7883   87.5067 C   0  0  0  0  0  0  0  0  0  0  0  0
   70.3250   83.9157   86.8930 C   0  0  0  0  0  0  0  0  0  0  0  0
   69.1515   83.6910   87.6222 C   0  0  0  0  0  0  0  0  0  0  0  0
   67.6081   83.8207   86.7852 Cl  0  0  0  0  0  0  0  0  0  0  0  0
   68.4925   78.2534   89.2131 N   0  0  0  0  0  0  0  0  0  0  0  0
   68.3496   79.5345   89.8708 C   0  0  0  0  0  0  0  0  0  0  0  0
   68.7571   79.6686   91.0583 O   0  0  0  0  0  0  0  0  0  0  0  0
   67.7729   80.6679   89.1991 N   0  0  0  0  0  0  0  0  0  0  0  0
   67.6556   80.6358   88.2221 H   0  0  0  0  0  0  0  0  0  0  0  0
   68.8258   77.0937   90.0039 C   0  0  0  0  0  0  0  0  0  0  0  0
   68.0089   75.9500   89.9776 C   0  0  0  0  0  0  0  0  0  0  0  0
   68.3351   74.8320   90.7519 C   0  0  0  0  0  0  0  0  0  0  0  0
   69.4799   74.8438   91.5534 C   0  0  0  0  0  0  0  0  0  0  0  0
   70.3033   75.9725   91.5786 C   0  0  0  0  0  0  0  0  0  0  0  0
   69.9812   77.0913   90.8052 C   0  0  0  0  0  0  0  0  0  0  0  0
   68.2927   78.1005   87.7621 C   0  0  0  0  0  0  0  0  0  0  0  0
   66.8465   77.7019   87.4182 C   0  0  0  0  0  0  0  0  0  0  0  0
   67.9400   76.9494   85.2291 C   0  0  0  0  0  0  0  0  0  0  0  0
   66.7048   76.8808   86.1265 C   0  0  0  0  0  0  0  0  0  0  0  0
   65.3817   80.7537   91.1448 C   0  0  0  0  0  0  0  0  0  0  0  0
   64.2635   80.6720   90.5699 O   0  0  0  0  0  0  0  0  0  0  0  0
   65.7450   79.7857   92.0754 O   0  0  0  0  0  0  0  0  0  0  0  0
   66.5748   79.8391   92.5074 H   0  0  0  0  0  0  0  0  0  0  0  0
 27 28  1  0  0  0
 28 26  1  0  0  0
 26 25  1  0  0  0
 25 14  1  0  0  0
 14 15  1  0  0  0
 15 16  2  0  0  0
 15 17  1  0  0  0
 17  1  1  0  0  0
  1  2  1  0  0  0
  2  6  1  0  0  0
  6  7  2  0  0  0
  7  8  1  0  0  0
  8  9  1  0  0  0
  8 10  2  0  0  0
 10 11  1  0  0  0
 11 12  2  0  0  0
 12 13  1  0  0  0
  2  3  2  0  0  0
  3  4  1  0  0  0
  4  5  1  0  0  0
  5 29  1  0  0  0
 29 30  2  0  0  0
 29 31  1  0  0  0
 14 19  1  0  0  0
 19 20  2  0  0  0
 20 21  1  0  0  0
 21 22  2  0  0  0
 22 23  1  0  0  0
 23 24  2  0  0  0
  5  1  2  0  0  0
 24 19  1  0  0  0
 12  6  1  0  0  0
 17 18  1  0  0  0
 31 32  1  0  0  0
M  END
> <score>
-0.066475

> <minimizedAffinity>
-7.60824

$$$$
HIPS6129


 32 34  0  0  0  0  0  0  0  0999 V2000
   69.7341   78.6947   90.4713 C   0  0  0  0  0  0  0  0  0  0  0  0
   69.0408   79.9248   90.5296 C   0  0  0  0  0  0  0  0  0  0  0  0
   69.8737   81.0329   90.4029 C   0  0  0  0  0  0  0  0  0  0  0  0
   71.4515   80.4889   90.2132 S   0  0  0  0  0  0  0  0  0  0  0  0
   71.1114   78.8429   90.2877 C   0  0  0  0  0  0  0  0  0  0  0  0
   67.5703   80.0494   90.6169 C   0  0  0  0  0  0  0  0  0  0  0  0
   66.9258   79.7520   91.8295 C   0  0  0  0  0  0  0  0  0  0  0  0
   65.5338   79.8378   91.9309 C   0  0  0  0  0  0  0  0  0  0  0  0
   64.7354   79.4300   93.4375 Cl  0  0  0  0  0  0  0  0  0  0  0  0
   64.7765   80.2355   90.8268 C   0  0  0  0  0  0  0  0  0  0  0  0
   65.4075   80.5448   89.6202 C   0  0  0  0  0  0  0  0  0  0  0  0
   66.7993   80.4508   89.5050 C   0  0  0  0  0  0  0  0  0  0  0  0
   67.5446   80.8976   87.9738 Cl  0  0  0  0  0  0  0  0  0  0  0  0
   67.9572   75.6500   91.9643 N   0  0  0  0  0  0  0  0  0  0  0  0
   68.8531   76.7793   91.8364 C   0  0  0  0  0  0  0  0  0  0  0  0
   69.4597   77.2059   92.8583 O   0  0  0  0  0  0  0  0  0  0  0  0
   69.0874   77.4175   90.5690 N   0  0  0  0  0  0  0  0  0  0  0  0
   68.7958   76.9650   89.7448 H   0  0  0  0  0  0  0  0  0  0  0  0
   67.5556   75.2206   93.2817 C   0  0  0  0  0  0  0  0  0  0  0  0
   68.3600   74.3383   94.0238 C   0  0  0  0  0  0  0  0  0  0  0  0
   67.9607   73.9215   95.2976 C   0  0  0  0  0  0  0  0  0  0  0  0
   66.7601   74.3847   95.8428 C   0  0  0  0  0  0  0  0  0  0  0  0
   65.9586   75.2695   95.1168 C   0  0  0  0  0  0  0  0  0  0  0  0
   66.3549   75.6893   93.8437 C   0  0  0  0  0  0  0  0  0  0  0  0
   67.4344   74.9381   90.7859 C   0  0  0  0  0  0  0  0  0  0  0  0
   68.3055   73.7258   90.4115 C   0  0  0  0  0  0  0  0  0  0  0  0
   66.7318   73.2205   88.4565 C   0  0  0  0  0  0  0  0  0  0  0  0
   67.5750   72.6475   89.5951 C   0  0  0  0  0  0  0  0  0  0  0  0
   72.1308   77.7814   90.2270 C   0  0  0  0  0  0  0  0  0  0  0  0
   72.9590   77.7638   89.2776 O   0  0  0  0  0  0  0  0  0  0  0  0
   72.2020   76.8051   91.2155 O   0  0  0  0  0  0  0  0  0  0  0  0
   71.5899   76.8111   91.9249 H   0  0  0  0  0  0  0  0  0  0  0  0
 27 28  1  0  0  0
 28 26  1  0  0  0
 26 25  1  0  0  0
 25 14  1  0  0  0
 14 15  1  0  0  0
 15 16  2  0  0  0
 15 17  1  0  0  0
 17  1  1  0  0  0
  1  2  1  0  0  0
  2  6  1  0  0  0
  6  7  2  0  0  0
  7  8  1  0  0  0
  8  9  1  0  0  0
  8 10  2  0  0  0
 10 11  1  0  0  0
 11 12  2  0  0  0
 12 13  1  0  0  0
  2  3  2  0  0  0
  3  4  1  0  0  0
  4  5  1  0  0  0
  5 29  1  0  0  0
 29 30  2  0  0  0
 29 31  1  0  0  0
 14 19  1  0  0  0
 19 20  2  0  0  0
 20 21  1  0  0  0
 21 22  2  0  0  0
 22 23  1  0  0  0
 23 24  2  0  0  0
  5  1  2  0  0  0
 24 19  1  0  0  0
 12  6  1  0  0  0
 17 18  1  0  0  0
 31 32  1  0  0  0
M  END
> <score>
-0.066475

> <minimizedAffinity>
-7.36036

$$$$
HIPS6129


 32 34  0  0  0  0  0  0  0  0999 V2000
   66.9546   79.3708   90.9876 C   0  0  0  0  0  0  0  0  0  0  0  0
   66.2191   79.2033   89.7926 C   0  0  0  0  0  0  0  0  0  0  0  0
   65.0882   80.0120   89.7240 C   0  0  0  0  0  0  0  0  0  0  0  0
   65.0086   80.9291   91.1290 S   0  0  0  0  0  0  0  0  0  0  0  0
   66.4018   80.3212   91.8500 C   0  0  0  0  0  0  0  0  0  0  0  0
   66.6384   78.3370   88.6704 C   0  0  0  0  0  0  0  0  0  0  0  0
   66.4841   76.9449   88.7817 C   0  0  0  0  0  0  0  0  0  0  0  0
   66.8958   76.1019   87.7448 C   0  0  0  0  0  0  0  0  0  0  0  0
   66.7325   74.3640   87.9073 Cl  0  0  0  0  0  0  0  0  0  0  0  0
   67.4509   76.6437   86.5832 C   0  0  0  0  0  0  0  0  0  0  0  0
   67.5980   78.0265   86.4570 C   0  0  0  0  0  0  0  0  0  0  0  0
   67.1998   78.8781   87.4940 C   0  0  0  0  0  0  0  0  0  0  0  0
   67.3661   80.6152   87.2612 Cl  0  0  0  0  0  0  0  0  0  0  0  0
   69.3450   76.4752   91.7344 N   0  0  0  0  0  0  0  0  0  0  0  0
   68.1447   77.2835   91.7191 C   0  0  0  0  0  0  0  0  0  0  0  0
   67.0567   76.7821   92.1180 O   0  0  0  0  0  0  0  0  0  0  0  0
   68.1621   78.6529   91.2799 N   0  0  0  0  0  0  0  0  0  0  0  0
   69.0275   79.1108   91.1768 H   0  0  0  0  0  0  0  0  0  0  0  0
   69.2271   75.0503   91.9269 C   0  0  0  0  0  0  0  0  0  0  0  0
   69.4325   74.4793   93.1949 C   0  0  0  0  0  0  0  0  0  0  0  0
   69.3228   73.0965   93.3722 C   0  0  0  0  0  0  0  0  0  0  0  0
   69.0028   72.2737   92.2888 C   0  0  0  0  0  0  0  0  0  0  0  0
   68.7873   72.8330   91.0266 C   0  0  0  0  0  0  0  0  0  0  0  0
   68.8949   74.2149   90.8457 C   0  0  0  0  0  0  0  0  0  0  0  0
   70.6802   77.0666   91.5446 C   0  0  0  0  0  0  0  0  0  0  0  0
   70.7984   77.8029   90.1982 C   0  0  0  0  0  0  0  0  0  0  0  0
   70.9308   80.3590   90.1489 C   0  0  0  0  0  0  0  0  0  0  0  0
   71.7049   79.0439   90.2311 C   0  0  0  0  0  0  0  0  0  0  0  0
   66.8812   80.7099   93.1875 C   0  0  0  0  0  0  0  0  0  0  0  0
   66.8090   79.8887   94.1404 O   0  0  0  0  0  0  0  0  0  0  0  0
   67.4296   81.9690   93.4093 O   0  0  0  0  0  0  0  0  0  0  0  0
   67.4870   82.5855   92.7060 H   0  0  0  0  0  0  0  0  0  0  0  0
 27 28  1  0  0  0
 28 26  1  0  0  0
 26 25  1  0  0  0
 25 14  1  0  0  0
 14 15  1  0  0  0
 15 16  2  0  0  0
 15 17  1  0  0  0
 17  1  1  0  0  0
  1  2  1  0  0  0
  2  6  1  0  0  0
  6  7  2  0  0  0
  7  8  1  0  0  0
  8  9  1  0  0  0
  8 10  2  0  0  0
 10 11  1  0  0  0
 11 12  2  0  0  0
 12 13  1  0  0  0
  2  3  2  0  0  0
  3  4  1  0  0  0
  4  5  1  0  0  0
  5 29  1  0  0  0
 29 30  2  0  0  0
 29 31  1  0  0  0
 14 19  1  0  0  0
 19 20  2  0  0  0
 20 21  1  0  0  0
 21 22  2  0  0  0
 22 23  1  0  0  0
 23 24  2  0  0  0
  5  1  2  0  0  0
 24 19  1  0  0  0
 12  6  1  0  0  0
 17 18  1  0  0  0
 31 32  1  0  0  0
M  END
> <score>
-0.066475

> <minimizedAffinity>
-7.18420

$$$$
HIPS6134


 35 38  0  0  0  0  0  0  0  0999 V2000
   68.4245   79.7689   89.6730 C   0  0  0  0  0  0  0  0  0  0  0  0
   67.5761   80.0749   88.5983 C   0  0  0  0  0  0  0  0  0  0  0  0
   66.9259   79.0542   87.9023 C   0  0  0  0  0  0  0  0  0  0  0  0
   67.1056   77.7221   88.2799 C   0  0  0  0  0  0  0  0  0  0  0  0
   67.9408   77.3938   89.3640 C   0  0  0  0  0  0  0  0  0  0  0  0
   68.5948   78.4292   90.0576 C   0  0  0  0  0  0  0  0  0  0  0  0
   68.1173   75.9774   89.7772 C   0  0  0  0  0  0  0  0  0  0  0  0
   68.9287   75.6504   90.8790 C   0  0  0  0  0  0  0  0  0  0  0  0
   69.0762   74.3198   91.2762 C   0  0  0  0  0  0  0  0  0  0  0  0
   68.4117   73.3014   90.5895 C   0  0  0  0  0  0  0  0  0  0  0  0
   67.5918   73.6083   89.4888 C   0  0  0  0  0  0  0  0  0  0  0  0
   67.4616   74.9420   89.0832 C   0  0  0  0  0  0  0  0  0  0  0  0
   66.8923   72.6248   88.7712 O   0  0  0  0  0  0  0  0  0  0  0  0
   66.4332   72.7608   87.4253 C   0  0  0  0  0  0  0  0  0  0  0  0
   66.9523   71.6297   86.5781 C   0  0  0  0  0  0  0  0  0  0  0  0
   66.5820   71.5114   85.2293 C   0  0  0  0  0  0  0  0  0  0  0  0
   67.0955   70.4720   84.4473 C   0  0  0  0  0  0  0  0  0  0  0  0
   67.9748   69.5413   85.0056 C   0  0  0  0  0  0  0  0  0  0  0  0
   68.3400   69.6460   86.3499 C   0  0  0  0  0  0  0  0  0  0  0  0
   69.4436   68.4781   87.0499 Cl  0  0  0  0  0  0  0  0  0  0  0  0
   67.8290   70.6860   87.1349 C   0  0  0  0  0  0  0  0  0  0  0  0
   69.1144   80.8686   90.4372 C   0  0  0  0  0  0  0  0  0  0  0  0
   70.4492   81.0617   89.9669 O   0  0  0  0  0  0  0  0  0  0  0  0
   70.7165   84.2685   88.0430 C   0  0  0  0  0  0  0  0  0  0  0  0
   70.1757   83.0884   88.5866 C   0  0  0  0  0  0  0  0  0  0  0  0
   70.9508   82.2468   89.4052 C   0  0  0  0  0  0  0  0  0  0  0  0
   72.2739   82.5961   89.6811 C   0  0  0  0  0  0  0  0  0  0  0  0
   72.8244   83.7635   89.1533 C   0  0  0  0  0  0  0  0  0  0  0  0
   72.0579   84.6031   88.3340 C   0  0  0  0  0  0  0  0  0  0  0  0
   72.6359   85.7584   87.8067 O   0  0  0  0  0  0  0  0  0  0  0  0
   73.5265   85.9699   88.0067 H   0  0  0  0  0  0  0  0  0  0  0  0
   68.8156   85.6529   87.6250 O   0  0  0  0  0  0  0  0  0  0  0  0
   69.8660   85.1223   87.1741 C   0  0  0  0  0  0  0  0  0  0  0  0
   70.2258   85.3464   85.8458 O   0  0  0  0  0  0  0  0  0  0  0  0
   71.0045   84.9572   85.4993 H   0  0  0  0  0  0  0  0  0  0  0  0
 32 33  2  0  0  0
 33 34  1  0  0  0
 33 24  1  0  0  0
 24 25  2  0  0  0
 25 26  1  0  0  0
 26 23  1  0  0  0
 23 22  1  0  0  0
 22  1  1  0  0  0
  1  2  2  0  0  0
  2  3  1  0  0  0
  3  4  2  0  0  0
  4  5  1  0  0  0
  5  7  1  0  0  0
  7  8  2  0  0  0
  8  9  1  0  0  0
  9 10  2  0  0  0
 10 11  1  0  0  0
 11 13  1  0  0  0
 13 14  1  0  0  0
 14 15  1  0  0  0
 15 16  2  0  0  0
 16 17  1  0  0  0
 17 18  2  0  0  0
 18 19  1  0  0  0
 19 20  1  0  0  0
 19 21  2  0  0  0
 11 12  2  0  0  0
  5  6  2  0  0  0
 26 27  2  0  0  0
 27 28  1  0  0  0
 28 29  2  0  0  0
 29 30  1  0  0  0
 29 24  1  0  0  0
  6  1  1  0  0  0
 12  7  1  0  0  0
 21 15  1  0  0  0
 34 35  1  0  0  0
 30 31  1  0  0  0
M  END
> <score>
-0.222359

> <minimizedAffinity>
-9.88049

$$$$
HIPS6134


 35 38  0  0  0  0  0  0  0  0999 V2000
   69.0487   73.5534   91.1104 C   0  0  0  0  0  0  0  0  0  0  0  0
   68.2469   72.5826   90.4914 C   0  0  0  0  0  0  0  0  0  0  0  0
   67.3304   72.9515   89.5050 C   0  0  0  0  0  0  0  0  0  0  0  0
   67.2149   74.2882   89.1186 C   0  0  0  0  0  0  0  0  0  0  0  0
   68.0195   75.2761   89.7163 C   0  0  0  0  0  0  0  0  0  0  0  0
   68.9383   74.8954   90.7121 C   0  0  0  0  0  0  0  0  0  0  0  0
   67.9094   76.6959   89.2917 C   0  0  0  0  0  0  0  0  0  0  0  0
   66.8837   77.1033   88.4193 C   0  0  0  0  0  0  0  0  0  0  0  0
   66.7719   78.4421   88.0383 C   0  0  0  0  0  0  0  0  0  0  0  0
   67.6715   79.3916   88.5275 C   0  0  0  0  0  0  0  0  0  0  0  0
   68.7006   79.0053   89.4048 C   0  0  0  0  0  0  0  0  0  0  0  0
   68.8195   77.6588   89.7694 C   0  0  0  0  0  0  0  0  0  0  0  0
   69.6238   79.9208   89.9350 O   0  0  0  0  0  0  0  0  0  0  0  0
   69.3458   81.2909   90.2283 C   0  0  0  0  0  0  0  0  0  0  0  0
   70.4663   82.1691   89.7386 C   0  0  0  0  0  0  0  0  0  0  0  0
   71.7511   82.0754   90.2963 C   0  0  0  0  0  0  0  0  0  0  0  0
   72.7889   82.8774   89.8110 C   0  0  0  0  0  0  0  0  0  0  0  0
   72.5515   83.7812   88.7728 C   0  0  0  0  0  0  0  0  0  0  0  0
   71.2732   83.8879   88.2195 C   0  0  0  0  0  0  0  0  0  0  0  0
   70.9759   85.0219   86.9166 Cl  0  0  0  0  0  0  0  0  0  0  0  0
   70.2328   83.0856   88.7020 C   0  0  0  0  0  0  0  0  0  0  0  0
   70.0506   73.1569   92.1630 C   0  0  0  0  0  0  0  0  0  0  0  0
   69.9849   74.0316   93.2903 O   0  0  0  0  0  0  0  0  0  0  0  0
   66.9285   76.0320   94.1348 C   0  0  0  0  0  0  0  0  0  0  0  0
   68.1088   75.6218   93.4872 C   0  0  0  0  0  0  0  0  0  0  0  0
   68.8049   74.4744   93.9092 C   0  0  0  0  0  0  0  0  0  0  0  0
   68.3094   73.7346   94.9844 C   0  0  0  0  0  0  0  0  0  0  0  0
   67.1395   74.1252   95.6351 C   0  0  0  0  0  0  0  0  0  0  0  0
   66.4445   75.2696   95.2214 C   0  0  0  0  0  0  0  0  0  0  0  0
   65.2841   75.6474   95.8976 O   0  0  0  0  0  0  0  0  0  0  0  0
   64.9728   75.1338   96.6169 H   0  0  0  0  0  0  0  0  0  0  0  0
   65.3459   77.8049   94.3732 O   0  0  0  0  0  0  0  0  0  0  0  0
   66.2314   77.2566   93.6638 C   0  0  0  0  0  0  0  0  0  0  0  0
   66.5541   77.8134   92.4269 O   0  0  0  0  0  0  0  0  0  0  0  0
   67.2108   77.4146   91.8906 H   0  0  0  0  0  0  0  0  0  0  0  0
 32 33  2  0  0  0
 33 34  1  0  0  0
 33 24  1  0  0  0
 24 25  2  0  0  0
 25 26  1  0  0  0
 26 23  1  0  0  0
 23 22  1  0  0  0
 22  1  1  0  0  0
  1  2  2  0  0  0
  2  3  1  0  0  0
  3  4  2  0  0  0
  4  5  1  0  0  0
  5  7  1  0  0  0
  7  8  2  0  0  0
  8  9  1  0  0  0
  9 10  2  0  0  0
 10 11  1  0  0  0
 11 13  1  0  0  0
 13 14  1  0  0  0
 14 15  1  0  0  0
 15 16  2  0  0  0
 16 17  1  0  0  0
 17 18  2  0  0  0
 18 19  1  0  0  0
 19 20  1  0  0  0
 19 21  2  0  0  0
 11 12  2  0  0  0
  5  6  2  0  0  0
 26 27  2  0  0  0
 27 28  1  0  0  0
 28 29  2  0  0  0
 29 30  1  0  0  0
 29 24  1  0  0  0
  6  1  1  0  0  0
 12  7  1  0  0  0
 21 15  1  0  0  0
 34 35  1  0  0  0
 30 31  1  0  0  0
M  END
> <score>
-0.222359

> <minimizedAffinity>
-9.68177

$$$$
HIPS6134


 35 38  0  0  0  0  0  0  0  0999 V2000
   70.1752   78.4390   90.6772 C   0  0  0  0  0  0  0  0  0  0  0  0
   68.7742   78.4936   90.6252 C   0  0  0  0  0  0  0  0  0  0  0  0
   68.1298   79.6701   90.2385 C   0  0  0  0  0  0  0  0  0  0  0  0
   68.8761   80.7968   89.8881 C   0  0  0  0  0  0  0  0  0  0  0  0
   70.2826   80.7595   89.9195 C   0  0  0  0  0  0  0  0  0  0  0  0
   70.9236   79.5702   90.3138 C   0  0  0  0  0  0  0  0  0  0  0  0
   71.0769   81.9531   89.5288 C   0  0  0  0  0  0  0  0  0  0  0  0
   72.3542   82.1717   90.0763 C   0  0  0  0  0  0  0  0  0  0  0  0
   73.1057   83.2842   89.6917 C   0  0  0  0  0  0  0  0  0  0  0  0
   72.6004   84.1854   88.7522 C   0  0  0  0  0  0  0  0  0  0  0  0
   71.3278   83.9816   88.1893 C   0  0  0  0  0  0  0  0  0  0  0  0
   70.5708   82.8746   88.5917 C   0  0  0  0  0  0  0  0  0  0  0  0
   70.7777   84.8497   87.2325 O   0  0  0  0  0  0  0  0  0  0  0  0
   69.4990   85.4783   87.3328 C   0  0  0  0  0  0  0  0  0  0  0  0
   69.4584   86.3955   88.5260 C   0  0  0  0  0  0  0  0  0  0  0  0
   70.0476   87.6686   88.4761 C   0  0  0  0  0  0  0  0  0  0  0  0
   69.9763   88.5206   89.5828 C   0  0  0  0  0  0  0  0  0  0  0  0
   69.3241   88.1072   90.7467 C   0  0  0  0  0  0  0  0  0  0  0  0
   68.7443   86.8377   90.8079 C   0  0  0  0  0  0  0  0  0  0  0  0
   67.9257   86.3196   92.2685 Cl  0  0  0  0  0  0  0  0  0  0  0  0
   68.8125   85.9832   89.7016 C   0  0  0  0  0  0  0  0  0  0  0  0
   70.8745   77.1663   91.0776 C   0  0  0  0  0  0  0  0  0  0  0  0
   70.2754   76.5952   92.2417 O   0  0  0  0  0  0  0  0  0  0  0  0
   67.7121   74.0875   93.3358 C   0  0  0  0  0  0  0  0  0  0  0  0
   68.5977   75.1807   93.3695 C   0  0  0  0  0  0  0  0  0  0  0  0
   69.3807   75.5130   92.2490 C   0  0  0  0  0  0  0  0  0  0  0  0
   69.2693   74.7447   91.0888 C   0  0  0  0  0  0  0  0  0  0  0  0
   68.3943   73.6601   91.0374 C   0  0  0  0  0  0  0  0  0  0  0  0
   67.6151   73.3224   92.1520 C   0  0  0  0  0  0  0  0  0  0  0  0
   66.7575   72.2243   92.0801 O   0  0  0  0  0  0  0  0  0  0  0  0
   66.7017   71.7244   91.2896 H   0  0  0  0  0  0  0  0  0  0  0  0
   67.4799   73.5134   95.6426 O   0  0  0  0  0  0  0  0  0  0  0  0
   66.9125   73.7649   94.5458 C   0  0  0  0  0  0  0  0  0  0  0  0
   65.5201   73.7392   94.4780 O   0  0  0  0  0  0  0  0  0  0  0  0
   65.0870   73.9245   93.6680 H   0  0  0  0  0  0  0  0  0  0  0  0
 32 33  2  0  0  0
 33 34  1  0  0  0
 33 24  1  0  0  0
 24 25  2  0  0  0
 25 26  1  0  0  0
 26 23  1  0  0  0
 23 22  1  0  0  0
 22  1  1  0  0  0
  1  2  2  0  0  0
  2  3  1  0  0  0
  3  4  2  0  0  0
  4  5  1  0  0  0
  5  7  1  0  0  0
  7  8  2  0  0  0
  8  9  1  0  0  0
  9 10  2  0  0  0
 10 11  1  0  0  0
 11 13  1  0  0  0
 13 14  1  0  0  0
 14 15  1  0  0  0
 15 16  2  0  0  0
 16 17  1  0  0  0
 17 18  2  0  0  0
 18 19  1  0  0  0
 19 20  1  0  0  0
 19 21  2  0  0  0
 11 12  2  0  0  0
  5  6  2  0  0  0
 26 27  2  0  0  0
 27 28  1  0  0  0
 28 29  2  0  0  0
 29 30  1  0  0  0
 29 24  1  0  0  0
  6  1  1  0  0  0
 12  7  1  0  0  0
 21 15  1  0  0  0
 34 35  1  0  0  0
 30 31  1  0  0  0
M  END
> <score>
-0.222359

> <minimizedAffinity>
-9.60648

$$$$
HIPS6135


 40 43  0  0  0  0  0  0  0  0999 V2000
   69.6580   73.5500   93.5424 C   0  0  0  0  0  0  0  0  0  0  0  0
   69.7117   74.4914   92.5103 C   0  0  0  0  0  0  0  0  0  0  0  0
   68.6465   75.3795   92.2861 C   0  0  0  0  0  0  0  0  0  0  0  0
   67.5214   75.3219   93.1263 C   0  0  0  0  0  0  0  0  0  0  0  0
   67.4654   74.4079   94.1913 C   0  0  0  0  0  0  0  0  0  0  0  0
   68.5287   73.5103   94.3803 C   0  0  0  0  0  0  0  0  0  0  0  0
   68.7058   76.3608   91.1730 C   0  0  0  0  0  0  0  0  0  0  0  0
   67.8540   76.2327   90.0612 C   0  0  0  0  0  0  0  0  0  0  0  0
   67.9089   77.1590   89.0173 C   0  0  0  0  0  0  0  0  0  0  0  0
   68.8155   78.2195   89.0656 C   0  0  0  0  0  0  0  0  0  0  0  0
   69.6835   78.3572   90.1590 C   0  0  0  0  0  0  0  0  0  0  0  0
   69.6158   77.4334   91.2144 C   0  0  0  0  0  0  0  0  0  0  0  0
   70.6621   79.5006   90.2186 C   0  0  0  0  0  0  0  0  0  0  0  0
   70.0006   80.7478   90.0027 O   0  0  0  0  0  0  0  0  0  0  0  0
   70.6105   81.9172   89.5194 C   0  0  0  0  0  0  0  0  0  0  0  0
   71.9094   82.3032   89.8903 C   0  0  0  0  0  0  0  0  0  0  0  0
   72.4596   83.4853   89.3935 C   0  0  0  0  0  0  0  0  0  0  0  0
   71.7317   84.3022   88.5220 C   0  0  0  0  0  0  0  0  0  0  0  0
   72.3097   85.5106   88.1271 O   0  0  0  0  0  0  0  0  0  0  0  0
   70.4394   83.9021   88.1033 C   0  0  0  0  0  0  0  0  0  0  0  0
   69.8894   82.7179   88.6276 C   0  0  0  0  0  0  0  0  0  0  0  0
   73.1678   85.7392   88.4261 H   0  0  0  0  0  0  0  0  0  0  0  0
   69.6580   84.6654   87.1059 C   0  0  0  0  0  0  0  0  0  0  0  0
   68.4148   84.8110   87.2568 O   0  0  0  0  0  0  0  0  0  0  0  0
   70.2713   85.1771   85.9661 O   0  0  0  0  0  0  0  0  0  0  0  0
   71.1947   85.0741   85.8446 H   0  0  0  0  0  0  0  0  0  0  0  0
   66.2337   74.3194   95.0584 C   0  0  0  0  0  0  0  0  0  0  0  0
   66.4952   73.4953   96.1369 F   0  0  0  0  0  0  0  0  0  0  0  0
   65.8743   75.5722   95.5248 F   0  0  0  0  0  0  0  0  0  0  0  0
   65.1661   73.8028   94.3445 F   0  0  0  0  0  0  0  0  0  0  0  0
   70.7469   72.6759   93.6968 O   0  0  0  0  0  0  0  0  0  0  0  0
   70.6516   71.2706   93.9333 C   0  0  0  0  0  0  0  0  0  0  0  0
   73.5183   69.1092   91.5246 C   0  0  0  0  0  0  0  0  0  0  0  0
   72.1457   68.8968   91.3516 C   0  0  0  0  0  0  0  0  0  0  0  0
   71.2152   69.5908   92.1300 C   0  0  0  0  0  0  0  0  0  0  0  0
   71.6473   70.5187   93.0900 C   0  0  0  0  0  0  0  0  0  0  0  0
   73.0228   70.7256   93.2745 C   0  0  0  0  0  0  0  0  0  0  0  0
   73.9532   70.0305   92.4965 C   0  0  0  0  0  0  0  0  0  0  0  0
   75.8147   68.6246   90.6633 C   0  0  0  0  0  0  0  0  0  0  0  0
   74.4113   68.3892   90.7173 O   0  0  0  0  0  0  0  0  0  0  0  0
 39 40  1  0  0  0
 40 33  1  0  0  0
 33 34  2  0  0  0
 34 35  1  0  0  0
 35 36  2  0  0  0
 36 32  1  0  0  0
 32 31  1  0  0  0
 31  1  1  0  0  0
  1  2  2  0  0  0
  2  3  1  0  0  0
  3  7  1  0  0  0
  7  8  2  0  0  0
  8  9  1  0  0  0
  9 10  2  0  0  0
 10 11  1  0  0  0
 11 13  1  0  0  0
 13 14  1  0  0  0
 14 15  1  0  0  0
 15 16  2  0  0  0
 16 17  1  0  0  0
 17 18  2  0  0  0
 18 19  1  0  0  0
 18 20  1  0  0  0
 20 23  1  0  0  0
 23 24  2  0  0  0
 23 25  1  0  0  0
 20 21  2  0  0  0
 11 12  2  0  0  0
  3  4  2  0  0  0
  4  5  1  0  0  0
  5 27  1  0  0  0
 27 28  1  0  0  0
 27 29  1  0  0  0
 27 30  1  0  0  0
  5  6  2  0  0  0
 36 37  1  0  0  0
 37 38  2  0  0  0
 38 33  1  0  0  0
  6  1  1  0  0  0
 12  7  1  0  0  0
 21 15  1  0  0  0
 19 22  1  0  0  0
 25 26  1  0  0  0
M  END
> <score>
-0.30878

> <minimizedAffinity>
-9.72654

$$$$
HIPS6135


 40 43  0  0  0  0  0  0  0  0999 V2000
   69.1589   82.8808   89.3567 C   0  0  0  0  0  0  0  0  0  0  0  0
   69.1971   81.5382   89.7446 C   0  0  0  0  0  0  0  0  0  0  0  0
   70.4212   80.8749   89.9326 C   0  0  0  0  0  0  0  0  0  0  0  0
   71.6188   81.5844   89.7393 C   0  0  0  0  0  0  0  0  0  0  0  0
   71.6002   82.9436   89.3857 C   0  0  0  0  0  0  0  0  0  0  0  0
   70.3661   83.5799   89.1754 C   0  0  0  0  0  0  0  0  0  0  0  0
   70.4491   79.4424   90.3237 C   0  0  0  0  0  0  0  0  0  0  0  0
   71.6700   78.7998   90.5965 C   0  0  0  0  0  0  0  0  0  0  0  0
   71.6934   77.4536   90.9678 C   0  0  0  0  0  0  0  0  0  0  0  0
   70.5032   76.7309   91.0666 C   0  0  0  0  0  0  0  0  0  0  0  0
   69.2760   77.3495   90.7852 C   0  0  0  0  0  0  0  0  0  0  0  0
   69.2537   78.7071   90.4269 C   0  0  0  0  0  0  0  0  0  0  0  0
   67.9879   76.5762   90.8924 C   0  0  0  0  0  0  0  0  0  0  0  0
   67.3582   76.8097   92.1529 O   0  0  0  0  0  0  0  0  0  0  0  0
   67.2004   75.8546   93.1707 C   0  0  0  0  0  0  0  0  0  0  0  0
   65.9693   75.6203   93.8058 C   0  0  0  0  0  0  0  0  0  0  0  0
   65.8738   74.6713   94.8242 C   0  0  0  0  0  0  0  0  0  0  0  0
   66.9959   73.9403   95.2283 C   0  0  0  0  0  0  0  0  0  0  0  0
   66.8490   73.0658   96.3072 O   0  0  0  0  0  0  0  0  0  0  0  0
   68.2324   74.1330   94.5655 C   0  0  0  0  0  0  0  0  0  0  0  0
   68.3188   75.1071   93.5540 C   0  0  0  0  0  0  0  0  0  0  0  0
   66.0134   72.9662   96.7191 H   0  0  0  0  0  0  0  0  0  0  0  0
   69.4309   73.3222   94.8728 C   0  0  0  0  0  0  0  0  0  0  0  0
   69.5281   72.7381   95.9858 O   0  0  0  0  0  0  0  0  0  0  0  0
   70.4848   73.2440   93.9670 O   0  0  0  0  0  0  0  0  0  0  0  0
   70.4223   73.6746   93.1372 H   0  0  0  0  0  0  0  0  0  0  0  0
   72.8898   83.6850   89.1326 C   0  0  0  0  0  0  0  0  0  0  0  0
   73.3401   83.3921   87.8590 F   0  0  0  0  0  0  0  0  0  0  0  0
   72.6960   85.0514   89.2393 F   0  0  0  0  0  0  0  0  0  0  0  0
   73.8581   83.3142   90.0497 F   0  0  0  0  0  0  0  0  0  0  0  0
   67.9018   83.4771   89.1629 O   0  0  0  0  0  0  0  0  0  0  0  0
   66.9790   83.8157   90.1991 C   0  0  0  0  0  0  0  0  0  0  0  0
   66.4258   80.4801   92.8933 C   0  0  0  0  0  0  0  0  0  0  0  0
   67.2705   81.5399   93.2434 C   0  0  0  0  0  0  0  0  0  0  0  0
   67.4549   82.6189   92.3744 C   0  0  0  0  0  0  0  0  0  0  0  0
   66.7858   82.6571   91.1416 C   0  0  0  0  0  0  0  0  0  0  0  0
   65.9475   81.5910   90.7820 C   0  0  0  0  0  0  0  0  0  0  0  0
   65.7641   80.5113   91.6509 C   0  0  0  0  0  0  0  0  0  0  0  0
   65.0169   78.9052   94.2292 C   0  0  0  0  0  0  0  0  0  0  0  0
   66.2730   79.4216   93.8009 O   0  0  0  0  0  0  0  0  0  0  0  0
 39 40  1  0  0  0
 40 33  1  0  0  0
 33 34  2  0  0  0
 34 35  1  0  0  0
 35 36  2  0  0  0
 36 32  1  0  0  0
 32 31  1  0  0  0
 31  1  1  0  0  0
  1  2  2  0  0  0
  2  3  1  0  0  0
  3  7  1  0  0  0
  7  8  2  0  0  0
  8  9  1  0  0  0
  9 10  2  0  0  0
 10 11  1  0  0  0
 11 13  1  0  0  0
 13 14  1  0  0  0
 14 15  1  0  0  0
 15 16  2  0  0  0
 16 17  1  0  0  0
 17 18  2  0  0  0
 18 19  1  0  0  0
 18 20  1  0  0  0
 20 23  1  0  0  0
 23 24  2  0  0  0
 23 25  1  0  0  0
 20 21  2  0  0  0
 11 12  2  0  0  0
  3  4  2  0  0  0
  4  5  1  0  0  0
  5 27  1  0  0  0
 27 28  1  0  0  0
 27 29  1  0  0  0
 27 30  1  0  0  0
  5  6  2  0  0  0
 36 37  1  0  0  0
 37 38  2  0  0  0
 38 33  1  0  0  0
  6  1  1  0  0  0
 12  7  1  0  0  0
 21 15  1  0  0  0
 19 22  1  0  0  0
 25 26  1  0  0  0
M  END
> <score>
-0.30878

> <minimizedAffinity>
-9.38820

$$$$
HIPS6135


 40 43  0  0  0  0  0  0  0  0999 V2000
   69.9962   72.7519   93.3942 C   0  0  0  0  0  0  0  0  0  0  0  0
   69.2371   73.3668   92.3942 C   0  0  0  0  0  0  0  0  0  0  0  0
   68.9027   72.6797   91.2153 C   0  0  0  0  0  0  0  0  0  0  0  0
   69.3304   71.3506   91.0551 C   0  0  0  0  0  0  0  0  0  0  0  0
   70.0621   70.7042   92.0648 C   0  0  0  0  0  0  0  0  0  0  0  0
   70.4097   71.4182   93.2230 C   0  0  0  0  0  0  0  0  0  0  0  0
   68.1141   73.3507   90.1506 C   0  0  0  0  0  0  0  0  0  0  0  0
   67.3762   72.5935   89.2232 C   0  0  0  0  0  0  0  0  0  0  0  0
   66.6322   73.2269   88.2251 C   0  0  0  0  0  0  0  0  0  0  0  0
   66.6186   74.6199   88.1357 C   0  0  0  0  0  0  0  0  0  0  0  0
   67.3590   75.3930   89.0423 C   0  0  0  0  0  0  0  0  0  0  0  0
   68.0939   74.7544   90.0543 C   0  0  0  0  0  0  0  0  0  0  0  0
   67.3465   76.8965   88.9530 C   0  0  0  0  0  0  0  0  0  0  0  0
   67.9311   77.4798   90.1183 O   0  0  0  0  0  0  0  0  0  0  0  0
   68.9287   78.4687   90.1176 C   0  0  0  0  0  0  0  0  0  0  0  0
   70.2987   78.1630   90.1769 C   0  0  0  0  0  0  0  0  0  0  0  0
   71.2467   79.1867   90.1918 C   0  0  0  0  0  0  0  0  0  0  0  0
   70.8519   80.5279   90.1476 C   0  0  0  0  0  0  0  0  0  0  0  0
   71.8467   81.5029   90.2478 O   0  0  0  0  0  0  0  0  0  0  0  0
   69.4769   80.8495   90.0408 C   0  0  0  0  0  0  0  0  0  0  0  0
   68.5311   79.8078   90.0469 C   0  0  0  0  0  0  0  0  0  0  0  0
   72.7461   81.2492   90.3168 H   0  0  0  0  0  0  0  0  0  0  0  0
   68.9980   82.2405   89.8870 C   0  0  0  0  0  0  0  0  0  0  0  0
   67.9785   82.6295   90.5185 O   0  0  0  0  0  0  0  0  0  0  0  0
   69.6272   83.1129   89.0037 O   0  0  0  0  0  0  0  0  0  0  0  0
   70.3856   82.8334   88.5296 H   0  0  0  0  0  0  0  0  0  0  0  0
   70.5591   69.2936   91.8645 C   0  0  0  0  0  0  0  0  0  0  0  0
   71.5032   69.0027   92.8313 F   0  0  0  0  0  0  0  0  0  0  0  0
   69.5158   68.3896   91.9665 F   0  0  0  0  0  0  0  0  0  0  0  0
   71.1346   69.1481   90.6139 F   0  0  0  0  0  0  0  0  0  0  0  0
   70.3157   73.5031   94.5374 O   0  0  0  0  0  0  0  0  0  0  0  0
   69.3713   74.0353   95.4673 C   0  0  0  0  0  0  0  0  0  0  0  0
   66.9355   77.0917   93.6189 C   0  0  0  0  0  0  0  0  0  0  0  0
   68.3247   77.2444   93.6957 C   0  0  0  0  0  0  0  0  0  0  0  0
   69.1161   76.2605   94.2950 C   0  0  0  0  0  0  0  0  0  0  0  0
   68.5262   75.1003   94.8195 C   0  0  0  0  0  0  0  0  0  0  0  0
   67.1328   74.9491   94.7550 C   0  0  0  0  0  0  0  0  0  0  0  0
   66.3415   75.9339   94.1565 C   0  0  0  0  0  0  0  0  0  0  0  0
   65.3682   79.0374   93.7081 C   0  0  0  0  0  0  0  0  0  0  0  0
   66.1862   78.1068   93.0060 O   0  0  0  0  0  0  0  0  0  0  0  0
 39 40  1  0  0  0
 40 33  1  0  0  0
 33 34  2  0  0  0
 34 35  1  0  0  0
 35 36  2  0  0  0
 36 32  1  0  0  0
 32 31  1  0  0  0
 31  1  1  0  0  0
  1  2  2  0  0  0
  2  3  1  0  0  0
  3  7  1  0  0  0
  7  8  2  0  0  0
  8  9  1  0  0  0
  9 10  2  0  0  0
 10 11  1  0  0  0
 11 13  1  0  0  0
 13 14  1  0  0  0
 14 15  1  0  0  0
 15 16  2  0  0  0
 16 17  1  0  0  0
 17 18  2  0  0  0
 18 19  1  0  0  0
 18 20  1  0  0  0
 20 23  1  0  0  0
 23 24  2  0  0  0
 23 25  1  0  0  0
 20 21  2  0  0  0
 11 12  2  0  0  0
  3  4  2  0  0  0
  4  5  1  0  0  0
  5 27  1  0  0  0
 27 28  1  0  0  0
 27 29  1  0  0  0
 27 30  1  0  0  0
  5  6  2  0  0  0
 36 37  1  0  0  0
 37 38  2  0  0  0
 38 33  1  0  0  0
  6  1  1  0  0  0
 12  7  1  0  0  0
 21 15  1  0  0  0
 19 22  1  0  0  0
 25 26  1  0  0  0
M  END
> <score>
-0.30878

> <minimizedAffinity>
-9.35553

$$$$
HIPS6136


 28 30  0  0  0  0  0  0  0  0999 V2000
   68.8152   76.9390   90.3074 C   0  0  0  0  0  0  0  0  0  0  0  0
   67.6238   77.5177   89.8346 C   0  0  0  0  0  0  0  0  0  0  0  0
   67.5820   78.8710   89.4919 C   0  0  0  0  0  0  0  0  0  0  0  0
   68.7264   79.6617   89.6100 C   0  0  0  0  0  0  0  0  0  0  0  0
   69.9286   79.1004   90.0654 C   0  0  0  0  0  0  0  0  0  0  0  0
   69.9639   77.7434   90.4249 C   0  0  0  0  0  0  0  0  0  0  0  0
   69.7431   73.6907   92.0658 C   0  0  0  0  0  0  0  0  0  0  0  0
   68.9495   72.7777   91.3635 C   0  0  0  0  0  0  0  0  0  0  0  0
   68.1182   73.2111   90.3293 C   0  0  0  0  0  0  0  0  0  0  0  0
   68.0718   74.5635   89.9855 C   0  0  0  0  0  0  0  0  0  0  0  0
   68.8607   75.5008   90.6755 C   0  0  0  0  0  0  0  0  0  0  0  0
   69.6954   75.0553   91.7181 C   0  0  0  0  0  0  0  0  0  0  0  0
   70.3969   71.9368   93.7245 C   0  0  0  0  0  0  0  0  0  0  0  0
   70.5601   73.2049   93.0978 O   0  0  0  0  0  0  0  0  0  0  0  0
   71.1657   79.9496   90.1986 C   0  0  0  0  0  0  0  0  0  0  0  0
   70.8235   81.3058   90.4876 O   0  0  0  0  0  0  0  0  0  0  0  0
   71.2695   82.4267   89.7682 C   0  0  0  0  0  0  0  0  0  0  0  0
   72.5929   82.8929   89.8359 C   0  0  0  0  0  0  0  0  0  0  0  0
   72.9827   84.0097   89.0963 C   0  0  0  0  0  0  0  0  0  0  0  0
   72.0693   84.6782   88.2743 C   0  0  0  0  0  0  0  0  0  0  0  0
   72.5469   85.7407   87.5038 O   0  0  0  0  0  0  0  0  0  0  0  0
   70.7221   84.2406   88.2243 C   0  0  0  0  0  0  0  0  0  0  0  0
   70.3491   83.1008   88.9591 C   0  0  0  0  0  0  0  0  0  0  0  0
   73.4456   85.9984   87.5669 H   0  0  0  0  0  0  0  0  0  0  0  0
   69.6767   84.9517   87.4555 C   0  0  0  0  0  0  0  0  0  0  0  0
   68.5342   85.1475   87.9491 O   0  0  0  0  0  0  0  0  0  0  0  0
   69.9334   85.3565   86.1481 O   0  0  0  0  0  0  0  0  0  0  0  0
   70.7797   85.2155   85.7716 H   0  0  0  0  0  0  0  0  0  0  0  0
 13 14  1  0  0  0
 14  7  1  0  0  0
  7  8  2  0  0  0
  8  9  1  0  0  0
  9 10  2  0  0  0
 10 11  1  0  0  0
 11  1  1  0  0  0
  1  2  2  0  0  0
  2  3  1  0  0  0
  3  4  2  0  0  0
  4  5  1  0  0  0
  5 15  1  0  0  0
 15 16  1  0  0  0
 16 17  1  0  0  0
 17 18  2  0  0  0
 18 19  1  0  0  0
 19 20  2  0  0  0
 20 21  1  0  0  0
 20 22  1  0  0  0
 22 25  1  0  0  0
 25 26  2  0  0  0
 25 27  1  0  0  0
 22 23  2  0  0  0
  5  6  2  0  0  0
 11 12  2  0  0  0
 12  7  1  0  0  0
  6  1  1  0  0  0
 23 17  1  0  0  0
 21 24  1  0  0  0
 27 28  1  0  0  0
M  END
> <score>
0.143121

> <minimizedAffinity>
-8.54669

$$$$
HIPS6136


 28 30  0  0  0  0  0  0  0  0999 V2000
   70.1727   79.6066   90.2683 C   0  0  0  0  0  0  0  0  0  0  0  0
   71.3602   78.8634   90.3918 C   0  0  0  0  0  0  0  0  0  0  0  0
   71.3160   77.5118   90.7409 C   0  0  0  0  0  0  0  0  0  0  0  0
   70.0896   76.8835   90.9649 C   0  0  0  0  0  0  0  0  0  0  0  0
   68.8928   77.6031   90.8323 C   0  0  0  0  0  0  0  0  0  0  0  0
   68.9408   78.9660   90.4972 C   0  0  0  0  0  0  0  0  0  0  0  0
   69.0987   83.0706   89.1056 C   0  0  0  0  0  0  0  0  0  0  0  0
   70.3099   83.7642   89.1981 C   0  0  0  0  0  0  0  0  0  0  0  0
   71.4657   83.1155   89.6358 C   0  0  0  0  0  0  0  0  0  0  0  0
   71.4229   81.7645   89.9858 C   0  0  0  0  0  0  0  0  0  0  0  0
   70.2180   81.0449   89.9005 C   0  0  0  0  0  0  0  0  0  0  0  0
   69.0567   81.7074   89.4591 C   0  0  0  0  0  0  0  0  0  0  0  0
   67.9860   84.7894   87.6694 C   0  0  0  0  0  0  0  0  0  0  0  0
   67.9654   83.7686   88.6619 O   0  0  0  0  0  0  0  0  0  0  0  0
   67.5669   76.9314   91.0764 C   0  0  0  0  0  0  0  0  0  0  0  0
   67.1267   77.1463   92.4181 O   0  0  0  0  0  0  0  0  0  0  0  0
   67.0359   76.1570   93.4110 C   0  0  0  0  0  0  0  0  0  0  0  0
   65.9066   76.0107   94.2336 C   0  0  0  0  0  0  0  0  0  0  0  0
   65.8685   75.0073   95.2020 C   0  0  0  0  0  0  0  0  0  0  0  0
   66.9457   74.1301   95.3666 C   0  0  0  0  0  0  0  0  0  0  0  0
   66.8079   73.1020   96.3020 O   0  0  0  0  0  0  0  0  0  0  0  0
   68.1059   74.2889   94.5681 C   0  0  0  0  0  0  0  0  0  0  0  0
   68.1213   75.2916   93.5819 C   0  0  0  0  0  0  0  0  0  0  0  0
   66.0237   73.0328   96.8100 H   0  0  0  0  0  0  0  0  0  0  0  0
   69.3212   73.4642   94.7479 C   0  0  0  0  0  0  0  0  0  0  0  0
   69.4992   72.7997   95.8034 O   0  0  0  0  0  0  0  0  0  0  0  0
   70.3115   73.4676   93.7690 O   0  0  0  0  0  0  0  0  0  0  0  0
   70.1890   73.9585   92.9803 H   0  0  0  0  0  0  0  0  0  0  0  0
 13 14  1  0  0  0
 14  7  1  0  0  0
  7  8  2  0  0  0
  8  9  1  0  0  0
  9 10  2  0  0  0
 10 11  1  0  0  0
 11  1  1  0  0  0
  1  2  2  0  0  0
  2  3  1  0  0  0
  3  4  2  0  0  0
  4  5  1  0  0  0
  5 15  1  0  0  0
 15 16  1  0  0  0
 16 17  1  0  0  0
 17 18  2  0  0  0
 18 19  1  0  0  0
 19 20  2  0  0  0
 20 21  1  0  0  0
 20 22  1  0  0  0
 22 25  1  0  0  0
 25 26  2  0  0  0
 25 27  1  0  0  0
 22 23  2  0  0  0
  5  6  2  0  0  0
 11 12  2  0  0  0
 12  7  1  0  0  0
  6  1  1  0  0  0
 23 17  1  0  0  0
 21 24  1  0  0  0
 27 28  1  0  0  0
M  END
> <score>
0.143121

> <minimizedAffinity>
-8.41942

$$$$
HIPS6136


 28 30  0  0  0  0  0  0  0  0999 V2000
   70.3072   80.8373   89.9092 C   0  0  0  0  0  0  0  0  0  0  0  0
   68.9049   80.9234   89.8440 C   0  0  0  0  0  0  0  0  0  0  0  0
   68.1126   79.8171   90.1585 C   0  0  0  0  0  0  0  0  0  0  0  0
   68.7066   78.6149   90.5471 C   0  0  0  0  0  0  0  0  0  0  0  0
   70.1030   78.5125   90.6330 C   0  0  0  0  0  0  0  0  0  0  0  0
   70.8978   79.6214   90.3004 C   0  0  0  0  0  0  0  0  0  0  0  0
   71.4500   84.1558   88.4306 C   0  0  0  0  0  0  0  0  0  0  0  0
   72.7547   84.2284   88.9298 C   0  0  0  0  0  0  0  0  0  0  0  0
   73.2602   83.2112   89.7410 C   0  0  0  0  0  0  0  0  0  0  0  0
   72.4657   82.1088   90.0620 C   0  0  0  0  0  0  0  0  0  0  0  0
   71.1514   82.0118   89.5718 C   0  0  0  0  0  0  0  0  0  0  0  0
   70.6491   83.0429   88.7553 C   0  0  0  0  0  0  0  0  0  0  0  0
   70.2843   85.0268   86.3966 C   0  0  0  0  0  0  0  0  0  0  0  0
   70.9887   85.2048   87.6212 O   0  0  0  0  0  0  0  0  0  0  0  0
   70.7495   77.2169   91.0480 C   0  0  0  0  0  0  0  0  0  0  0  0
   70.0687   76.6429   92.1647 O   0  0  0  0  0  0  0  0  0  0  0  0
   69.2190   75.5259   92.1110 C   0  0  0  0  0  0  0  0  0  0  0  0
   69.0227   74.7792   90.9373 C   0  0  0  0  0  0  0  0  0  0  0  0
   68.1695   73.6755   90.9418 C   0  0  0  0  0  0  0  0  0  0  0  0
   67.5023   73.2912   92.1096 C   0  0  0  0  0  0  0  0  0  0  0  0
   66.7247   72.1320   92.0610 O   0  0  0  0  0  0  0  0  0  0  0  0
   67.6629   74.0568   93.2916 C   0  0  0  0  0  0  0  0  0  0  0  0
   68.5425   75.1542   93.2773 C   0  0  0  0  0  0  0  0  0  0  0  0
   66.6448   71.6548   91.2586 H   0  0  0  0  0  0  0  0  0  0  0  0
   66.9181   73.7719   94.5381 C   0  0  0  0  0  0  0  0  0  0  0  0
   67.5284   73.4920   95.6042 O   0  0  0  0  0  0  0  0  0  0  0  0
   65.5259   73.7508   94.5235 O   0  0  0  0  0  0  0  0  0  0  0  0
   65.0625   73.9574   93.7357 H   0  0  0  0  0  0  0  0  0  0  0  0
 13 14  1  0  0  0
 14  7  1  0  0  0
  7  8  2  0  0  0
  8  9  1  0  0  0
  9 10  2  0  0  0
 10 11  1  0  0  0
 11  1  1  0  0  0
  1  2  2  0  0  0
  2  3  1  0  0  0
  3  4  2  0  0  0
  4  5  1  0  0  0
  5 15  1  0  0  0
 15 16  1  0  0  0
 16 17  1  0  0  0
 17 18  2  0  0  0
 18 19  1  0  0  0
 19 20  2  0  0  0
 20 21  1  0  0  0
 20 22  1  0  0  0
 22 25  1  0  0  0
 25 26  2  0  0  0
 25 27  1  0  0  0
 22 23  2  0  0  0
  5  6  2  0  0  0
 11 12  2  0  0  0
 12  7  1  0  0  0
  6  1  1  0  0  0
 23 17  1  0  0  0
 21 24  1  0  0  0
 27 28  1  0  0  0
M  END
> <score>
0.143121

> <minimizedAffinity>
-8.41248

$$$$
HIPS6189


 35 36  0  0  0  0  0  0  0  0999 V2000
   69.8482   77.1235   91.8111 C   0  0  0  0  0  0  0  0  0  0  0  0
   68.6523   77.0238   92.4822 C   0  0  0  0  0  0  0  0  0  0  0  0
   68.9056   76.3174   93.5960 N   0  0  0  0  0  0  0  0  0  0  0  0
   70.1839   75.9714   93.5906 N   0  0  0  0  0  0  0  0  0  0  0  0
   70.7878   76.4579   92.5138 N   0  0  0  0  0  0  0  0  0  0  0  0
   70.0586   77.7298   90.4580 C   0  0  0  0  0  0  0  0  0  0  0  0
   69.2072   78.8576   90.2614 O   0  0  0  0  0  0  0  0  0  0  0  0
   70.5993   82.7744   89.5170 C   0  0  0  0  0  0  0  0  0  0  0  0
   71.4656   81.7659   89.9618 C   0  0  0  0  0  0  0  0  0  0  0  0
   70.9883   80.4732   90.1937 C   0  0  0  0  0  0  0  0  0  0  0  0
   69.6421   80.1613   89.9727 C   0  0  0  0  0  0  0  0  0  0  0  0
   68.7798   81.1604   89.4813 C   0  0  0  0  0  0  0  0  0  0  0  0
   69.2560   82.4548   89.2554 C   0  0  0  0  0  0  0  0  0  0  0  0
   72.3250   85.8609   87.9245 C   0  0  0  0  0  0  0  0  0  0  0  0
   71.6226   84.5465   88.0176 C   0  0  0  0  0  0  0  0  0  0  0  0
   71.4081   83.8861   86.9663 O   0  0  0  0  0  0  0  0  0  0  0  0
   71.1148   84.0955   89.2824 N   0  0  0  0  0  0  0  0  0  0  0  0
   71.1200   84.7299   90.0353 H   0  0  0  0  0  0  0  0  0  0  0  0
   67.9012   75.8358   94.5433 C   0  0  0  0  0  0  0  0  0  0  0  0
   68.2321   74.4448   95.1072 C   0  0  0  0  0  0  0  0  0  0  0  0
   68.6884   73.5021   94.0835 N   0  0  0  0  0  0  0  0  0  0  0  0
   67.8366   72.9430   93.0721 C   0  0  0  0  0  0  0  0  0  0  0  0
   66.5839   73.0592   93.1672 O   0  0  0  0  0  0  0  0  0  0  0  0
   69.6362   73.2357   94.0893 H   0  0  0  0  0  0  0  0  0  0  0  0
   68.4412   72.1829   91.9121 C   0  0  0  0  0  0  0  0  0  0  0  0
   69.7230   71.4992   92.3308 C   0  0  0  0  0  0  0  0  0  0  0  0
   70.7527   72.1867   92.5753 O   0  0  0  0  0  0  0  0  0  0  0  0
   69.7765   70.0752   92.4638 N   0  0  0  0  0  0  0  0  0  0  0  0
   70.9283   69.4608   92.8254 O   0  0  0  0  0  0  0  0  0  0  0  0
   68.9699   69.5379   92.2910 H   0  0  0  0  0  0  0  0  0  0  0  0
   71.6220   70.1259   92.9570 H   0  0  0  0  0  0  0  0  0  0  0  0
   68.7033   73.1015   90.6943 C   0  0  0  0  0  0  0  0  0  0  0  0
   67.4285   73.6163   89.9784 C   0  0  0  0  0  0  0  0  0  0  0  0
   67.0494   72.7528   88.7636 C   0  0  0  0  0  0  0  0  0  0  0  0
   67.6394   75.0640   89.5254 C   0  0  0  0  0  0  0  0  0  0  0  0
 14 15  1  0  0  0
 15 16  2  0  0  0
 15 17  1  0  0  0
 17  8  1  0  0  0
  8  9  2  0  0  0
  9 10  1  0  0  0
 10 11  2  0  0  0
 11  7  1  0  0  0
  7  6  1  0  0  0
  6  1  1  0  0  0
  1  2  2  0  0  0
  2  3  1  0  0  0
  3 19  1  0  0  0
 19 20  1  0  0  0
 20 21  1  0  0  0
 21 22  1  0  0  0
 22 23  2  0  0  0
 22 25  1  0  0  0
 25 32  1  0  0  0
 32 33  1  0  0  0
 33 34  1  0  0  0
 33 35  1  0  0  0
 25 26  1  0  0  0
 26 27  2  0  0  0
 26 28  1  0  0  0
 28 29  1  0  0  0
  3  4  1  0  0  0
  4  5  2  0  0  0
 11 12  1  0  0  0
 12 13  2  0  0  0
 13  8  1  0  0  0
  5  1  2  0  0  0
 17 18  1  0  0  0
 21 24  1  0  0  0
 28 30  1  0  0  0
 29 31  1  0  0  0
M  END
> <score>
0.752059

> <minimizedAffinity>
-7.56815

$$$$
HIPS6189


 35 36  0  0  0  0  0  0  0  0999 V2000
   66.9279   79.0288   88.1569 C   0  0  0  0  0  0  0  0  0  0  0  0
   67.3641   78.2030   89.1660 C   0  0  0  0  0  0  0  0  0  0  0  0
   67.3275   76.9552   88.6708 N   0  0  0  0  0  0  0  0  0  0  0  0
   66.8593   77.0095   87.4333 N   0  0  0  0  0  0  0  0  0  0  0  0
   66.6135   78.2672   87.0890 N   0  0  0  0  0  0  0  0  0  0  0  0
   66.6902   80.5040   88.2579 C   0  0  0  0  0  0  0  0  0  0  0  0
   67.3805   81.2083   87.2268 O   0  0  0  0  0  0  0  0  0  0  0  0
   69.3255   84.9065   87.8377 C   0  0  0  0  0  0  0  0  0  0  0  0
   69.7695   83.7370   88.4705 C   0  0  0  0  0  0  0  0  0  0  0  0
   69.1187   82.5204   88.2486 C   0  0  0  0  0  0  0  0  0  0  0  0
   68.0228   82.4475   87.3812 C   0  0  0  0  0  0  0  0  0  0  0  0
   67.6039   83.6114   86.7083 C   0  0  0  0  0  0  0  0  0  0  0  0
   68.2510   84.8292   86.9353 C   0  0  0  0  0  0  0  0  0  0  0  0
   70.3349   88.3889   89.2140 C   0  0  0  0  0  0  0  0  0  0  0  0
   69.7099   87.0337   89.1655 C   0  0  0  0  0  0  0  0  0  0  0  0
   68.9879   86.6528   90.1252 O   0  0  0  0  0  0  0  0  0  0  0  0
   70.0136   86.1451   88.0796 N   0  0  0  0  0  0  0  0  0  0  0  0
   70.7375   86.3996   87.4628 H   0  0  0  0  0  0  0  0  0  0  0  0
   67.5640   75.7309   89.4345 C   0  0  0  0  0  0  0  0  0  0  0  0
   68.5389   75.9372   90.6047 C   0  0  0  0  0  0  0  0  0  0  0  0
   68.3781   74.9453   91.6700 N   0  0  0  0  0  0  0  0  0  0  0  0
   69.2374   74.8539   92.8165 C   0  0  0  0  0  0  0  0  0  0  0  0
   70.3298   75.4848   92.8381 O   0  0  0  0  0  0  0  0  0  0  0  0
   67.6361   74.3025   91.5956 H   0  0  0  0  0  0  0  0  0  0  0  0
   68.8488   73.9715   93.9823 C   0  0  0  0  0  0  0  0  0  0  0  0
   69.8669   72.8720   94.1833 C   0  0  0  0  0  0  0  0  0  0  0  0
   69.9285   72.2648   95.2879 O   0  0  0  0  0  0  0  0  0  0  0  0
   70.7573   72.5044   93.1247 N   0  0  0  0  0  0  0  0  0  0  0  0
   71.6790   71.5290   93.3085 O   0  0  0  0  0  0  0  0  0  0  0  0
   70.6995   72.9642   92.2561 H   0  0  0  0  0  0  0  0  0  0  0  0
   71.6054   71.1805   94.2108 H   0  0  0  0  0  0  0  0  0  0  0  0
   67.4383   73.3612   93.7989 C   0  0  0  0  0  0  0  0  0  0  0  0
   66.3541   73.9248   94.7526 C   0  0  0  0  0  0  0  0  0  0  0  0
   65.9033   75.3406   94.3559 C   0  0  0  0  0  0  0  0  0  0  0  0
   66.8889   73.9464   96.1875 C   0  0  0  0  0  0  0  0  0  0  0  0
 14 15  1  0  0  0
 15 16  2  0  0  0
 15 17  1  0  0  0
 17  8  1  0  0  0
  8  9  2  0  0  0
  9 10  1  0  0  0
 10 11  2  0  0  0
 11  7  1  0  0  0
  7  6  1  0  0  0
  6  1  1  0  0  0
  1  2  2  0  0  0
  2  3  1  0  0  0
  3 19  1  0  0  0
 19 20  1  0  0  0
 20 21  1  0  0  0
 21 22  1  0  0  0
 22 23  2  0  0  0
 22 25  1  0  0  0
 25 32  1  0  0  0
 32 33  1  0  0  0
 33 34  1  0  0  0
 33 35  1  0  0  0
 25 26  1  0  0  0
 26 27  2  0  0  0
 26 28  1  0  0  0
 28 29  1  0  0  0
  3  4  1  0  0  0
  4  5  2  0  0  0
 11 12  1  0  0  0
 12 13  2  0  0  0
 13  8  1  0  0  0
  5  1  2  0  0  0
 17 18  1  0  0  0
 21 24  1  0  0  0
 28 30  1  0  0  0
 29 31  1  0  0  0
M  END
> <score>
0.752059

> <minimizedAffinity>
-7.47828

$$$$
HIPS6189


 35 36  0  0  0  0  0  0  0  0999 V2000
   67.1374   78.7138   88.4762 C   0  0  0  0  0  0  0  0  0  0  0  0
   66.9676   79.2297   89.7392 C   0  0  0  0  0  0  0  0  0  0  0  0
   66.6179   80.5159   89.5744 N   0  0  0  0  0  0  0  0  0  0  0  0
   66.6083   80.7843   88.2777 N   0  0  0  0  0  0  0  0  0  0  0  0
   66.9147   79.6975   87.5806 N   0  0  0  0  0  0  0  0  0  0  0  0
   67.6331   77.3418   88.1373 C   0  0  0  0  0  0  0  0  0  0  0  0
   67.0767   76.3626   89.0132 O   0  0  0  0  0  0  0  0  0  0  0  0
   69.4208   73.7842   91.3985 C   0  0  0  0  0  0  0  0  0  0  0  0
   69.5303   75.1775   91.5078 C   0  0  0  0  0  0  0  0  0  0  0  0
   68.7392   76.0147   90.7166 C   0  0  0  0  0  0  0  0  0  0  0  0
   67.8161   75.4764   89.8130 C   0  0  0  0  0  0  0  0  0  0  0  0
   67.6708   74.0778   89.7347 C   0  0  0  0  0  0  0  0  0  0  0  0
   68.4666   73.2407   90.5216 C   0  0  0  0  0  0  0  0  0  0  0  0
   70.8873   71.8234   94.4060 C   0  0  0  0  0  0  0  0  0  0  0  0
   69.8823   72.5196   93.5487 C   0  0  0  0  0  0  0  0  0  0  0  0
   68.7007   72.6506   93.9660 O   0  0  0  0  0  0  0  0  0  0  0  0
   70.2431   72.9442   92.2256 N   0  0  0  0  0  0  0  0  0  0  0  0
   71.1067   72.6414   91.8626 H   0  0  0  0  0  0  0  0  0  0  0  0
   66.4774   81.5019   90.6450 C   0  0  0  0  0  0  0  0  0  0  0  0
   67.8131   81.8326   91.3300 C   0  0  0  0  0  0  0  0  0  0  0  0
   68.6182   82.8022   90.5842 N   0  0  0  0  0  0  0  0  0  0  0  0
   69.6447   82.4404   89.6479 C   0  0  0  0  0  0  0  0  0  0  0  0
   70.0662   81.2521   89.6019 O   0  0  0  0  0  0  0  0  0  0  0  0
   68.4451   83.7598   90.7338 H   0  0  0  0  0  0  0  0  0  0  0  0
   70.2456   83.4932   88.7429 C   0  0  0  0  0  0  0  0  0  0  0  0
   71.7275   83.6400   89.0038 C   0  0  0  0  0  0  0  0  0  0  0  0
   72.3884   84.5296   88.4000 O   0  0  0  0  0  0  0  0  0  0  0  0
   72.3882   82.7835   89.9411 N   0  0  0  0  0  0  0  0  0  0  0  0
   73.7185   82.9052   90.1652 O   0  0  0  0  0  0  0  0  0  0  0  0
   71.8716   82.1005   90.4268 H   0  0  0  0  0  0  0  0  0  0  0  0
   74.0756   83.6180   89.6126 H   0  0  0  0  0  0  0  0  0  0  0  0
   69.5408   84.8619   88.9026 C   0  0  0  0  0  0  0  0  0  0  0  0
   68.7064   85.3136   87.6769 C   0  0  0  0  0  0  0  0  0  0  0  0
   67.3872   84.5340   87.5465 C   0  0  0  0  0  0  0  0  0  0  0  0
   69.5293   85.1351   86.3976 C   0  0  0  0  0  0  0  0  0  0  0  0
 14 15  1  0  0  0
 15 16  2  0  0  0
 15 17  1  0  0  0
 17  8  1  0  0  0
  8  9  2  0  0  0
  9 10  1  0  0  0
 10 11  2  0  0  0
 11  7  1  0  0  0
  7  6  1  0  0  0
  6  1  1  0  0  0
  1  2  2  0  0  0
  2  3  1  0  0  0
  3 19  1  0  0  0
 19 20  1  0  0  0
 20 21  1  0  0  0
 21 22  1  0  0  0
 22 23  2  0  0  0
 22 25  1  0  0  0
 25 32  1  0  0  0
 32 33  1  0  0  0
 33 34  1  0  0  0
 33 35  1  0  0  0
 25 26  1  0  0  0
 26 27  2  0  0  0
 26 28  1  0  0  0
 28 29  1  0  0  0
  3  4  1  0  0  0
  4  5  2  0  0  0
 11 12  1  0  0  0
 12 13  2  0  0  0
 13  8  1  0  0  0
  5  1  2  0  0  0
 17 18  1  0  0  0
 21 24  1  0  0  0
 28 30  1  0  0  0
 29 31  1  0  0  0
M  END
> <score>
0.752059

> <minimizedAffinity>
-7.22402

$$$$
HIPS6202


 25 27  0  0  0  0  0  0  0  0999 V2000
   70.0576   75.4538   92.1709 N   0  0  0  0  0  0  0  0  0  0  0  0
   71.0086   75.2041   92.1208 H   0  0  0  0  0  0  0  0  0  0  0  0
   67.5794   75.0545   89.3456 C   0  0  0  0  0  0  0  0  0  0  0  0
   68.4427   75.6483   90.2863 C   0  0  0  0  0  0  0  0  0  0  0  0
   69.1582   74.8654   91.2111 C   0  0  0  0  0  0  0  0  0  0  0  0
   68.9852   73.4760   91.2025 C   0  0  0  0  0  0  0  0  0  0  0  0
   68.1306   72.8737   90.2800 C   0  0  0  0  0  0  0  0  0  0  0  0
   67.4281   73.6491   89.3485 C   0  0  0  0  0  0  0  0  0  0  0  0
   66.5851   73.0191   88.4327 O   0  0  0  0  0  0  0  0  0  0  0  0
   66.4933   72.0867   88.4448 H   0  0  0  0  0  0  0  0  0  0  0  0
   66.1499   76.8865   88.7778 O   0  0  0  0  0  0  0  0  0  0  0  0
   66.8544   75.9202   88.3797 C   0  0  0  0  0  0  0  0  0  0  0  0
   66.9455   75.6706   87.0123 O   0  0  0  0  0  0  0  0  0  0  0  0
   67.4650   74.9560   86.7001 H   0  0  0  0  0  0  0  0  0  0  0  0
   69.6549   76.3973   93.2156 C   0  0  0  0  0  0  0  0  0  0  0  0
   68.3545   75.9732   93.8479 C   0  0  0  0  0  0  0  0  0  0  0  0
   67.1487   76.6625   93.5805 C   0  0  0  0  0  0  0  0  0  0  0  0
   65.9375   76.2608   94.1889 C   0  0  0  0  0  0  0  0  0  0  0  0
   65.9082   75.1618   95.0663 C   0  0  0  0  0  0  0  0  0  0  0  0
   67.1067   74.4951   95.3036 C   0  0  0  0  0  0  0  0  0  0  0  0
   67.3222   73.4273   96.0862 N   0  0  0  0  0  0  0  0  0  0  0  0
   68.6106   73.1113   96.0189 N   0  0  0  0  0  0  0  0  0  0  0  0
   69.2242   73.9863   95.1860 C   0  0  0  0  0  0  0  0  0  0  0  0
   68.2799   74.8795   94.7193 C   0  0  0  0  0  0  0  0  0  0  0  0
   66.6412   72.9575   96.6198 H   0  0  0  0  0  0  0  0  0  0  0  0
 11 12  2  0  0  0
 12 13  1  0  0  0
 12  3  1  0  0  0
  3  4  2  0  0  0
  4  5  1  0  0  0
  5  1  1  0  0  0
  1 15  1  0  0  0
 15 16  1  0  0  0
 16 17  2  0  0  0
 17 18  1  0  0  0
 18 19  2  0  0  0
 19 20  1  0  0  0
 20 21  1  0  0  0
 21 22  1  0  0  0
 22 23  2  0  0  0
 23 24  1  0  0  0
  5  6  2  0  0  0
  6  7  1  0  0  0
  7  8  2  0  0  0
  8  9  1  0  0  0
  8  3  1  0  0  0
 24 16  1  0  0  0
 24 20  2  0  0  0
 13 14  1  0  0  0
  1  2  1  0  0  0
 21 25  1  0  0  0
  9 10  1  0  0  0
M  END
> <score>
1.153769

> <minimizedAffinity>
-7.66999

$$$$
HIPS6202


 25 27  0  0  0  0  0  0  0  0999 V2000
   66.9682   77.2215   92.5555 N   0  0  0  0  0  0  0  0  0  0  0  0
   66.6638   78.1123   92.8437 H   0  0  0  0  0  0  0  0  0  0  0  0
   68.1463   74.3334   94.6895 C   0  0  0  0  0  0  0  0  0  0  0  0
   68.1265   75.3443   93.7095 C   0  0  0  0  0  0  0  0  0  0  0  0
   67.0010   76.1721   93.5426 C   0  0  0  0  0  0  0  0  0  0  0  0
   65.8789   75.9651   94.3540 C   0  0  0  0  0  0  0  0  0  0  0  0
   65.8817   74.9655   95.3260 C   0  0  0  0  0  0  0  0  0  0  0  0
   67.0060   74.1492   95.5045 C   0  0  0  0  0  0  0  0  0  0  0  0
   66.9835   73.1612   96.4892 O   0  0  0  0  0  0  0  0  0  0  0  0
   66.2216   73.0491   97.0230 H   0  0  0  0  0  0  0  0  0  0  0  0
   69.5347   72.7788   95.8632 O   0  0  0  0  0  0  0  0  0  0  0  0
   69.3619   73.4918   94.8384 C   0  0  0  0  0  0  0  0  0  0  0  0
   70.3322   73.4823   93.8390 O   0  0  0  0  0  0  0  0  0  0  0  0
   70.2187   74.0067   93.0708 H   0  0  0  0  0  0  0  0  0  0  0  0
   67.3561   77.0544   91.1536 C   0  0  0  0  0  0  0  0  0  0  0  0
   68.5255   77.9413   90.8121 C   0  0  0  0  0  0  0  0  0  0  0  0
   68.3329   79.2463   90.3019 C   0  0  0  0  0  0  0  0  0  0  0  0
   69.4388   80.0642   89.9755 C   0  0  0  0  0  0  0  0  0  0  0  0
   70.7526   79.5970   90.1599 C   0  0  0  0  0  0  0  0  0  0  0  0
   70.9135   78.3134   90.6731 C   0  0  0  0  0  0  0  0  0  0  0  0
   72.0558   77.6628   90.9402 N   0  0  0  0  0  0  0  0  0  0  0  0
   71.7522   76.4640   91.4246 N   0  0  0  0  0  0  0  0  0  0  0  0
   70.4029   76.3471   91.4667 C   0  0  0  0  0  0  0  0  0  0  0  0
   69.8487   77.5186   90.9893 C   0  0  0  0  0  0  0  0  0  0  0  0
   72.9648   78.0143   90.8008 H   0  0  0  0  0  0  0  0  0  0  0  0
 11 12  2  0  0  0
 12 13  1  0  0  0
 12  3  1  0  0  0
  3  4  2  0  0  0
  4  5  1  0  0  0
  5  1  1  0  0  0
  1 15  1  0  0  0
 15 16  1  0  0  0
 16 17  2  0  0  0
 17 18  1  0  0  0
 18 19  2  0  0  0
 19 20  1  0  0  0
 20 21  1  0  0  0
 21 22  1  0  0  0
 22 23  2  0  0  0
 23 24  1  0  0  0
  5  6  2  0  0  0
  6  7  1  0  0  0
  7  8  2  0  0  0
  8  9  1  0  0  0
  8  3  1  0  0  0
 24 16  1  0  0  0
 24 20  2  0  0  0
 13 14  1  0  0  0
  1  2  1  0  0  0
 21 25  1  0  0  0
  9 10  1  0  0  0
M  END
> <score>
1.153769

> <minimizedAffinity>
-7.34178

$$$$
HIPS6202


 25 27  0  0  0  0  0  0  0  0999 V2000
   70.6295   79.8158   90.1361 N   0  0  0  0  0  0  0  0  0  0  0  0
   71.6133   79.7946   90.1661 H   0  0  0  0  0  0  0  0  0  0  0  0
   69.5718   76.3314   91.1477 C   0  0  0  0  0  0  0  0  0  0  0  0
   70.2767   77.5496   91.1041 C   0  0  0  0  0  0  0  0  0  0  0  0
   69.9297   78.5571   90.1853 C   0  0  0  0  0  0  0  0  0  0  0  0
   68.8793   78.3265   89.2887 C   0  0  0  0  0  0  0  0  0  0  0  0
   68.1746   77.1237   89.3167 C   0  0  0  0  0  0  0  0  0  0  0  0
   68.5081   76.1245   90.2400 C   0  0  0  0  0  0  0  0  0  0  0  0
   67.7816   74.9335   90.2500 O   0  0  0  0  0  0  0  0  0  0  0  0
   67.0786   74.8084   89.6431 H   0  0  0  0  0  0  0  0  0  0  0  0
   70.2331   74.1230   91.7861 O   0  0  0  0  0  0  0  0  0  0  0  0
   69.9653   75.3014   92.1439 C   0  0  0  0  0  0  0  0  0  0  0  0
   70.0424   75.6296   93.4955 O   0  0  0  0  0  0  0  0  0  0  0  0
   69.8465   76.5013   93.7778 H   0  0  0  0  0  0  0  0  0  0  0  0
   69.9785   81.1241   90.0448 C   0  0  0  0  0  0  0  0  0  0  0  0
   70.9416   82.1675   89.5406 C   0  0  0  0  0  0  0  0  0  0  0  0
   72.2341   82.3044   90.0983 C   0  0  0  0  0  0  0  0  0  0  0  0
   73.1241   83.2948   89.6232 C   0  0  0  0  0  0  0  0  0  0  0  0
   72.7425   84.1580   88.5803 C   0  0  0  0  0  0  0  0  0  0  0  0
   71.4691   83.9946   88.0426 C   0  0  0  0  0  0  0  0  0  0  0  0
   70.8929   84.6855   87.0476 N   0  0  0  0  0  0  0  0  0  0  0  0
   69.6741   84.1965   86.8487 N   0  0  0  0  0  0  0  0  0  0  0  0
   69.4694   83.1840   87.7256 C   0  0  0  0  0  0  0  0  0  0  0  0
   70.6050   83.0402   88.4984 C   0  0  0  0  0  0  0  0  0  0  0  0
   71.3036   85.4287   86.5495 H   0  0  0  0  0  0  0  0  0  0  0  0
 11 12  2  0  0  0
 12 13  1  0  0  0
 12  3  1  0  0  0
  3  4  2  0  0  0
  4  5  1  0  0  0
  5  1  1  0  0  0
  1 15  1  0  0  0
 15 16  1  0  0  0
 16 17  2  0  0  0
 17 18  1  0  0  0
 18 19  2  0  0  0
 19 20  1  0  0  0
 20 21  1  0  0  0
 21 22  1  0  0  0
 22 23  2  0  0  0
 23 24  1  0  0  0
  5  6  2  0  0  0
  6  7  1  0  0  0
  7  8  2  0  0  0
  8  9  1  0  0  0
  8  3  1  0  0  0
 24 16  1  0  0  0
 24 20  2  0  0  0
 13 14  1  0  0  0
  1  2  1  0  0  0
 21 25  1  0  0  0
  9 10  1  0  0  0
M  END
> <score>
1.153769

> <minimizedAffinity>
-7.31172

$$$$
HIPS6245


 35 37  0  0  0  0  0  0  0  0999 V2000
   67.7735   76.8972   89.0825 C   0  0  0  0  0  0  0  0  0  0  0  0
   67.2607   77.1665   87.7992 C   0  0  0  0  0  0  0  0  0  0  0  0
   67.1476   78.4822   87.3441 C   0  0  0  0  0  0  0  0  0  0  0  0
   67.5374   79.5442   88.1628 C   0  0  0  0  0  0  0  0  0  0  0  0
   68.0424   79.2989   89.4492 C   0  0  0  0  0  0  0  0  0  0  0  0
   68.1786   77.9729   89.8959 C   0  0  0  0  0  0  0  0  0  0  0  0
   68.6962   73.8896   91.2096 C   0  0  0  0  0  0  0  0  0  0  0  0
   68.0219   72.8615   90.5399 C   0  0  0  0  0  0  0  0  0  0  0  0
   67.2773   73.1439   89.3926 C   0  0  0  0  0  0  0  0  0  0  0  0
   67.1971   74.4534   88.9114 C   0  0  0  0  0  0  0  0  0  0  0  0
   67.8615   75.4996   89.5788 C   0  0  0  0  0  0  0  0  0  0  0  0
   68.6148   75.2023   90.7290 C   0  0  0  0  0  0  0  0  0  0  0  0
   69.6202   73.5625   92.6726 S   0  0  0  0  0  0  0  0  0  0  0  0
   70.2449   74.8440   93.1456 O   0  0  0  0  0  0  0  0  0  0  0  0
   70.7135   72.5635   92.4043 O   0  0  0  0  0  0  0  0  0  0  0  0
   68.5814   72.9796   93.8774 O   0  0  0  0  0  0  0  0  0  0  0  0
   68.4594   73.9555   94.8878 C   0  0  0  0  0  0  0  0  0  0  0  0
   67.0852   75.9637   94.1626 C   0  0  0  0  0  0  0  0  0  0  0  0
   67.0412   74.5831   94.8604 C   0  0  0  0  0  0  0  0  0  0  0  0
   66.0936   73.6502   94.0778 C   0  0  0  0  0  0  0  0  0  0  0  0
   66.5029   74.7489   96.2987 C   0  0  0  0  0  0  0  0  0  0  0  0
   68.4608   80.4506   90.3288 C   0  0  0  0  0  0  0  0  0  0  0  0
   69.8581   80.7220   90.1998 O   0  0  0  0  0  0  0  0  0  0  0  0
   70.4105   81.8576   89.5814 C   0  0  0  0  0  0  0  0  0  0  0  0
   71.7089   82.2304   89.9354 C   0  0  0  0  0  0  0  0  0  0  0  0
   72.2942   83.3673   89.3821 C   0  0  0  0  0  0  0  0  0  0  0  0
   71.5860   84.1582   88.4612 C   0  0  0  0  0  0  0  0  0  0  0  0
   72.1856   85.3070   87.9431 O   0  0  0  0  0  0  0  0  0  0  0  0
   70.2758   83.7904   88.0741 C   0  0  0  0  0  0  0  0  0  0  0  0
   69.7042   82.6301   88.6372 C   0  0  0  0  0  0  0  0  0  0  0  0
   73.0538   85.5415   88.2062 H   0  0  0  0  0  0  0  0  0  0  0  0
   69.4937   84.5941   87.0954 C   0  0  0  0  0  0  0  0  0  0  0  0
   68.2347   84.6300   87.1632 O   0  0  0  0  0  0  0  0  0  0  0  0
   70.1316   85.3149   86.0917 O   0  0  0  0  0  0  0  0  0  0  0  0
   71.0661   85.3001   86.0258 H   0  0  0  0  0  0  0  0  0  0  0  0
 18 19  1  0  0  0
 19 20  1  0  0  0
 19 21  1  0  0  0
 19 17  1  0  0  0
 17 16  1  0  0  0
 16 13  1  0  0  0
 13 14  2  0  0  0
 13 15  2  0  0  0
 13  7  1  0  0  0
  7  8  2  0  0  0
  8  9  1  0  0  0
  9 10  2  0  0  0
 10 11  1  0  0  0
 11  1  1  0  0  0
  1  2  2  0  0  0
  2  3  1  0  0  0
  3  4  2  0  0  0
  4  5  1  0  0  0
  5 22  1  0  0  0
 22 23  1  0  0  0
 23 24  1  0  0  0
 24 25  2  0  0  0
 25 26  1  0  0  0
 26 27  2  0  0  0
 27 28  1  0  0  0
 27 29  1  0  0  0
 29 32  1  0  0  0
 32 33  2  0  0  0
 32 34  1  0  0  0
 29 30  2  0  0  0
  5  6  2  0  0  0
 11 12  2  0  0  0
 12  7  1  0  0  0
  6  1  1  0  0  0
 30 24  1  0  0  0
 28 31  1  0  0  0
 34 35  1  0  0  0
M  END
> <score>
0.047374

> <minimizedAffinity>
-9.48724

$$$$
HIPS6245


 35 37  0  0  0  0  0  0  0  0999 V2000
   67.6779   76.6119   89.0634 C   0  0  0  0  0  0  0  0  0  0  0  0
   66.7941   76.8574   87.9953 C   0  0  0  0  0  0  0  0  0  0  0  0
   66.6269   78.1519   87.4983 C   0  0  0  0  0  0  0  0  0  0  0  0
   67.3321   79.2171   88.0624 C   0  0  0  0  0  0  0  0  0  0  0  0
   68.2113   78.9963   89.1341 C   0  0  0  0  0  0  0  0  0  0  0  0
   68.3968   77.6890   89.6165 C   0  0  0  0  0  0  0  0  0  0  0  0
   68.7334   73.7353   91.3068 C   0  0  0  0  0  0  0  0  0  0  0  0
   68.1096   72.6517   90.6769 C   0  0  0  0  0  0  0  0  0  0  0  0
   67.3558   72.8544   89.5187 C   0  0  0  0  0  0  0  0  0  0  0  0
   67.2162   74.1391   88.9869 C   0  0  0  0  0  0  0  0  0  0  0  0
   67.8294   75.2403   89.6137 C   0  0  0  0  0  0  0  0  0  0  0  0
   68.5925   75.0232   90.7754 C   0  0  0  0  0  0  0  0  0  0  0  0
   69.6676   73.5086   92.7823 S   0  0  0  0  0  0  0  0  0  0  0  0
   70.2639   74.8276   93.1835 O   0  0  0  0  0  0  0  0  0  0  0  0
   70.7827   72.5215   92.5647 O   0  0  0  0  0  0  0  0  0  0  0  0
   68.6447   72.9682   94.0201 O   0  0  0  0  0  0  0  0  0  0  0  0
   68.4793   74.0044   94.9620 C   0  0  0  0  0  0  0  0  0  0  0  0
   66.1309   73.6462   94.0653 C   0  0  0  0  0  0  0  0  0  0  0  0
   67.0533   74.6055   94.8550 C   0  0  0  0  0  0  0  0  0  0  0  0
   66.4827   74.8020   96.2750 C   0  0  0  0  0  0  0  0  0  0  0  0
   67.1035   75.9754   94.1432 C   0  0  0  0  0  0  0  0  0  0  0  0
   68.9695   80.1513   89.7395 C   0  0  0  0  0  0  0  0  0  0  0  0
   68.3140   81.3951   89.4821 O   0  0  0  0  0  0  0  0  0  0  0  0
   68.8135   82.4208   88.6602 C   0  0  0  0  0  0  0  0  0  0  0  0
   67.9891   82.9053   87.6425 C   0  0  0  0  0  0  0  0  0  0  0  0
   68.4443   83.8958   86.7748 C   0  0  0  0  0  0  0  0  0  0  0  0
   69.7411   84.4208   86.9084 C   0  0  0  0  0  0  0  0  0  0  0  0
   70.1815   85.3925   86.0087 O   0  0  0  0  0  0  0  0  0  0  0  0
   70.5880   83.9579   87.9429 C   0  0  0  0  0  0  0  0  0  0  0  0
   70.1054   82.9622   88.8181 C   0  0  0  0  0  0  0  0  0  0  0  0
   69.6126   85.6921   85.3271 H   0  0  0  0  0  0  0  0  0  0  0  0
   71.9649   84.4927   88.1261 C   0  0  0  0  0  0  0  0  0  0  0  0
   72.8594   83.7790   88.6567 O   0  0  0  0  0  0  0  0  0  0  0  0
   72.2897   85.7826   87.7204 O   0  0  0  0  0  0  0  0  0  0  0  0
   71.6381   86.3272   87.3244 H   0  0  0  0  0  0  0  0  0  0  0  0
 18 19  1  0  0  0
 19 20  1  0  0  0
 19 21  1  0  0  0
 19 17  1  0  0  0
 17 16  1  0  0  0
 16 13  1  0  0  0
 13 14  2  0  0  0
 13 15  2  0  0  0
 13  7  1  0  0  0
  7  8  2  0  0  0
  8  9  1  0  0  0
  9 10  2  0  0  0
 10 11  1  0  0  0
 11  1  1  0  0  0
  1  2  2  0  0  0
  2  3  1  0  0  0
  3  4  2  0  0  0
  4  5  1  0  0  0
  5 22  1  0  0  0
 22 23  1  0  0  0
 23 24  1  0  0  0
 24 25  2  0  0  0
 25 26  1  0  0  0
 26 27  2  0  0  0
 27 28  1  0  0  0
 27 29  1  0  0  0
 29 32  1  0  0  0
 32 33  2  0  0  0
 32 34  1  0  0  0
 29 30  2  0  0  0
  5  6  2  0  0  0
 11 12  2  0  0  0
 12  7  1  0  0  0
  6  1  1  0  0  0
 30 24  1  0  0  0
 28 31  1  0  0  0
 34 35  1  0  0  0
M  END
> <score>
0.047374

> <minimizedAffinity>
-9.47448

$$$$
HIPS6245


 35 37  0  0  0  0  0  0  0  0999 V2000
   69.8872   76.9846   90.6769 C   0  0  0  0  0  0  0  0  0  0  0  0
   71.2653   77.1218   90.9304 C   0  0  0  0  0  0  0  0  0  0  0  0
   71.8897   78.3638   90.7948 C   0  0  0  0  0  0  0  0  0  0  0  0
   71.1512   79.4813   90.3997 C   0  0  0  0  0  0  0  0  0  0  0  0
   69.7782   79.3650   90.1329 C   0  0  0  0  0  0  0  0  0  0  0  0
   69.1468   78.1193   90.2939 C   0  0  0  0  0  0  0  0  0  0  0  0
   68.9984   73.5071   91.9176 C   0  0  0  0  0  0  0  0  0  0  0  0
   67.9848   73.1460   91.0220 C   0  0  0  0  0  0  0  0  0  0  0  0
   67.5983   74.0273   90.0098 C   0  0  0  0  0  0  0  0  0  0  0  0
   68.2168   75.2746   89.8898 C   0  0  0  0  0  0  0  0  0  0  0  0
   69.2310   75.6563   90.7882 C   0  0  0  0  0  0  0  0  0  0  0  0
   69.6174   74.7576   91.7991 C   0  0  0  0  0  0  0  0  0  0  0  0
   69.4853   72.4236   93.2177 S   0  0  0  0  0  0  0  0  0  0  0  0
   70.9753   72.5111   93.3865 O   0  0  0  0  0  0  0  0  0  0  0  0
   69.1194   70.9999   92.8945 O   0  0  0  0  0  0  0  0  0  0  0  0
   68.7391   72.9035   94.6611 O   0  0  0  0  0  0  0  0  0  0  0  0
   67.4634   73.4260   94.3649 C   0  0  0  0  0  0  0  0  0  0  0  0
   66.5531   74.8659   96.2478 C   0  0  0  0  0  0  0  0  0  0  0  0
   67.3345   74.8717   94.9120 C   0  0  0  0  0  0  0  0  0  0  0  0
   68.7463   75.4455   95.1538 C   0  0  0  0  0  0  0  0  0  0  0  0
   66.6006   75.7663   93.8888 C   0  0  0  0  0  0  0  0  0  0  0  0
   68.9865   80.5759   89.7056 C   0  0  0  0  0  0  0  0  0  0  0  0
   69.5319   81.7752   90.2595 O   0  0  0  0  0  0  0  0  0  0  0  0
   70.1993   82.7754   89.5305 C   0  0  0  0  0  0  0  0  0  0  0  0
   71.5707   82.9347   89.7404 C   0  0  0  0  0  0  0  0  0  0  0  0
   72.2771   83.9331   89.0730 C   0  0  0  0  0  0  0  0  0  0  0  0
   71.6201   84.7971   88.1802 C   0  0  0  0  0  0  0  0  0  0  0  0
   72.3462   85.8060   87.5458 O   0  0  0  0  0  0  0  0  0  0  0  0
   70.2346   84.6435   87.9383 C   0  0  0  0  0  0  0  0  0  0  0  0
   69.5387   83.6201   88.6156 C   0  0  0  0  0  0  0  0  0  0  0  0
   73.2635   85.8991   87.7131 H   0  0  0  0  0  0  0  0  0  0  0  0
   69.5014   85.5304   86.9944 C   0  0  0  0  0  0  0  0  0  0  0  0
   69.5032   86.7803   87.1640 O   0  0  0  0  0  0  0  0  0  0  0  0
   68.8021   85.0016   85.9149 O   0  0  0  0  0  0  0  0  0  0  0  0
   68.7896   84.0755   85.7731 H   0  0  0  0  0  0  0  0  0  0  0  0
 18 19  1  0  0  0
 19 20  1  0  0  0
 19 21  1  0  0  0
 19 17  1  0  0  0
 17 16  1  0  0  0
 16 13  1  0  0  0
 13 14  2  0  0  0
 13 15  2  0  0  0
 13  7  1  0  0  0
  7  8  2  0  0  0
  8  9  1  0  0  0
  9 10  2  0  0  0
 10 11  1  0  0  0
 11  1  1  0  0  0
  1  2  2  0  0  0
  2  3  1  0  0  0
  3  4  2  0  0  0
  4  5  1  0  0  0
  5 22  1  0  0  0
 22 23  1  0  0  0
 23 24  1  0  0  0
 24 25  2  0  0  0
 25 26  1  0  0  0
 26 27  2  0  0  0
 27 28  1  0  0  0
 27 29  1  0  0  0
 29 32  1  0  0  0
 32 33  2  0  0  0
 32 34  1  0  0  0
 29 30  2  0  0  0
  5  6  2  0  0  0
 11 12  2  0  0  0
 12  7  1  0  0  0
  6  1  1  0  0  0
 30 24  1  0  0  0
 28 31  1  0  0  0
 34 35  1  0  0  0
M  END
> <score>
0.047374

> <minimizedAffinity>
-9.19648

$$$$
HIPS6246


 34 37  0  0  0  0  0  0  0  0999 V2000
   67.4087   80.2703   88.2661 C   0  0  0  0  0  0  0  0  0  0  0  0
   66.6099   79.3760   87.5872 C   0  0  0  0  0  0  0  0  0  0  0  0
   66.8135   78.0092   87.7343 C   0  0  0  0  0  0  0  0  0  0  0  0
   67.8244   77.5205   88.5670 C   0  0  0  0  0  0  0  0  0  0  0  0
   68.6242   78.4116   89.2466 C   0  0  0  0  0  0  0  0  0  0  0  0
   68.3977   79.7594   89.0803 C   0  0  0  0  0  0  0  0  0  0  0  0
   69.6950   77.9095   90.1288 C   0  0  0  0  0  0  0  0  0  0  0  0
   70.9490   78.4540   90.0774 C   0  0  0  0  0  0  0  0  0  0  0  0
   71.9265   77.9634   90.9146 C   0  0  0  0  0  0  0  0  0  0  0  0
   71.6834   76.9612   91.7837 C   0  0  0  0  0  0  0  0  0  0  0  0
   70.3955   76.3873   91.8498 C   0  0  0  0  0  0  0  0  0  0  0  0
   69.4295   76.8869   91.0097 C   0  0  0  0  0  0  0  0  0  0  0  0
   70.2186   75.3798   92.7524 O   0  0  0  0  0  0  0  0  0  0  0  0
   69.2005   74.5608   93.1199 C   0  0  0  0  0  0  0  0  0  0  0  0
   68.3303   75.1431   94.2210 C   0  0  0  0  0  0  0  0  0  0  0  0
   68.1187   74.1414   95.3172 C   0  0  0  0  0  0  0  0  0  0  0  0
   66.7266   73.9071   95.7555 C   0  0  0  0  0  0  0  0  0  0  0  0
   65.8646   75.0883   95.3834 C   0  0  0  0  0  0  0  0  0  0  0  0
   65.9090   75.1167   93.9681 O   0  0  0  0  0  0  0  0  0  0  0  0
   67.0799   75.7414   93.6441 C   0  0  0  0  0  0  0  0  0  0  0  0
   67.1639   81.7086   88.0864 C   0  0  0  0  0  0  0  0  0  0  0  0
   67.8398   82.2424   86.9487 O   0  0  0  0  0  0  0  0  0  0  0  0
   70.7647   84.0107   88.2689 C   0  0  0  0  0  0  0  0  0  0  0  0
   69.8222   83.0152   87.9941 C   0  0  0  0  0  0  0  0  0  0  0  0
   68.7373   83.2613   87.1859 C   0  0  0  0  0  0  0  0  0  0  0  0
   68.6267   84.5328   86.6634 C   0  0  0  0  0  0  0  0  0  0  0  0
   69.5451   85.5177   86.9261 C   0  0  0  0  0  0  0  0  0  0  0  0
   70.6269   85.2679   87.7333 C   0  0  0  0  0  0  0  0  0  0  0  0
   71.5853   86.2302   88.0306 O   0  0  0  0  0  0  0  0  0  0  0  0
   71.5085   87.0935   87.6746 H   0  0  0  0  0  0  0  0  0  0  0  0
   73.0703   84.0176   88.7955 O   0  0  0  0  0  0  0  0  0  0  0  0
   71.8988   83.7059   89.1305 C   0  0  0  0  0  0  0  0  0  0  0  0
   71.7059   83.0676   90.3335 O   0  0  0  0  0  0  0  0  0  0  0  0
   70.8414   82.8264   90.6025 H   0  0  0  0  0  0  0  0  0  0  0  0
 31 32  2  0  0  0
 32 33  1  0  0  0
 32 23  1  0  0  0
 23 24  2  0  0  0
 24 25  1  0  0  0
 25 22  1  0  0  0
 22 21  1  0  0  0
 21  1  1  0  0  0
  1  2  2  0  0  0
  2  3  1  0  0  0
  3  4  2  0  0  0
  4  5  1  0  0  0
  5  7  1  0  0  0
  7  8  2  0  0  0
  8  9  1  0  0  0
  9 10  2  0  0  0
 10 11  1  0  0  0
 11 13  1  0  0  0
 13 14  1  0  0  0
 15 14  1  0  0  0
 15 16  1  0  0  0
 16 17  1  0  0  0
 17 18  1  0  0  0
 18 19  1  0  0  0
 19 20  1  0  0  0
 11 12  2  0  0  0
  5  6  2  0  0  0
 25 26  2  0  0  0
 26 27  1  0  0  0
 27 28  2  0  0  0
 28 29  1  0  0  0
 28 23  1  0  0  0
  6  1  1  0  0  0
 12  7  1  0  0  0
 20 15  1  0  0  0
 33 34  1  0  0  0
 29 30  1  0  0  0
M  END
> <score>
-0.091551

> <minimizedAffinity>
-9.12331

$$$$
HIPS6246


 34 37  0  0  0  0  0  0  0  0999 V2000
   70.4075   78.2091   90.7919 C   0  0  0  0  0  0  0  0  0  0  0  0
   69.0321   78.2390   90.7123 C   0  0  0  0  0  0  0  0  0  0  0  0
   68.3832   79.3967   90.3004 C   0  0  0  0  0  0  0  0  0  0  0  0
   69.1081   80.5431   89.9620 C   0  0  0  0  0  0  0  0  0  0  0  0
   70.4824   80.5164   90.0406 C   0  0  0  0  0  0  0  0  0  0  0  0
   71.0961   79.3546   90.4519 C   0  0  0  0  0  0  0  0  0  0  0  0
   71.2598   81.7193   89.6865 C   0  0  0  0  0  0  0  0  0  0  0  0
   72.5079   81.9182   90.2104 C   0  0  0  0  0  0  0  0  0  0  0  0
   73.2083   83.0510   89.8594 C   0  0  0  0  0  0  0  0  0  0  0  0
   72.6993   83.9705   89.0143 C   0  0  0  0  0  0  0  0  0  0  0  0
   71.4129   83.7818   88.4648 C   0  0  0  0  0  0  0  0  0  0  0  0
   70.7255   82.6469   88.8225 C   0  0  0  0  0  0  0  0  0  0  0  0
   70.9607   84.7491   87.6158 O   0  0  0  0  0  0  0  0  0  0  0  0
   69.8401   84.9616   86.8800 C   0  0  0  0  0  0  0  0  0  0  0  0
   68.6732   85.4830   87.7019 C   0  0  0  0  0  0  0  0  0  0  0  0
   69.1586   86.1184   88.9709 C   0  0  0  0  0  0  0  0  0  0  0  0
   68.5163   85.6844   90.2295 C   0  0  0  0  0  0  0  0  0  0  0  0
   67.1619   85.0874   89.9365 C   0  0  0  0  0  0  0  0  0  0  0  0
   67.4497   83.9495   89.1438 O   0  0  0  0  0  0  0  0  0  0  0  0
   67.6304   84.4164   87.8727 C   0  0  0  0  0  0  0  0  0  0  0  0
   71.0594   76.9670   91.2311 C   0  0  0  0  0  0  0  0  0  0  0  0
   70.5171   76.4644   92.4514 O   0  0  0  0  0  0  0  0  0  0  0  0
   67.9170   74.0508   93.3673 C   0  0  0  0  0  0  0  0  0  0  0  0
   68.8268   75.1112   93.4169 C   0  0  0  0  0  0  0  0  0  0  0  0
   69.6388   75.4072   92.3473 C   0  0  0  0  0  0  0  0  0  0  0  0
   69.5107   74.6092   91.2298 C   0  0  0  0  0  0  0  0  0  0  0  0
   68.6216   73.5660   91.1696 C   0  0  0  0  0  0  0  0  0  0  0  0
   67.8127   73.2739   92.2395 C   0  0  0  0  0  0  0  0  0  0  0  0
   66.8959   72.2288   92.2297 O   0  0  0  0  0  0  0  0  0  0  0  0
   66.8104   71.6877   91.4695 H   0  0  0  0  0  0  0  0  0  0  0  0
   67.5772   73.3975   95.6148 O   0  0  0  0  0  0  0  0  0  0  0  0
   67.0763   73.7730   94.5239 C   0  0  0  0  0  0  0  0  0  0  0  0
   65.7110   73.9176   94.4415 O   0  0  0  0  0  0  0  0  0  0  0  0
   65.3170   74.1962   93.6384 H   0  0  0  0  0  0  0  0  0  0  0  0
 31 32  2  0  0  0
 32 33  1  0  0  0
 32 23  1  0  0  0
 23 24  2  0  0  0
 24 25  1  0  0  0
 25 22  1  0  0  0
 22 21  1  0  0  0
 21  1  1  0  0  0
  1  2  2  0  0  0
  2  3  1  0  0  0
  3  4  2  0  0  0
  4  5  1  0  0  0
  5  7  1  0  0  0
  7  8  2  0  0  0
  8  9  1  0  0  0
  9 10  2  0  0  0
 10 11  1  0  0  0
 11 13  1  0  0  0
 13 14  1  0  0  0
 15 14  1  0  0  0
 15 16  1  0  0  0
 16 17  1  0  0  0
 17 18  1  0  0  0
 18 19  1  0  0  0
 19 20  1  0  0  0
 11 12  2  0  0  0
  5  6  2  0  0  0
 25 26  2  0  0  0
 26 27  1  0  0  0
 27 28  2  0  0  0
 28 29  1  0  0  0
 28 23  1  0  0  0
  6  1  1  0  0  0
 12  7  1  0  0  0
 20 15  1  0  0  0
 33 34  1  0  0  0
 29 30  1  0  0  0
M  END
> <score>
-0.091551

> <minimizedAffinity>
-9.10518

$$$$
HIPS6246


 34 37  0  0  0  0  0  0  0  0999 V2000
   68.7627   79.0693   89.4080 C   0  0  0  0  0  0  0  0  0  0  0  0
   67.7738   79.7829   88.7664 C   0  0  0  0  0  0  0  0  0  0  0  0
   66.6804   79.1216   88.2202 C   0  0  0  0  0  0  0  0  0  0  0  0
   66.5646   77.7314   88.3110 C   0  0  0  0  0  0  0  0  0  0  0  0
   67.5511   77.0157   88.9514 C   0  0  0  0  0  0  0  0  0  0  0  0
   68.6217   77.6994   89.4822 C   0  0  0  0  0  0  0  0  0  0  0  0
   67.4417   75.5480   89.0544 C   0  0  0  0  0  0  0  0  0  0  0  0
   66.7558   74.8351   88.1093 C   0  0  0  0  0  0  0  0  0  0  0  0
   66.6726   73.4659   88.2336 C   0  0  0  0  0  0  0  0  0  0  0  0
   67.2475   72.8072   89.2606 C   0  0  0  0  0  0  0  0  0  0  0  0
   67.9585   73.5268   90.2449 C   0  0  0  0  0  0  0  0  0  0  0  0
   68.0346   74.8921   90.1082 C   0  0  0  0  0  0  0  0  0  0  0  0
   68.5167   72.7978   91.2540 O   0  0  0  0  0  0  0  0  0  0  0  0
   68.0845   72.2333   92.4101 C   0  0  0  0  0  0  0  0  0  0  0  0
   68.2946   73.1205   93.6257 C   0  0  0  0  0  0  0  0  0  0  0  0
   67.1903   74.1285   93.7454 C   0  0  0  0  0  0  0  0  0  0  0  0
   67.5853   75.5412   93.9275 C   0  0  0  0  0  0  0  0  0  0  0  0
   68.9889   75.6163   94.4760 C   0  0  0  0  0  0  0  0  0  0  0  0
   69.7883   75.0360   93.4611 O   0  0  0  0  0  0  0  0  0  0  0  0
   69.6860   73.6845   93.6326 C   0  0  0  0  0  0  0  0  0  0  0  0
   69.9042   79.8025   89.9738 C   0  0  0  0  0  0  0  0  0  0  0  0
   69.5764   81.1480   90.3175 O   0  0  0  0  0  0  0  0  0  0  0  0
   70.4769   84.0478   88.2669 C   0  0  0  0  0  0  0  0  0  0  0  0
   69.7466   83.0249   88.8792 C   0  0  0  0  0  0  0  0  0  0  0  0
   70.3451   82.1368   89.7418 C   0  0  0  0  0  0  0  0  0  0  0  0
   71.6946   82.3055   89.9706 C   0  0  0  0  0  0  0  0  0  0  0  0
   72.4215   83.3053   89.3754 C   0  0  0  0  0  0  0  0  0  0  0  0
   71.8203   84.1900   88.5150 C   0  0  0  0  0  0  0  0  0  0  0  0
   72.5112   85.2198   87.8865 O   0  0  0  0  0  0  0  0  0  0  0  0
   73.4281   85.3328   88.0432 H   0  0  0  0  0  0  0  0  0  0  0  0
   68.8293   85.6629   87.7471 O   0  0  0  0  0  0  0  0  0  0  0  0
   69.8023   84.9662   87.3598 C   0  0  0  0  0  0  0  0  0  0  0  0
   70.2210   85.0876   86.0553 O   0  0  0  0  0  0  0  0  0  0  0  0
   70.9439   84.5780   85.7459 H   0  0  0  0  0  0  0  0  0  0  0  0
 31 32  2  0  0  0
 32 33  1  0  0  0
 32 23  1  0  0  0
 23 24  2  0  0  0
 24 25  1  0  0  0
 25 22  1  0  0  0
 22 21  1  0  0  0
 21  1  1  0  0  0
  1  2  2  0  0  0
  2  3  1  0  0  0
  3  4  2  0  0  0
  4  5  1  0  0  0
  5  7  1  0  0  0
  7  8  2  0  0  0
  8  9  1  0  0  0
  9 10  2  0  0  0
 10 11  1  0  0  0
 11 13  1  0  0  0
 13 14  1  0  0  0
 15 14  1  0  0  0
 15 16  1  0  0  0
 16 17  1  0  0  0
 17 18  1  0  0  0
 18 19  1  0  0  0
 19 20  1  0  0  0
 11 12  2  0  0  0
  5  6  2  0  0  0
 25 26  2  0  0  0
 26 27  1  0  0  0
 27 28  2  0  0  0
 28 29  1  0  0  0
 28 23  1  0  0  0
  6  1  1  0  0  0
 12  7  1  0  0  0
 20 15  1  0  0  0
 33 34  1  0  0  0
 29 30  1  0  0  0
M  END
> <score>
-0.091551

> <minimizedAffinity>
-8.89368

$$$$
HIPS6247


 35 37  0  0  0  0  0  0  0  0999 V2000
   67.6890   76.7728   89.0634 C   0  0  0  0  0  0  0  0  0  0  0  0
   67.1108   76.9597   87.7961 C   0  0  0  0  0  0  0  0  0  0  0  0
   66.9773   78.2446   87.2640 C   0  0  0  0  0  0  0  0  0  0  0  0
   67.3983   79.3561   87.9975 C   0  0  0  0  0  0  0  0  0  0  0  0
   67.9585   79.1893   89.2733 C   0  0  0  0  0  0  0  0  0  0  0  0
   68.1270   77.8939   89.7885 C   0  0  0  0  0  0  0  0  0  0  0  0
   68.6328   73.9383   91.3966 C   0  0  0  0  0  0  0  0  0  0  0  0
   68.0885   72.8370   90.7224 C   0  0  0  0  0  0  0  0  0  0  0  0
   67.4028   73.0219   89.5197 C   0  0  0  0  0  0  0  0  0  0  0  0
   67.2609   74.3034   88.9812 C   0  0  0  0  0  0  0  0  0  0  0  0
   67.7929   75.4179   89.6523 C   0  0  0  0  0  0  0  0  0  0  0  0
   68.4683   75.2256   90.8694 C   0  0  0  0  0  0  0  0  0  0  0  0
   69.5647   73.7219   92.8741 S   0  0  0  0  0  0  0  0  0  0  0  0
   70.2829   74.9935   93.2349 O   0  0  0  0  0  0  0  0  0  0  0  0
   70.6040   72.6695   92.6068 O   0  0  0  0  0  0  0  0  0  0  0  0
   68.5735   73.1904   94.2154 N   0  0  0  0  0  0  0  0  0  0  0  0
   68.1714   72.2887   93.9593 H   0  0  0  0  0  0  0  0  0  0  0  0
   67.8258   75.5695   94.5461 C   0  0  0  0  0  0  0  0  0  0  0  0
   67.4546   74.0729   94.6356 C   0  0  0  0  0  0  0  0  0  0  0  0
   66.1653   73.8014   93.8239 C   0  0  0  0  0  0  0  0  0  0  0  0
   67.1651   73.7481   96.1140 C   0  0  0  0  0  0  0  0  0  0  0  0
   68.3688   80.3872   90.0905 C   0  0  0  0  0  0  0  0  0  0  0  0
   69.7808   80.5960   90.0117 O   0  0  0  0  0  0  0  0  0  0  0  0
   70.3999   81.7745   89.5570 C   0  0  0  0  0  0  0  0  0  0  0  0
   71.6864   82.1596   89.9700 C   0  0  0  0  0  0  0  0  0  0  0  0
   72.2710   83.3187   89.4580 C   0  0  0  0  0  0  0  0  0  0  0  0
   71.5895   84.1136   88.5306 C   0  0  0  0  0  0  0  0  0  0  0  0
   72.2653   85.2098   87.9961 O   0  0  0  0  0  0  0  0  0  0  0  0
   70.2712   83.7655   88.1441 C   0  0  0  0  0  0  0  0  0  0  0  0
   69.7012   82.5863   88.6566 C   0  0  0  0  0  0  0  0  0  0  0  0
   73.1369   85.4062   88.2786 H   0  0  0  0  0  0  0  0  0  0  0  0
   69.4541   84.6046   87.2399 C   0  0  0  0  0  0  0  0  0  0  0  0
   68.2173   84.7503   87.4379 O   0  0  0  0  0  0  0  0  0  0  0  0
   70.0407   85.1956   86.1237 O   0  0  0  0  0  0  0  0  0  0  0  0
   70.9589   85.0933   85.9676 H   0  0  0  0  0  0  0  0  0  0  0  0
 18 19  1  0  0  0
 19 20  1  0  0  0
 19 21  1  0  0  0
 19 16  1  0  0  0
 16 13  1  0  0  0
 13 14  2  0  0  0
 13 15  2  0  0  0
 13  7  1  0  0  0
  7  8  2  0  0  0
  8  9  1  0  0  0
  9 10  2  0  0  0
 10 11  1  0  0  0
 11  1  1  0  0  0
  1  2  2  0  0  0
  2  3  1  0  0  0
  3  4  2  0  0  0
  4  5  1  0  0  0
  5 22  1  0  0  0
 22 23  1  0  0  0
 23 24  1  0  0  0
 24 25  2  0  0  0
 25 26  1  0  0  0
 26 27  2  0  0  0
 27 28  1  0  0  0
 27 29  1  0  0  0
 29 32  1  0  0  0
 32 33  2  0  0  0
 32 34  1  0  0  0
 29 30  2  0  0  0
  5  6  2  0  0  0
 11 12  2  0  0  0
 12  7  1  0  0  0
  6  1  1  0  0  0
 30 24  1  0  0  0
 16 17  1  0  0  0
 28 31  1  0  0  0
 34 35  1  0  0  0
M  END
> <score>
0.265994

> <minimizedAffinity>
-9.57733

$$$$
HIPS6247


 35 37  0  0  0  0  0  0  0  0999 V2000
   67.5989   76.4980   88.8602 C   0  0  0  0  0  0  0  0  0  0  0  0
   66.9819   76.5868   87.6004 C   0  0  0  0  0  0  0  0  0  0  0  0
   66.8297   77.8269   86.9752 C   0  0  0  0  0  0  0  0  0  0  0  0
   67.2705   78.9915   87.6077 C   0  0  0  0  0  0  0  0  0  0  0  0
   67.8696   78.9234   88.8748 C   0  0  0  0  0  0  0  0  0  0  0  0
   68.0563   77.6715   89.4829 C   0  0  0  0  0  0  0  0  0  0  0  0
   68.6206   73.8511   91.3738 C   0  0  0  0  0  0  0  0  0  0  0  0
   68.0567   72.7016   90.8044 C   0  0  0  0  0  0  0  0  0  0  0  0
   67.3326   72.7938   89.6135 C   0  0  0  0  0  0  0  0  0  0  0  0
   67.1717   74.0301   88.9826 C   0  0  0  0  0  0  0  0  0  0  0  0
   67.7234   75.1925   89.5482 C   0  0  0  0  0  0  0  0  0  0  0  0
   68.4376   75.0940   90.7544 C   0  0  0  0  0  0  0  0  0  0  0  0
   69.5997   73.7485   92.8331 S   0  0  0  0  0  0  0  0  0  0  0  0
   70.2578   75.0703   93.1199 O   0  0  0  0  0  0  0  0  0  0  0  0
   70.6866   72.7411   92.5821 O   0  0  0  0  0  0  0  0  0  0  0  0
   68.6722   73.2250   94.2223 N   0  0  0  0  0  0  0  0  0  0  0  0
   68.3147   72.2921   94.0167 H   0  0  0  0  0  0  0  0  0  0  0  0
   66.2921   73.8612   93.7136 C   0  0  0  0  0  0  0  0  0  0  0  0
   67.5166   74.0634   94.6331 C   0  0  0  0  0  0  0  0  0  0  0  0
   67.1144   73.8151   96.1067 C   0  0  0  0  0  0  0  0  0  0  0  0
   67.9655   75.5318   94.5018 C   0  0  0  0  0  0  0  0  0  0  0  0
   68.3021   80.1806   89.5844 C   0  0  0  0  0  0  0  0  0  0  0  0
   67.5999   81.3175   89.0763 O   0  0  0  0  0  0  0  0  0  0  0  0
   68.1802   82.3594   88.3302 C   0  0  0  0  0  0  0  0  0  0  0  0
   67.4877   83.0355   87.3118 C   0  0  0  0  0  0  0  0  0  0  0  0
   68.0963   84.0890   86.6283 C   0  0  0  0  0  0  0  0  0  0  0  0
   69.3997   84.4871   86.9426 C   0  0  0  0  0  0  0  0  0  0  0  0
   69.9149   85.6006   86.2801 O   0  0  0  0  0  0  0  0  0  0  0  0
   70.1287   83.7811   87.9318 C   0  0  0  0  0  0  0  0  0  0  0  0
   69.4968   82.7317   88.6230 C   0  0  0  0  0  0  0  0  0  0  0  0
   69.4002   86.0397   85.6319 H   0  0  0  0  0  0  0  0  0  0  0  0
   71.5406   84.0840   88.2546 C   0  0  0  0  0  0  0  0  0  0  0  0
   72.1836   83.3679   89.0693 O   0  0  0  0  0  0  0  0  0  0  0  0
   72.1536   85.2046   87.6997 O   0  0  0  0  0  0  0  0  0  0  0  0
   71.6844   85.7432   87.0933 H   0  0  0  0  0  0  0  0  0  0  0  0
 18 19  1  0  0  0
 19 20  1  0  0  0
 19 21  1  0  0  0
 19 16  1  0  0  0
 16 13  1  0  0  0
 13 14  2  0  0  0
 13 15  2  0  0  0
 13  7  1  0  0  0
  7  8  2  0  0  0
  8  9  1  0  0  0
  9 10  2  0  0  0
 10 11  1  0  0  0
 11  1  1  0  0  0
  1  2  2  0  0  0
  2  3  1  0  0  0
  3  4  2  0  0  0
  4  5  1  0  0  0
  5 22  1  0  0  0
 22 23  1  0  0  0
 23 24  1  0  0  0
 24 25  2  0  0  0
 25 26  1  0  0  0
 26 27  2  0  0  0
 27 28  1  0  0  0
 27 29  1  0  0  0
 29 32  1  0  0  0
 32 33  2  0  0  0
 32 34  1  0  0  0
 29 30  2  0  0  0
  5  6  2  0  0  0
 11 12  2  0  0  0
 12  7  1  0  0  0
  6  1  1  0  0  0
 30 24  1  0  0  0
 16 17  1  0  0  0
 28 31  1  0  0  0
 34 35  1  0  0  0
M  END
> <score>
0.265994

> <minimizedAffinity>
-9.54304

$$$$
HIPS6247


 35 37  0  0  0  0  0  0  0  0999 V2000
   68.5908   78.5760   89.1832 C   0  0  0  0  0  0  0  0  0  0  0  0
   67.8070   77.7524   88.3569 C   0  0  0  0  0  0  0  0  0  0  0  0
   66.8503   78.3121   87.5064 C   0  0  0  0  0  0  0  0  0  0  0  0
   66.6505   79.6943   87.4866 C   0  0  0  0  0  0  0  0  0  0  0  0
   67.4097   80.5295   88.3203 C   0  0  0  0  0  0  0  0  0  0  0  0
   68.3972   79.9671   89.1452 C   0  0  0  0  0  0  0  0  0  0  0  0
   70.0620   76.6448   92.0943 C   0  0  0  0  0  0  0  0  0  0  0  0
   71.4234   76.9503   91.9647 C   0  0  0  0  0  0  0  0  0  0  0  0
   71.8601   77.7702   90.9216 C   0  0  0  0  0  0  0  0  0  0  0  0
   70.9423   78.2931   90.0069 C   0  0  0  0  0  0  0  0  0  0  0  0
   69.5754   77.9862   90.1194 C   0  0  0  0  0  0  0  0  0  0  0  0
   69.1456   77.1484   91.1624 C   0  0  0  0  0  0  0  0  0  0  0  0
   69.4788   75.6754   93.4430 S   0  0  0  0  0  0  0  0  0  0  0  0
   69.9264   76.2689   94.7507 O   0  0  0  0  0  0  0  0  0  0  0  0
   70.0978   74.3109   93.3240 O   0  0  0  0  0  0  0  0  0  0  0  0
   67.7377   75.4945   93.4299 N   0  0  0  0  0  0  0  0  0  0  0  0
   67.3443   76.2919   93.9297 H   0  0  0  0  0  0  0  0  0  0  0  0
   67.2655   73.0467   93.0927 C   0  0  0  0  0  0  0  0  0  0  0  0
   67.1697   74.2640   94.0386 C   0  0  0  0  0  0  0  0  0  0  0  0
   67.8329   73.9288   95.3960 C   0  0  0  0  0  0  0  0  0  0  0  0
   65.6760   74.5446   94.2935 C   0  0  0  0  0  0  0  0  0  0  0  0
   67.1647   82.0163   88.3404 C   0  0  0  0  0  0  0  0  0  0  0  0
   67.8239   82.6543   87.2441 O   0  0  0  0  0  0  0  0  0  0  0  0
   68.9430   83.4997   87.3542 C   0  0  0  0  0  0  0  0  0  0  0  0
   69.0619   84.6943   86.6245 C   0  0  0  0  0  0  0  0  0  0  0  0
   70.1753   85.5170   86.8003 C   0  0  0  0  0  0  0  0  0  0  0  0
   71.1873   85.1678   87.7004 C   0  0  0  0  0  0  0  0  0  0  0  0
   72.2282   86.0761   87.8896 O   0  0  0  0  0  0  0  0  0  0  0  0
   71.1059   83.9408   88.4049 C   0  0  0  0  0  0  0  0  0  0  0  0
   69.9704   83.1296   88.2290 C   0  0  0  0  0  0  0  0  0  0  0  0
   72.2452   86.8770   87.4035 H   0  0  0  0  0  0  0  0  0  0  0  0
   72.1791   83.4606   89.3033 C   0  0  0  0  0  0  0  0  0  0  0  0
   73.3246   83.9871   89.2781 O   0  0  0  0  0  0  0  0  0  0  0  0
   71.9441   82.3781   90.1472 O   0  0  0  0  0  0  0  0  0  0  0  0
   71.0963   81.9798   90.1733 H   0  0  0  0  0  0  0  0  0  0  0  0
 18 19  1  0  0  0
 19 20  1  0  0  0
 19 21  1  0  0  0
 19 16  1  0  0  0
 16 13  1  0  0  0
 13 14  2  0  0  0
 13 15  2  0  0  0
 13  7  1  0  0  0
  7  8  2  0  0  0
  8  9  1  0  0  0
  9 10  2  0  0  0
 10 11  1  0  0  0
 11  1  1  0  0  0
  1  2  2  0  0  0
  2  3  1  0  0  0
  3  4  2  0  0  0
  4  5  1  0  0  0
  5 22  1  0  0  0
 22 23  1  0  0  0
 23 24  1  0  0  0
 24 25  2  0  0  0
 25 26  1  0  0  0
 26 27  2  0  0  0
 27 28  1  0  0  0
 27 29  1  0  0  0
 29 32  1  0  0  0
 32 33  2  0  0  0
 32 34  1  0  0  0
 29 30  2  0  0  0
  5  6  2  0  0  0
 11 12  2  0  0  0
 12  7  1  0  0  0
  6  1  1  0  0  0
 30 24  1  0  0  0
 16 17  1  0  0  0
 28 31  1  0  0  0
 34 35  1  0  0  0
M  END
> <score>
0.265994

> <minimizedAffinity>
-9.25518

$$$$
HIPS6249


 30 33  0  0  0  0  0  0  0  0999 V2000
   67.6817   78.3846   90.3993 C   0  0  0  0  0  0  0  0  0  0  0  0
   67.6568   79.7565   90.1138 C   0  0  0  0  0  0  0  0  0  0  0  0
   67.5428   80.2123   88.7897 C   0  0  0  0  0  0  0  0  0  0  0  0
   67.4417   79.2685   87.7513 C   0  0  0  0  0  0  0  0  0  0  0  0
   67.4514   77.8878   88.0217 C   0  0  0  0  0  0  0  0  0  0  0  0
   67.5677   77.4580   89.3544 C   0  0  0  0  0  0  0  0  0  0  0  0
   67.5295   81.6679   88.4916 C   0  0  0  0  0  0  0  0  0  0  0  0
   67.6469   82.2676   87.2497 C   0  0  0  0  0  0  0  0  0  0  0  0
   67.5776   83.6256   87.4772 C   0  0  0  0  0  0  0  0  0  0  0  0
   67.4317   83.8539   88.7615 O   0  0  0  0  0  0  0  0  0  0  0  0
   67.3992   82.7068   89.3992 C   0  0  0  0  0  0  0  0  0  0  0  0
   67.3457   76.8998   86.9164 C   0  0  0  0  0  0  0  0  0  0  0  0
   67.5965   77.1190   85.5727 C   0  0  0  0  0  0  0  0  0  0  0  0
   67.3698   75.9135   84.9434 C   0  0  0  0  0  0  0  0  0  0  0  0
   67.0036   75.0138   85.8261 O   0  0  0  0  0  0  0  0  0  0  0  0
   66.9781   75.5674   87.0162 C   0  0  0  0  0  0  0  0  0  0  0  0
   67.8082   77.9015   91.8210 C   0  0  0  0  0  0  0  0  0  0  0  0
   66.8337   76.8962   92.1026 O   0  0  0  0  0  0  0  0  0  0  0  0
   68.1000   74.2766   94.4004 C   0  0  0  0  0  0  0  0  0  0  0  0
   67.9866   75.1756   93.3248 C   0  0  0  0  0  0  0  0  0  0  0  0
   66.8723   76.0104   93.1919 C   0  0  0  0  0  0  0  0  0  0  0  0
   65.8435   75.9369   94.1458 C   0  0  0  0  0  0  0  0  0  0  0  0
   65.9326   75.0353   95.2066 C   0  0  0  0  0  0  0  0  0  0  0  0
   67.0384   74.1886   95.3355 C   0  0  0  0  0  0  0  0  0  0  0  0
   67.0254   73.2584   96.3772 O   0  0  0  0  0  0  0  0  0  0  0  0
   66.3036   73.2336   96.9742 H   0  0  0  0  0  0  0  0  0  0  0  0
   69.5693   72.7940   95.5530 O   0  0  0  0  0  0  0  0  0  0  0  0
   69.3437   73.4845   94.5235 C   0  0  0  0  0  0  0  0  0  0  0  0
   70.3074   73.5481   93.5204 O   0  0  0  0  0  0  0  0  0  0  0  0
   70.1496   74.0587   92.7508 H   0  0  0  0  0  0  0  0  0  0  0  0
 27 28  2  0  0  0
 28 29  1  0  0  0
 28 19  1  0  0  0
 19 20  2  0  0  0
 20 21  1  0  0  0
 21 18  1  0  0  0
 18 17  1  0  0  0
 17  1  1  0  0  0
  1  2  2  0  0  0
  2  3  1  0  0  0
  3  7  1  0  0  0
  7  8  1  0  0  0
  8  9  2  0  0  0
  9 10  1  0  0  0
 10 11  1  0  0  0
  3  4  2  0  0  0
  4  5  1  0  0  0
  5 12  1  0  0  0
 12 13  1  0  0  0
 13 14  2  0  0  0
 14 15  1  0  0  0
 15 16  1  0  0  0
  5  6  2  0  0  0
 21 22  2  0  0  0
 22 23  1  0  0  0
 23 24  2  0  0  0
 24 25  1  0  0  0
 24 19  1  0  0  0
  6  1  1  0  0  0
 11  7  2  0  0  0
 16 12  2  0  0  0
 29 30  1  0  0  0
 25 26  1  0  0  0
M  END
> <score>
0.222504

> <minimizedAffinity>
-8.30236

$$$$
HIPS6249


 30 33  0  0  0  0  0  0  0  0999 V2000
   67.8510   78.3261   90.3540 C   0  0  0  0  0  0  0  0  0  0  0  0
   67.7285   77.4114   89.2991 C   0  0  0  0  0  0  0  0  0  0  0  0
   67.5460   77.8577   87.9794 C   0  0  0  0  0  0  0  0  0  0  0  0
   67.4996   79.2413   87.7291 C   0  0  0  0  0  0  0  0  0  0  0  0
   67.6346   80.1731   88.7745 C   0  0  0  0  0  0  0  0  0  0  0  0
   67.8148   79.7009   90.0855 C   0  0  0  0  0  0  0  0  0  0  0  0
   67.4042   76.8833   86.8667 C   0  0  0  0  0  0  0  0  0  0  0  0
   67.6571   77.1055   85.5241 C   0  0  0  0  0  0  0  0  0  0  0  0
   67.3853   75.9142   84.8855 C   0  0  0  0  0  0  0  0  0  0  0  0
   66.9906   75.0205   85.7621 O   0  0  0  0  0  0  0  0  0  0  0  0
   66.9893   75.5643   86.9570 C   0  0  0  0  0  0  0  0  0  0  0  0
   67.5823   81.6326   88.4983 C   0  0  0  0  0  0  0  0  0  0  0  0
   67.6255   82.2510   87.2605 C   0  0  0  0  0  0  0  0  0  0  0  0
   67.5426   83.6043   87.5100 C   0  0  0  0  0  0  0  0  0  0  0  0
   67.4571   83.8130   88.8030 O   0  0  0  0  0  0  0  0  0  0  0  0
   67.4780   82.6573   89.4254 C   0  0  0  0  0  0  0  0  0  0  0  0
   68.0425   77.8418   91.7679 C   0  0  0  0  0  0  0  0  0  0  0  0
   66.9078   77.0925   92.2044 O   0  0  0  0  0  0  0  0  0  0  0  0
   68.1160   74.3929   94.4402 C   0  0  0  0  0  0  0  0  0  0  0  0
   68.0395   75.3443   93.4072 C   0  0  0  0  0  0  0  0  0  0  0  0
   66.9084   76.1513   93.2470 C   0  0  0  0  0  0  0  0  0  0  0  0
   65.8257   75.9963   94.1287 C   0  0  0  0  0  0  0  0  0  0  0  0
   65.8789   75.0424   95.1453 C   0  0  0  0  0  0  0  0  0  0  0  0
   67.0022   74.2235   95.3004 C   0  0  0  0  0  0  0  0  0  0  0  0
   66.9557   73.2390   96.2899 O   0  0  0  0  0  0  0  0  0  0  0  0
   66.1997   73.1608   96.8379 H   0  0  0  0  0  0  0  0  0  0  0  0
   70.2506   73.6359   93.6945 O   0  0  0  0  0  0  0  0  0  0  0  0
   69.3753   73.6330   94.6010 C   0  0  0  0  0  0  0  0  0  0  0  0
   69.5740   72.8543   95.7381 O   0  0  0  0  0  0  0  0  0  0  0  0
   68.9293   72.8450   96.4180 H   0  0  0  0  0  0  0  0  0  0  0  0
 27 28  2  0  0  0
 28 29  1  0  0  0
 28 19  1  0  0  0
 19 20  2  0  0  0
 20 21  1  0  0  0
 21 18  1  0  0  0
 18 17  1  0  0  0
 17  1  1  0  0  0
  1  2  2  0  0  0
  2  3  1  0  0  0
  3  7  1  0  0  0
  7  8  1  0  0  0
  8  9  2  0  0  0
  9 10  1  0  0  0
 10 11  1  0  0  0
  3  4  2  0  0  0
  4  5  1  0  0  0
  5 12  1  0  0  0
 12 13  1  0  0  0
 13 14  2  0  0  0
 14 15  1  0  0  0
 15 16  1  0  0  0
  5  6  2  0  0  0
 21 22  2  0  0  0
 22 23  1  0  0  0
 23 24  2  0  0  0
 24 25  1  0  0  0
 24 19  1  0  0  0
  6  1  1  0  0  0
 11  7  2  0  0  0
 16 12  2  0  0  0
 29 30  1  0  0  0
 25 26  1  0  0  0
M  END
> <score>
0.222504

> <minimizedAffinity>
-8.28010

$$$$
HIPS6249


 30 33  0  0  0  0  0  0  0  0999 V2000
   67.7005   79.8449   89.5982 C   0  0  0  0  0  0  0  0  0  0  0  0
   68.2526   79.1763   90.6994 C   0  0  0  0  0  0  0  0  0  0  0  0
   68.5819   77.8127   90.6201 C   0  0  0  0  0  0  0  0  0  0  0  0
   68.3597   77.1280   89.4114 C   0  0  0  0  0  0  0  0  0  0  0  0
   67.8190   77.7874   88.2923 C   0  0  0  0  0  0  0  0  0  0  0  0
   67.4971   79.1510   88.3980 C   0  0  0  0  0  0  0  0  0  0  0  0
   69.1553   77.1059   91.7946 C   0  0  0  0  0  0  0  0  0  0  0  0
   68.5618   76.9234   93.0316 C   0  0  0  0  0  0  0  0  0  0  0  0
   69.4712   76.2137   93.7867 C   0  0  0  0  0  0  0  0  0  0  0  0
   70.5487   75.9756   93.0760 O   0  0  0  0  0  0  0  0  0  0  0  0
   70.3958   76.4945   91.8797 C   0  0  0  0  0  0  0  0  0  0  0  0
   67.5871   77.0533   87.0209 C   0  0  0  0  0  0  0  0  0  0  0  0
   67.8917   77.4826   85.7405 C   0  0  0  0  0  0  0  0  0  0  0  0
   67.4992   76.4656   84.8965 C   0  0  0  0  0  0  0  0  0  0  0  0
   66.9874   75.4803   85.5965 O   0  0  0  0  0  0  0  0  0  0  0  0
   67.0233   75.7964   86.8702 C   0  0  0  0  0  0  0  0  0  0  0  0
   67.3455   81.3064   89.6901 C   0  0  0  0  0  0  0  0  0  0  0  0
   67.7429   81.9993   88.5063 O   0  0  0  0  0  0  0  0  0  0  0  0
   71.2552   83.0104   89.1286 C   0  0  0  0  0  0  0  0  0  0  0  0
   69.9832   82.4270   89.2689 C   0  0  0  0  0  0  0  0  0  0  0  0
   68.9842   82.6269   88.3107 C   0  0  0  0  0  0  0  0  0  0  0  0
   69.2566   83.4366   87.1955 C   0  0  0  0  0  0  0  0  0  0  0  0
   70.5070   84.0386   87.0534 C   0  0  0  0  0  0  0  0  0  0  0  0
   71.5044   83.8530   88.0164 C   0  0  0  0  0  0  0  0  0  0  0  0
   72.7048   84.5472   87.8494 O   0  0  0  0  0  0  0  0  0  0  0  0
   72.8290   85.0944   87.0989 H   0  0  0  0  0  0  0  0  0  0  0  0
   71.9759   82.1480   91.2316 O   0  0  0  0  0  0  0  0  0  0  0  0
   72.2889   82.6883   90.1371 C   0  0  0  0  0  0  0  0  0  0  0  0
   73.6160   83.0404   89.9055 O   0  0  0  0  0  0  0  0  0  0  0  0
   73.8594   83.4427   89.0950 H   0  0  0  0  0  0  0  0  0  0  0  0
 27 28  2  0  0  0
 28 29  1  0  0  0
 28 19  1  0  0  0
 19 20  2  0  0  0
 20 21  1  0  0  0
 21 18  1  0  0  0
 18 17  1  0  0  0
 17  1  1  0  0  0
  1  2  2  0  0  0
  2  3  1  0  0  0
  3  7  1  0  0  0
  7  8  1  0  0  0
  8  9  2  0  0  0
  9 10  1  0  0  0
 10 11  1  0  0  0
  3  4  2  0  0  0
  4  5  1  0  0  0
  5 12  1  0  0  0
 12 13  1  0  0  0
 13 14  2  0  0  0
 14 15  1  0  0  0
 15 16  1  0  0  0
  5  6  2  0  0  0
 21 22  2  0  0  0
 22 23  1  0  0  0
 23 24  2  0  0  0
 24 25  1  0  0  0
 24 19  1  0  0  0
  6  1  1  0  0  0
 11  7  2  0  0  0
 16 12  2  0  0  0
 29 30  1  0  0  0
 25 26  1  0  0  0
M  END
> <score>
0.222504

> <minimizedAffinity>
-8.12829

$$$$
HIPS6276


 31 32  0  0  0  0  0  0  0  0999 V2000
   70.6684   76.9002   90.6549 O   0  0  0  0  0  0  0  0  0  0  0  0
   69.0564   74.8255   93.9640 C   0  0  0  0  0  0  0  0  0  0  0  0
   69.2978   76.2059   94.0521 C   0  0  0  0  0  0  0  0  0  0  0  0
   69.8291   76.9084   92.9715 C   0  0  0  0  0  0  0  0  0  0  0  0
   70.1387   76.2402   91.7762 C   0  0  0  0  0  0  0  0  0  0  0  0
   69.9143   74.8632   91.6863 C   0  0  0  0  0  0  0  0  0  0  0  0
   69.3660   74.1407   92.7619 C   0  0  0  0  0  0  0  0  0  0  0  0
   66.8144   73.4085   96.7872 C   0  0  0  0  0  0  0  0  0  0  0  0
   67.2058   74.0193   95.4811 C   0  0  0  0  0  0  0  0  0  0  0  0
   66.3118   74.4411   94.6986 O   0  0  0  0  0  0  0  0  0  0  0  0
   68.5924   74.1161   95.1248 N   0  0  0  0  0  0  0  0  0  0  0  0
   69.2571   73.6759   95.7026 H   0  0  0  0  0  0  0  0  0  0  0  0
   69.0936   72.6936   92.5784 C   0  0  0  0  0  0  0  0  0  0  0  0
   68.5761   72.2628   91.5132 O   0  0  0  0  0  0  0  0  0  0  0  0
   69.4462   71.7874   93.5754 O   0  0  0  0  0  0  0  0  0  0  0  0
   69.8318   72.0942   94.3723 H   0  0  0  0  0  0  0  0  0  0  0  0
   71.3989   78.1268   90.6892 C   0  0  0  0  0  0  0  0  0  0  0  0
   70.5407   79.2707   90.2138 C   0  0  0  0  0  0  0  0  0  0  0  0
   71.0765   80.5554   90.0875 C   0  0  0  0  0  0  0  0  0  0  0  0
   70.2837   81.6412   89.6661 C   0  0  0  0  0  0  0  0  0  0  0  0
   68.9244   81.3908   89.3596 C   0  0  0  0  0  0  0  0  0  0  0  0
   68.3626   80.0958   89.4643 C   0  0  0  0  0  0  0  0  0  0  0  0
   69.1993   79.0466   89.8929 C   0  0  0  0  0  0  0  0  0  0  0  0
   70.9185   83.0470   89.5742 C   0  0  0  0  0  0  0  0  0  0  0  0
   72.4017   82.9739   90.0000 C   0  0  0  0  0  0  0  0  0  0  0  0
   70.8729   83.6497   88.1489 C   0  0  0  0  0  0  0  0  0  0  0  0
   70.1622   84.0123   90.5131 C   0  0  0  0  0  0  0  0  0  0  0  0
   66.8811   79.7958   89.1434 C   0  0  0  0  0  0  0  0  0  0  0  0
   66.4383   80.3081   87.7511 C   0  0  0  0  0  0  0  0  0  0  0  0
   65.9801   80.4748   90.1984 C   0  0  0  0  0  0  0  0  0  0  0  0
   66.6455   78.2693   89.1732 C   0  0  0  0  0  0  0  0  0  0  0  0
  8  9  1  0  0  0
  9 10  2  0  0  0
  9 11  1  0  0  0
 11  2  1  0  0  0
  2  3  2  0  0  0
  3  4  1  0  0  0
  4  5  2  0  0  0
  5  1  1  0  0  0
  1 17  1  0  0  0
 17 18  1  0  0  0
 18 19  2  0  0  0
 19 20  1  0  0  0
 20 24  1  0  0  0
 24 25  1  0  0  0
 24 26  1  0  0  0
 24 27  1  0  0  0
 20 21  2  0  0  0
 21 22  1  0  0  0
 22 28  1  0  0  0
 28 29  1  0  0  0
 28 30  1  0  0  0
 28 31  1  0  0  0
 22 23  2  0  0  0
  5  6  1  0  0  0
  6  7  2  0  0  0
  7 13  1  0  0  0
 13 14  2  0  0  0
 13 15  1  0  0  0
  7  2  1  0  0  0
 23 18  1  0  0  0
 11 12  1  0  0  0
 15 16  1  0  0  0
M  END
> <score>
-0.008874

> <minimizedAffinity>
-7.83651

$$$$
HIPS6276


 31 32  0  0  0  0  0  0  0  0999 V2000
   70.8949   76.7494   90.6681 O   0  0  0  0  0  0  0  0  0  0  0  0
   69.0778   74.8044   93.9495 C   0  0  0  0  0  0  0  0  0  0  0  0
   69.4518   76.1538   94.0540 C   0  0  0  0  0  0  0  0  0  0  0  0
   70.0525   76.8134   92.9827 C   0  0  0  0  0  0  0  0  0  0  0  0
   70.2999   76.1316   91.7805 C   0  0  0  0  0  0  0  0  0  0  0  0
   69.9430   74.7840   91.6744 C   0  0  0  0  0  0  0  0  0  0  0  0
   69.3235   74.1062   92.7404 C   0  0  0  0  0  0  0  0  0  0  0  0
   66.6958   73.5719   96.7444 C   0  0  0  0  0  0  0  0  0  0  0  0
   67.1505   74.1551   95.4463 C   0  0  0  0  0  0  0  0  0  0  0  0
   66.3039   74.6607   94.6606 O   0  0  0  0  0  0  0  0  0  0  0  0
   68.5431   74.1306   95.1011 N   0  0  0  0  0  0  0  0  0  0  0  0
   69.1612   73.6287   95.6801 H   0  0  0  0  0  0  0  0  0  0  0  0
   68.9123   72.6947   92.5398 C   0  0  0  0  0  0  0  0  0  0  0  0
   68.1982   72.3625   91.5560 O   0  0  0  0  0  0  0  0  0  0  0  0
   69.3483   71.7107   93.4237 O   0  0  0  0  0  0  0  0  0  0  0  0
   69.8798   71.9439   94.1593 H   0  0  0  0  0  0  0  0  0  0  0  0
   71.5615   78.0123   90.6851 C   0  0  0  0  0  0  0  0  0  0  0  0
   70.6341   79.1096   90.2300 C   0  0  0  0  0  0  0  0  0  0  0  0
   69.3336   78.8124   89.8128 C   0  0  0  0  0  0  0  0  0  0  0  0
   68.4602   79.8222   89.3629 C   0  0  0  0  0  0  0  0  0  0  0  0
   68.9348   81.1561   89.3576 C   0  0  0  0  0  0  0  0  0  0  0  0
   70.2420   81.4843   89.7902 C   0  0  0  0  0  0  0  0  0  0  0  0
   71.0747   80.4356   90.2276 C   0  0  0  0  0  0  0  0  0  0  0  0
   67.0436   79.4346   88.8828 C   0  0  0  0  0  0  0  0  0  0  0  0
   67.0454   77.9685   88.3956 C   0  0  0  0  0  0  0  0  0  0  0  0
   65.9658   79.5564   89.9874 C   0  0  0  0  0  0  0  0  0  0  0  0
   66.6261   80.3611   87.7197 C   0  0  0  0  0  0  0  0  0  0  0  0
   70.7879   82.9300   89.7879 C   0  0  0  0  0  0  0  0  0  0  0  0
   72.3316   83.0036   89.8804 C   0  0  0  0  0  0  0  0  0  0  0  0
   70.2111   83.6979   90.9977 C   0  0  0  0  0  0  0  0  0  0  0  0
   70.3664   83.6387   88.4817 C   0  0  0  0  0  0  0  0  0  0  0  0
  8  9  1  0  0  0
  9 10  2  0  0  0
  9 11  1  0  0  0
 11  2  1  0  0  0
  2  3  2  0  0  0
  3  4  1  0  0  0
  4  5  2  0  0  0
  5  1  1  0  0  0
  1 17  1  0  0  0
 17 18  1  0  0  0
 18 19  2  0  0  0
 19 20  1  0  0  0
 20 24  1  0  0  0
 24 25  1  0  0  0
 24 26  1  0  0  0
 24 27  1  0  0  0
 20 21  2  0  0  0
 21 22  1  0  0  0
 22 28  1  0  0  0
 28 29  1  0  0  0
 28 30  1  0  0  0
 28 31  1  0  0  0
 22 23  2  0  0  0
  5  6  1  0  0  0
  6  7  2  0  0  0
  7 13  1  0  0  0
 13 14  2  0  0  0
 13 15  1  0  0  0
  7  2  1  0  0  0
 23 18  1  0  0  0
 11 12  1  0  0  0
 15 16  1  0  0  0
M  END
> <score>
-0.008874

> <minimizedAffinity>
-7.83423

$$$$
HIPS6276


 31 32  0  0  0  0  0  0  0  0999 V2000
   70.8655   80.2534   89.7904 O   0  0  0  0  0  0  0  0  0  0  0  0
   69.9493   76.4145   91.2992 C   0  0  0  0  0  0  0  0  0  0  0  0
   71.2821   76.8553   91.2670 C   0  0  0  0  0  0  0  0  0  0  0  0
   71.6049   78.1184   90.7731 C   0  0  0  0  0  0  0  0  0  0  0  0
   70.5970   78.9689   90.2915 C   0  0  0  0  0  0  0  0  0  0  0  0
   69.2694   78.5310   90.3074 C   0  0  0  0  0  0  0  0  0  0  0  0
   68.9237   77.2650   90.8148 C   0  0  0  0  0  0  0  0  0  0  0  0
   69.4919   73.2427   93.4752 C   0  0  0  0  0  0  0  0  0  0  0  0
   69.6352   74.6848   93.1118 C   0  0  0  0  0  0  0  0  0  0  0  0
   69.7275   75.5503   94.0240 O   0  0  0  0  0  0  0  0  0  0  0  0
   69.6609   75.0742   91.7310 N   0  0  0  0  0  0  0  0  0  0  0  0
   69.4721   74.3914   91.0473 H   0  0  0  0  0  0  0  0  0  0  0  0
   67.4894   76.8875   90.8618 C   0  0  0  0  0  0  0  0  0  0  0  0
   66.9282   76.6133   91.9563 O   0  0  0  0  0  0  0  0  0  0  0  0
   66.7358   76.8705   89.6907 O   0  0  0  0  0  0  0  0  0  0  0  0
   67.1406   77.0723   88.8701 H   0  0  0  0  0  0  0  0  0  0  0  0
   71.4271   81.3305   90.5414 C   0  0  0  0  0  0  0  0  0  0  0  0
   70.5872   82.5736   90.3985 C   0  0  0  0  0  0  0  0  0  0  0  0
   70.3931   83.1588   89.1441 C   0  0  0  0  0  0  0  0  0  0  0  0
   69.6296   84.3335   88.9944 C   0  0  0  0  0  0  0  0  0  0  0  0
   69.0501   84.9006   90.1550 C   0  0  0  0  0  0  0  0  0  0  0  0
   69.2190   84.3179   91.4339 C   0  0  0  0  0  0  0  0  0  0  0  0
   69.9941   83.1452   91.5271 C   0  0  0  0  0  0  0  0  0  0  0  0
   69.4732   84.9566   87.5892 C   0  0  0  0  0  0  0  0  0  0  0  0
   69.5613   86.4955   87.6928 C   0  0  0  0  0  0  0  0  0  0  0  0
   70.5598   84.4948   86.5878 C   0  0  0  0  0  0  0  0  0  0  0  0
   68.1003   84.5598   87.0034 C   0  0  0  0  0  0  0  0  0  0  0  0
   68.6042   84.9197   92.7176 C   0  0  0  0  0  0  0  0  0  0  0  0
   67.1212   84.5293   92.9296 C   0  0  0  0  0  0  0  0  0  0  0  0
   68.6752   86.4611   92.6464 C   0  0  0  0  0  0  0  0  0  0  0  0
   69.3953   84.4258   93.9491 C   0  0  0  0  0  0  0  0  0  0  0  0
  8  9  1  0  0  0
  9 10  2  0  0  0
  9 11  1  0  0  0
 11  2  1  0  0  0
  2  3  2  0  0  0
  3  4  1  0  0  0
  4  5  2  0  0  0
  5  1  1  0  0  0
  1 17  1  0  0  0
 17 18  1  0  0  0
 18 19  2  0  0  0
 19 20  1  0  0  0
 20 24  1  0  0  0
 24 25  1  0  0  0
 24 26  1  0  0  0
 24 27  1  0  0  0
 20 21  2  0  0  0
 21 22  1  0  0  0
 22 28  1  0  0  0
 28 29  1  0  0  0
 28 30  1  0  0  0
 28 31  1  0  0  0
 22 23  2  0  0  0
  5  6  1  0  0  0
  6  7  2  0  0  0
  7 13  1  0  0  0
 13 14  2  0  0  0
 13 15  1  0  0  0
  7  2  1  0  0  0
 23 18  1  0  0  0
 11 12  1  0  0  0
 15 16  1  0  0  0
M  END
> <score>
-0.008874

> <minimizedAffinity>
-7.76627

$$$$
HIPS6277


 35 36  0  0  0  0  0  0  0  0999 V2000
   69.4058   73.8801   91.3991 C   0  0  0  0  0  0  0  0  0  0  0  0
   68.5397   73.2844   90.4675 C   0  0  0  0  0  0  0  0  0  0  0  0
   67.6884   74.0644   89.6857 C   0  0  0  0  0  0  0  0  0  0  0  0
   67.6723   75.4527   89.8223 C   0  0  0  0  0  0  0  0  0  0  0  0
   68.5189   76.0579   90.7684 C   0  0  0  0  0  0  0  0  0  0  0  0
   69.4017   75.2895   91.5494 C   0  0  0  0  0  0  0  0  0  0  0  0
   69.7443   72.5426   93.5149 C   0  0  0  0  0  0  0  0  0  0  0  0
   68.5387   72.6895   93.8542 O   0  0  0  0  0  0  0  0  0  0  0  0
   70.2036   73.0443   92.2544 N   0  0  0  0  0  0  0  0  0  0  0  0
   71.1116   72.8046   91.9587 H   0  0  0  0  0  0  0  0  0  0  0  0
   70.6519   71.8675   94.3447 O   0  0  0  0  0  0  0  0  0  0  0  0
   70.2993   69.7487   93.1680 C   0  0  0  0  0  0  0  0  0  0  0  0
   71.2009   70.5605   94.1185 C   0  0  0  0  0  0  0  0  0  0  0  0
   72.6310   70.6648   93.5556 C   0  0  0  0  0  0  0  0  0  0  0  0
   71.2543   69.8495   95.4792 C   0  0  0  0  0  0  0  0  0  0  0  0
   70.3276   75.9925   92.4721 C   0  0  0  0  0  0  0  0  0  0  0  0
   71.3591   76.5706   92.0370 O   0  0  0  0  0  0  0  0  0  0  0  0
   70.0391   76.0556   93.8334 O   0  0  0  0  0  0  0  0  0  0  0  0
   69.2754   75.6303   94.1706 H   0  0  0  0  0  0  0  0  0  0  0  0
   66.8035   76.1899   88.9998 O   0  0  0  0  0  0  0  0  0  0  0  0
   67.1802   77.3035   88.1874 C   0  0  0  0  0  0  0  0  0  0  0  0
   67.1932   78.5702   89.0041 C   0  0  0  0  0  0  0  0  0  0  0  0
   66.7822   78.5577   90.3404 C   0  0  0  0  0  0  0  0  0  0  0  0
   66.8694   79.7108   91.1431 C   0  0  0  0  0  0  0  0  0  0  0  0
   67.3327   80.9027   90.5394 C   0  0  0  0  0  0  0  0  0  0  0  0
   67.7201   80.9530   89.1814 C   0  0  0  0  0  0  0  0  0  0  0  0
   67.6511   79.7602   88.4300 C   0  0  0  0  0  0  0  0  0  0  0  0
   66.4642   79.6282   92.6308 C   0  0  0  0  0  0  0  0  0  0  0  0
   67.0155   80.8598   93.3858 C   0  0  0  0  0  0  0  0  0  0  0  0
   67.0505   78.3420   93.2505 C   0  0  0  0  0  0  0  0  0  0  0  0
   64.9320   79.5988   92.8459 C   0  0  0  0  0  0  0  0  0  0  0  0
   68.2210   82.2853   88.5814 C   0  0  0  0  0  0  0  0  0  0  0  0
   67.4538   83.4634   89.2217 C   0  0  0  0  0  0  0  0  0  0  0  0
   68.0195   82.3773   87.0489 C   0  0  0  0  0  0  0  0  0  0  0  0
   69.7310   82.4403   88.8648 C   0  0  0  0  0  0  0  0  0  0  0  0
 12 13  1  0  0  0
 13 14  1  0  0  0
 13 15  1  0  0  0
 13 11  1  0  0  0
 11  7  1  0  0  0
  7  8  2  0  0  0
  7  9  1  0  0  0
  9  1  1  0  0  0
  1  2  2  0  0  0
  2  3  1  0  0  0
  3  4  2  0  0  0
  4 20  1  0  0  0
 20 21  1  0  0  0
 21 22  1  0  0  0
 22 23  2  0  0  0
 23 24  1  0  0  0
 24 28  1  0  0  0
 28 29  1  0  0  0
 28 30  1  0  0  0
 28 31  1  0  0  0
 24 25  2  0  0  0
 25 26  1  0  0  0
 26 32  1  0  0  0
 32 33  1  0  0  0
 32 34  1  0  0  0
 32 35  1  0  0  0
 26 27  2  0  0  0
  4  5  1  0  0  0
  5  6  2  0  0  0
  6 16  1  0  0  0
 16 17  2  0  0  0
 16 18  1  0  0  0
  6  1  1  0  0  0
 27 22  1  0  0  0
  9 10  1  0  0  0
 18 19  1  0  0  0
M  END
> <score>
-0.579681

> <minimizedAffinity>
-8.18594

$$$$
HIPS6277


 35 36  0  0  0  0  0  0  0  0999 V2000
   68.6409   74.8507   94.6257 C   0  0  0  0  0  0  0  0  0  0  0  0
   69.4594   75.8549   94.0831 C   0  0  0  0  0  0  0  0  0  0  0  0
   68.9013   76.9573   93.4369 C   0  0  0  0  0  0  0  0  0  0  0  0
   67.5176   77.0783   93.3067 C   0  0  0  0  0  0  0  0  0  0  0  0
   66.6895   76.0671   93.8262 C   0  0  0  0  0  0  0  0  0  0  0  0
   67.2331   74.9593   94.5022 C   0  0  0  0  0  0  0  0  0  0  0  0
   70.0600   72.7677   94.4584 C   0  0  0  0  0  0  0  0  0  0  0  0
   70.4095   73.0462   93.2792 O   0  0  0  0  0  0  0  0  0  0  0  0
   69.2478   73.6826   95.2035 N   0  0  0  0  0  0  0  0  0  0  0  0
   69.0976   73.5023   96.1596 H   0  0  0  0  0  0  0  0  0  0  0  0
   70.4755   71.5775   95.0738 O   0  0  0  0  0  0  0  0  0  0  0  0
   70.2524   69.9315   93.2740 C   0  0  0  0  0  0  0  0  0  0  0  0
   71.1190   70.4673   94.4303 C   0  0  0  0  0  0  0  0  0  0  0  0
   72.5154   70.8726   93.9216 C   0  0  0  0  0  0  0  0  0  0  0  0
   71.2772   69.3616   95.4850 C   0  0  0  0  0  0  0  0  0  0  0  0
   66.3045   73.9669   95.0988 C   0  0  0  0  0  0  0  0  0  0  0  0
   66.6283   73.3145   96.1268 O   0  0  0  0  0  0  0  0  0  0  0  0
   65.0396   73.7775   94.5469 O   0  0  0  0  0  0  0  0  0  0  0  0
   64.7856   74.2561   93.7825 H   0  0  0  0  0  0  0  0  0  0  0  0
   67.0096   78.2163   92.6573 O   0  0  0  0  0  0  0  0  0  0  0  0
   66.3938   79.3317   93.3044 C   0  0  0  0  0  0  0  0  0  0  0  0
   66.9525   80.6250   92.7690 C   0  0  0  0  0  0  0  0  0  0  0  0
   67.1848   81.7062   93.6244 C   0  0  0  0  0  0  0  0  0  0  0  0
   67.7865   82.8907   93.1591 C   0  0  0  0  0  0  0  0  0  0  0  0
   68.0977   82.9772   91.7823 C   0  0  0  0  0  0  0  0  0  0  0  0
   67.8403   81.9138   90.8881 C   0  0  0  0  0  0  0  0  0  0  0  0
   67.2719   80.7328   91.4118 C   0  0  0  0  0  0  0  0  0  0  0  0
   68.0815   84.0311   94.1576 C   0  0  0  0  0  0  0  0  0  0  0  0
   67.8850   83.5167   95.6024 C   0  0  0  0  0  0  0  0  0  0  0  0
   67.1140   85.2045   93.8949 C   0  0  0  0  0  0  0  0  0  0  0  0
   69.5252   84.5779   94.0513 C   0  0  0  0  0  0  0  0  0  0  0  0
   68.2065   82.0687   89.3954 C   0  0  0  0  0  0  0  0  0  0  0  0
   67.6138   83.3870   88.8502 C   0  0  0  0  0  0  0  0  0  0  0  0
   67.6671   80.9164   88.5130 C   0  0  0  0  0  0  0  0  0  0  0  0
   69.7429   82.0942   89.2439 C   0  0  0  0  0  0  0  0  0  0  0  0
 12 13  1  0  0  0
 13 14  1  0  0  0
 13 15  1  0  0  0
 13 11  1  0  0  0
 11  7  1  0  0  0
  7  8  2  0  0  0
  7  9  1  0  0  0
  9  1  1  0  0  0
  1  2  2  0  0  0
  2  3  1  0  0  0
  3  4  2  0  0  0
  4 20  1  0  0  0
 20 21  1  0  0  0
 21 22  1  0  0  0
 22 23  2  0  0  0
 23 24  1  0  0  0
 24 28  1  0  0  0
 28 29  1  0  0  0
 28 30  1  0  0  0
 28 31  1  0  0  0
 24 25  2  0  0  0
 25 26  1  0  0  0
 26 32  1  0  0  0
 32 33  1  0  0  0
 32 34  1  0  0  0
 32 35  1  0  0  0
 26 27  2  0  0  0
  4  5  1  0  0  0
  5  6  2  0  0  0
  6 16  1  0  0  0
 16 17  2  0  0  0
 16 18  1  0  0  0
  6  1  1  0  0  0
 27 22  1  0  0  0
  9 10  1  0  0  0
 18 19  1  0  0  0
M  END
> <score>
-0.579681

> <minimizedAffinity>
-8.07078

$$$$
HIPS6277


 35 36  0  0  0  0  0  0  0  0999 V2000
   68.5330   76.3985   90.6177 C   0  0  0  0  0  0  0  0  0  0  0  0
   67.3148   76.6227   89.9556 C   0  0  0  0  0  0  0  0  0  0  0  0
   67.1299   77.7588   89.1685 C   0  0  0  0  0  0  0  0  0  0  0  0
   68.1491   78.7018   89.0328 C   0  0  0  0  0  0  0  0  0  0  0  0
   69.3650   78.4987   89.7099 C   0  0  0  0  0  0  0  0  0  0  0  0
   69.5785   77.3469   90.4894 C   0  0  0  0  0  0  0  0  0  0  0  0
   67.8342   75.0674   92.6475 C   0  0  0  0  0  0  0  0  0  0  0  0
   66.8379   75.8136   92.8496 O   0  0  0  0  0  0  0  0  0  0  0  0
   68.6606   75.2666   91.4947 N   0  0  0  0  0  0  0  0  0  0  0  0
   69.3508   74.5943   91.2926 H   0  0  0  0  0  0  0  0  0  0  0  0
   68.1405   74.0167   93.5250 O   0  0  0  0  0  0  0  0  0  0  0  0
   67.3729   73.9724   95.8504 C   0  0  0  0  0  0  0  0  0  0  0  0
   68.5658   74.1454   94.8901 C   0  0  0  0  0  0  0  0  0  0  0  0
   69.6744   73.1246   95.2094 C   0  0  0  0  0  0  0  0  0  0  0  0
   69.1344   75.5629   95.0559 C   0  0  0  0  0  0  0  0  0  0  0  0
   70.9107   77.1497   91.1133 C   0  0  0  0  0  0  0  0  0  0  0  0
   71.9572   77.5672   90.5493 O   0  0  0  0  0  0  0  0  0  0  0  0
   71.0121   76.5337   92.3584 O   0  0  0  0  0  0  0  0  0  0  0  0
   70.2420   76.2185   92.7893 H   0  0  0  0  0  0  0  0  0  0  0  0
   67.9124   79.8213   88.2171 O   0  0  0  0  0  0  0  0  0  0  0  0
   67.1815   80.9866   88.6042 C   0  0  0  0  0  0  0  0  0  0  0  0
   68.0911   81.9760   89.2862 C   0  0  0  0  0  0  0  0  0  0  0  0
   69.1592   82.5534   88.5930 C   0  0  0  0  0  0  0  0  0  0  0  0
   69.9660   83.5432   89.1855 C   0  0  0  0  0  0  0  0  0  0  0  0
   69.6992   83.8964   90.5286 C   0  0  0  0  0  0  0  0  0  0  0  0
   68.6494   83.3027   91.2649 C   0  0  0  0  0  0  0  0  0  0  0  0
   67.8447   82.3440   90.6126 C   0  0  0  0  0  0  0  0  0  0  0  0
   71.0923   84.1966   88.3556 C   0  0  0  0  0  0  0  0  0  0  0  0
   72.4660   83.7808   88.9307 C   0  0  0  0  0  0  0  0  0  0  0  0
   70.9521   85.7321   88.4218 C   0  0  0  0  0  0  0  0  0  0  0  0
   71.0692   83.7853   86.8639 C   0  0  0  0  0  0  0  0  0  0  0  0
   68.4067   83.7342   92.7281 C   0  0  0  0  0  0  0  0  0  0  0  0
   69.7552   84.0831   93.3963 C   0  0  0  0  0  0  0  0  0  0  0  0
   67.7346   82.6332   93.5845 C   0  0  0  0  0  0  0  0  0  0  0  0
   67.4854   84.9731   92.7518 C   0  0  0  0  0  0  0  0  0  0  0  0
 12 13  1  0  0  0
 13 14  1  0  0  0
 13 15  1  0  0  0
 13 11  1  0  0  0
 11  7  1  0  0  0
  7  8  2  0  0  0
  7  9  1  0  0  0
  9  1  1  0  0  0
  1  2  2  0  0  0
  2  3  1  0  0  0
  3  4  2  0  0  0
  4 20  1  0  0  0
 20 21  1  0  0  0
 21 22  1  0  0  0
 22 23  2  0  0  0
 23 24  1  0  0  0
 24 28  1  0  0  0
 28 29  1  0  0  0
 28 30  1  0  0  0
 28 31  1  0  0  0
 24 25  2  0  0  0
 25 26  1  0  0  0
 26 32  1  0  0  0
 32 33  1  0  0  0
 32 34  1  0  0  0
 32 35  1  0  0  0
 26 27  2  0  0  0
  4  5  1  0  0  0
  5  6  2  0  0  0
  6 16  1  0  0  0
 16 17  2  0  0  0
 16 18  1  0  0  0
  6  1  1  0  0  0
 27 22  1  0  0  0
  9 10  1  0  0  0
 18 19  1  0  0  0
M  END
> <score>
-0.579681

> <minimizedAffinity>
-8.04547

$$$$
HIPS6295


 36 39  0  0  0  0  0  0  0  0999 V2000
   68.9934   74.9200   91.1143 C   0  0  0  0  0  0  0  0  0  0  0  0
   68.3143   73.8848   90.4574 C   0  0  0  0  0  0  0  0  0  0  0  0
   67.5130   74.1600   89.3451 C   0  0  0  0  0  0  0  0  0  0  0  0
   66.6456   72.8588   88.5437 Cl  0  0  0  0  0  0  0  0  0  0  0  0
   67.3732   75.4742   88.8894 C   0  0  0  0  0  0  0  0  0  0  0  0
   68.0331   76.5319   89.5437 C   0  0  0  0  0  0  0  0  0  0  0  0
   68.8498   76.2390   90.6531 C   0  0  0  0  0  0  0  0  0  0  0  0
   67.8473   77.9403   89.0929 C   0  0  0  0  0  0  0  0  0  0  0  0
   66.9810   78.2410   88.0259 C   0  0  0  0  0  0  0  0  0  0  0  0
   66.7860   79.5637   87.6226 C   0  0  0  0  0  0  0  0  0  0  0  0
   67.4415   80.6033   88.2829 C   0  0  0  0  0  0  0  0  0  0  0  0
   68.3051   80.3344   89.3479 C   0  0  0  0  0  0  0  0  0  0  0  0
   68.5126   78.9981   89.7436 C   0  0  0  0  0  0  0  0  0  0  0  0
   68.9255   81.4212   89.9875 O   0  0  0  0  0  0  0  0  0  0  0  0
   70.2878   81.4619   90.4157 C   0  0  0  0  0  0  0  0  0  0  0  0
   71.0676   82.4539   89.5953 C   0  0  0  0  0  0  0  0  0  0  0  0
   72.3937   82.7561   89.9431 C   0  0  0  0  0  0  0  0  0  0  0  0
   73.1227   83.6861   89.1980 C   0  0  0  0  0  0  0  0  0  0  0  0
   72.5355   84.3198   88.0999 C   0  0  0  0  0  0  0  0  0  0  0  0
   71.2160   84.0209   87.7416 C   0  0  0  0  0  0  0  0  0  0  0  0
   70.4796   84.8218   86.3674 Cl  0  0  0  0  0  0  0  0  0  0  0  0
   70.4847   83.0860   88.4826 C   0  0  0  0  0  0  0  0  0  0  0  0
   69.7806   74.6250   92.3647 C   0  0  0  0  0  0  0  0  0  0  0  0
   69.2316   73.4878   93.0322 O   0  0  0  0  0  0  0  0  0  0  0  0
   71.5922   70.6859   93.6124 C   0  0  0  0  0  0  0  0  0  0  0  0
   70.9884   71.9576   93.6324 C   0  0  0  0  0  0  0  0  0  0  0  0
   69.7650   72.1895   92.9959 C   0  0  0  0  0  0  0  0  0  0  0  0
   69.1097   71.1210   92.3632 C   0  0  0  0  0  0  0  0  0  0  0  0
   69.7014   69.8588   92.3206 C   0  0  0  0  0  0  0  0  0  0  0  0
   70.9505   69.6346   92.9070 C   0  0  0  0  0  0  0  0  0  0  0  0
   71.5251   68.3722   92.7412 O   0  0  0  0  0  0  0  0  0  0  0  0
   71.0657   67.7068   92.2677 H   0  0  0  0  0  0  0  0  0  0  0  0
   72.9826   69.6121   95.2328 O   0  0  0  0  0  0  0  0  0  0  0  0
   72.8667   70.5028   94.3487 C   0  0  0  0  0  0  0  0  0  0  0  0
   73.9361   71.3626   94.1093 O   0  0  0  0  0  0  0  0  0  0  0  0
   73.8638   72.0294   93.4550 H   0  0  0  0  0  0  0  0  0  0  0  0
 33 34  2  0  0  0
 34 35  1  0  0  0
 34 25  1  0  0  0
 25 26  2  0  0  0
 26 27  1  0  0  0
 27 24  1  0  0  0
 24 23  1  0  0  0
 23  1  1  0  0  0
  1  2  2  0  0  0
  2  3  1  0  0  0
  3  4  1  0  0  0
  3  5  2  0  0  0
  5  6  1  0  0  0
  6  8  1  0  0  0
  8  9  2  0  0  0
  9 10  1  0  0  0
 10 11  2  0  0  0
 11 12  1  0  0  0
 12 14  1  0  0  0
 14 15  1  0  0  0
 15 16  1  0  0  0
 16 17  2  0  0  0
 17 18  1  0  0  0
 18 19  2  0  0  0
 19 20  1  0  0  0
 20 21  1  0  0  0
 20 22  2  0  0  0
 12 13  2  0  0  0
  6  7  2  0  0  0
 27 28  2  0  0  0
 28 29  1  0  0  0
 29 30  2  0  0  0
 30 31  1  0  0  0
 30 25  1  0  0  0
  7  1  1  0  0  0
 13  8  1  0  0  0
 22 16  1  0  0  0
 35 36  1  0  0  0
 31 32  1  0  0  0
M  END
> <score>
-0.365622

> <minimizedAffinity>
-9.77338

$$$$
HIPS6295


 36 39  0  0  0  0  0  0  0  0999 V2000
   70.0505   78.5291   90.6245 C   0  0  0  0  0  0  0  0  0  0  0  0
   68.6552   78.6515   90.6744 C   0  0  0  0  0  0  0  0  0  0  0  0
   68.0385   79.8548   90.3187 C   0  0  0  0  0  0  0  0  0  0  0  0
   66.2902   80.0063   90.4086 Cl  0  0  0  0  0  0  0  0  0  0  0  0
   68.8128   80.9497   89.9237 C   0  0  0  0  0  0  0  0  0  0  0  0
   70.2169   80.8546   89.8819 C   0  0  0  0  0  0  0  0  0  0  0  0
   70.8246   79.6318   90.2275 C   0  0  0  0  0  0  0  0  0  0  0  0
   71.0493   82.0337   89.5104 C   0  0  0  0  0  0  0  0  0  0  0  0
   72.3324   82.2053   90.0614 C   0  0  0  0  0  0  0  0  0  0  0  0
   73.1225   83.2956   89.6912 C   0  0  0  0  0  0  0  0  0  0  0  0
   72.6505   84.2215   88.7605 C   0  0  0  0  0  0  0  0  0  0  0  0
   71.3814   84.0745   88.1946 C   0  0  0  0  0  0  0  0  0  0  0  0
   70.5793   82.9824   88.5807 C   0  0  0  0  0  0  0  0  0  0  0  0
   70.9638   85.0274   87.2498 O   0  0  0  0  0  0  0  0  0  0  0  0
   69.7041   85.7014   87.2551 C   0  0  0  0  0  0  0  0  0  0  0  0
   69.5557   86.5290   88.5034 C   0  0  0  0  0  0  0  0  0  0  0  0
   70.1484   87.7997   88.5713 C   0  0  0  0  0  0  0  0  0  0  0  0
   70.0298   88.5712   89.7299 C   0  0  0  0  0  0  0  0  0  0  0  0
   69.3179   88.0819   90.8281 C   0  0  0  0  0  0  0  0  0  0  0  0
   68.7184   86.8186   90.7681 C   0  0  0  0  0  0  0  0  0  0  0  0
   67.8311   86.2045   92.1492 Cl  0  0  0  0  0  0  0  0  0  0  0  0
   68.8308   86.0456   89.6071 C   0  0  0  0  0  0  0  0  0  0  0  0
   70.7088   77.2585   91.0961 C   0  0  0  0  0  0  0  0  0  0  0  0
   69.9808   76.7083   92.1950 O   0  0  0  0  0  0  0  0  0  0  0  0
   67.5935   74.0904   93.2936 C   0  0  0  0  0  0  0  0  0  0  0  0
   68.4322   75.2211   93.2805 C   0  0  0  0  0  0  0  0  0  0  0  0
   69.1418   75.5843   92.1314 C   0  0  0  0  0  0  0  0  0  0  0  0
   68.9784   74.8290   90.9592 C   0  0  0  0  0  0  0  0  0  0  0  0
   68.1638   73.6969   90.9595 C   0  0  0  0  0  0  0  0  0  0  0  0
   67.4959   73.2971   92.1207 C   0  0  0  0  0  0  0  0  0  0  0  0
   66.7763   72.1006   92.0729 O   0  0  0  0  0  0  0  0  0  0  0  0
   66.7383   71.6082   91.2766 H   0  0  0  0  0  0  0  0  0  0  0  0
   67.4330   73.4905   95.6015 O   0  0  0  0  0  0  0  0  0  0  0  0
   66.8360   73.7931   94.5336 C   0  0  0  0  0  0  0  0  0  0  0  0
   65.4433   73.7860   94.5111 O   0  0  0  0  0  0  0  0  0  0  0  0
   64.9863   74.0090   93.7240 H   0  0  0  0  0  0  0  0  0  0  0  0
 33 34  2  0  0  0
 34 35  1  0  0  0
 34 25  1  0  0  0
 25 26  2  0  0  0
 26 27  1  0  0  0
 27 24  1  0  0  0
 24 23  1  0  0  0
 23  1  1  0  0  0
  1  2  2  0  0  0
  2  3  1  0  0  0
  3  4  1  0  0  0
  3  5  2  0  0  0
  5  6  1  0  0  0
  6  8  1  0  0  0
  8  9  2  0  0  0
  9 10  1  0  0  0
 10 11  2  0  0  0
 11 12  1  0  0  0
 12 14  1  0  0  0
 14 15  1  0  0  0
 15 16  1  0  0  0
 16 17  2  0  0  0
 17 18  1  0  0  0
 18 19  2  0  0  0
 19 20  1  0  0  0
 20 21  1  0  0  0
 20 22  2  0  0  0
 12 13  2  0  0  0
  6  7  2  0  0  0
 27 28  2  0  0  0
 28 29  1  0  0  0
 29 30  2  0  0  0
 30 31  1  0  0  0
 30 25  1  0  0  0
  7  1  1  0  0  0
 13  8  1  0  0  0
 22 16  1  0  0  0
 35 36  1  0  0  0
 31 32  1  0  0  0
M  END
> <score>
-0.365622

> <minimizedAffinity>
-9.75733

$$$$
HIPS6295


 36 39  0  0  0  0  0  0  0  0999 V2000
   68.3457   77.6606   90.6963 C   0  0  0  0  0  0  0  0  0  0  0  0
   69.6906   77.3654   90.4349 C   0  0  0  0  0  0  0  0  0  0  0  0
   70.5946   78.3907   90.1410 C   0  0  0  0  0  0  0  0  0  0  0  0
   72.2734   78.0081   89.7899 Cl  0  0  0  0  0  0  0  0  0  0  0  0
   70.1582   79.7179   90.0924 C   0  0  0  0  0  0  0  0  0  0  0  0
   68.8084   80.0361   90.3356 C   0  0  0  0  0  0  0  0  0  0  0  0
   67.9115   78.9955   90.6461 C   0  0  0  0  0  0  0  0  0  0  0  0
   68.3278   81.4433   90.2353 C   0  0  0  0  0  0  0  0  0  0  0  0
   68.1881   82.2351   91.3898 C   0  0  0  0  0  0  0  0  0  0  0  0
   67.7646   83.5622   91.2920 C   0  0  0  0  0  0  0  0  0  0  0  0
   67.4859   84.1205   90.0442 C   0  0  0  0  0  0  0  0  0  0  0  0
   67.6189   83.3586   88.8804 C   0  0  0  0  0  0  0  0  0  0  0  0
   68.0315   82.0152   88.9822 C   0  0  0  0  0  0  0  0  0  0  0  0
   67.3413   83.9769   87.6493 O   0  0  0  0  0  0  0  0  0  0  0  0
   68.2838   84.1838   86.5958 C   0  0  0  0  0  0  0  0  0  0  0  0
   69.5299   84.8404   87.1262 C   0  0  0  0  0  0  0  0  0  0  0  0
   70.7444   84.1365   87.1211 C   0  0  0  0  0  0  0  0  0  0  0  0
   71.9047   84.7301   87.6241 C   0  0  0  0  0  0  0  0  0  0  0  0
   71.8625   86.0303   88.1339 C   0  0  0  0  0  0  0  0  0  0  0  0
   70.6576   86.7426   88.1380 C   0  0  0  0  0  0  0  0  0  0  0  0
   70.6060   88.3711   88.7837 Cl  0  0  0  0  0  0  0  0  0  0  0  0
   69.4948   86.1528   87.6300 C   0  0  0  0  0  0  0  0  0  0  0  0
   67.3628   76.5412   90.9224 C   0  0  0  0  0  0  0  0  0  0  0  0
   66.6920   76.7230   92.1703 O   0  0  0  0  0  0  0  0  0  0  0  0
   68.0598   74.1741   94.4924 C   0  0  0  0  0  0  0  0  0  0  0  0
   67.9289   75.0883   93.4298 C   0  0  0  0  0  0  0  0  0  0  0  0
   66.7670   75.8493   93.2669 C   0  0  0  0  0  0  0  0  0  0  0  0
   65.7316   75.7269   94.2073 C   0  0  0  0  0  0  0  0  0  0  0  0
   65.8386   74.8146   95.2568 C   0  0  0  0  0  0  0  0  0  0  0  0
   66.9746   74.0111   95.3926 C   0  0  0  0  0  0  0  0  0  0  0  0
   66.9707   73.0529   96.4091 O   0  0  0  0  0  0  0  0  0  0  0  0
   66.2324   72.9800   96.9814 H   0  0  0  0  0  0  0  0  0  0  0  0
   69.5878   72.7554   95.6605 O   0  0  0  0  0  0  0  0  0  0  0  0
   69.3390   73.4359   94.6293 C   0  0  0  0  0  0  0  0  0  0  0  0
   70.3101   73.5403   93.6362 O   0  0  0  0  0  0  0  0  0  0  0  0
   70.1386   74.0430   92.8642 H   0  0  0  0  0  0  0  0  0  0  0  0
 33 34  2  0  0  0
 34 35  1  0  0  0
 34 25  1  0  0  0
 25 26  2  0  0  0
 26 27  1  0  0  0
 27 24  1  0  0  0
 24 23  1  0  0  0
 23  1  1  0  0  0
  1  2  2  0  0  0
  2  3  1  0  0  0
  3  4  1  0  0  0
  3  5  2  0  0  0
  5  6  1  0  0  0
  6  8  1  0  0  0
  8  9  2  0  0  0
  9 10  1  0  0  0
 10 11  2  0  0  0
 11 12  1  0  0  0
 12 14  1  0  0  0
 14 15  1  0  0  0
 15 16  1  0  0  0
 16 17  2  0  0  0
 17 18  1  0  0  0
 18 19  2  0  0  0
 19 20  1  0  0  0
 20 21  1  0  0  0
 20 22  2  0  0  0
 12 13  2  0  0  0
  6  7  2  0  0  0
 27 28  2  0  0  0
 28 29  1  0  0  0
 29 30  2  0  0  0
 30 31  1  0  0  0
 30 25  1  0  0  0
  7  1  1  0  0  0
 13  8  1  0  0  0
 22 16  1  0  0  0
 35 36  1  0  0  0
 31 32  1  0  0  0
M  END
> <score>
-0.365622

> <minimizedAffinity>
-9.66859

$$$$
HIPS6296


 32 33  0  0  0  0  0  0  0  0999 V2000
   70.3885   76.9040   90.6756 O   0  0  0  0  0  0  0  0  0  0  0  0
   69.9138   76.2722   91.8369 C   0  0  0  0  0  0  0  0  0  0  0  0
   69.2728   76.9714   92.8716 C   0  0  0  0  0  0  0  0  0  0  0  0
   68.8183   76.2937   94.0028 C   0  0  0  0  0  0  0  0  0  0  0  0
   68.9909   74.9056   94.1288 C   0  0  0  0  0  0  0  0  0  0  0  0
   69.6272   74.1893   93.0848 C   0  0  0  0  0  0  0  0  0  0  0  0
   70.0918   74.8909   91.9564 C   0  0  0  0  0  0  0  0  0  0  0  0
   69.7735   72.7137   93.1171 C   0  0  0  0  0  0  0  0  0  0  0  0
   68.7565   71.9800   93.2475 O   0  0  0  0  0  0  0  0  0  0  0  0
   71.0323   72.1226   93.0510 O   0  0  0  0  0  0  0  0  0  0  0  0
   71.7962   72.6566   92.9542 H   0  0  0  0  0  0  0  0  0  0  0  0
   68.6065   74.2510   95.3484 N   0  0  0  0  0  0  0  0  0  0  0  0
   69.3128   73.9214   95.9499 H   0  0  0  0  0  0  0  0  0  0  0  0
   66.9494   74.0169   95.8054 S   0  0  0  0  0  0  0  0  0  0  0  0
   65.9448   73.7952   94.3532 C   0  0  0  0  0  0  0  0  0  0  0  0
   66.4744   75.2267   96.5599 O   0  0  0  0  0  0  0  0  0  0  0  0
   66.8267   72.8129   96.6974 O   0  0  0  0  0  0  0  0  0  0  0  0
   71.1662   78.1018   90.6467 C   0  0  0  0  0  0  0  0  0  0  0  0
   68.2035   80.1427   89.3458 C   0  0  0  0  0  0  0  0  0  0  0  0
   68.9919   79.0760   89.8169 C   0  0  0  0  0  0  0  0  0  0  0  0
   70.3286   79.2654   90.1817 C   0  0  0  0  0  0  0  0  0  0  0  0
   70.8947   80.5422   90.1062 C   0  0  0  0  0  0  0  0  0  0  0  0
   70.1443   81.6464   89.6484 C   0  0  0  0  0  0  0  0  0  0  0  0
   68.7995   81.4235   89.2754 C   0  0  0  0  0  0  0  0  0  0  0  0
   66.5552   78.3634   88.6499 C   0  0  0  0  0  0  0  0  0  0  0  0
   66.7440   79.8731   88.9176 C   0  0  0  0  0  0  0  0  0  0  0  0
   65.7060   80.2932   89.9869 C   0  0  0  0  0  0  0  0  0  0  0  0
   66.4316   80.6664   87.6282 C   0  0  0  0  0  0  0  0  0  0  0  0
   70.7384   83.0693   89.5448 C   0  0  0  0  0  0  0  0  0  0  0  0
   69.9903   84.0150   90.5105 C   0  0  0  0  0  0  0  0  0  0  0  0
   70.6285   83.6745   88.1245 C   0  0  0  0  0  0  0  0  0  0  0  0
   72.2354   83.0302   89.9204 C   0  0  0  0  0  0  0  0  0  0  0  0
 25 26  1  0  0  0
 26 27  1  0  0  0
 26 28  1  0  0  0
 26 19  1  0  0  0
 19 20  2  0  0  0
 20 21  1  0  0  0
 21 18  1  0  0  0
 18  1  1  0  0  0
  1  2  1  0  0  0
  2  3  2  0  0  0
  3  4  1  0  0  0
  4  5  2  0  0  0
  5 12  1  0  0  0
 12 14  1  0  0  0
 14 15  1  0  0  0
 14 16  2  0  0  0
 14 17  2  0  0  0
  5  6  1  0  0  0
  6  8  1  0  0  0
  8  9  2  0  0  0
  8 10  1  0  0  0
  6  7  2  0  0  0
 21 22  2  0  0  0
 22 23  1  0  0  0
 23 29  1  0  0  0
 29 30  1  0  0  0
 29 31  1  0  0  0
 29 32  1  0  0  0
 23 24  2  0  0  0
 24 19  1  0  0  0
  7  2  1  0  0  0
 12 13  1  0  0  0
 10 11  1  0  0  0
M  END
> <score>
0.286885

> <minimizedAffinity>
-8.23600

$$$$
HIPS6296


 32 33  0  0  0  0  0  0  0  0999 V2000
   70.2170   76.7406   90.5667 O   0  0  0  0  0  0  0  0  0  0  0  0
   69.7482   76.2403   91.7928 C   0  0  0  0  0  0  0  0  0  0  0  0
   69.0396   77.0299   92.7119 C   0  0  0  0  0  0  0  0  0  0  0  0
   68.5945   76.4815   93.9146 C   0  0  0  0  0  0  0  0  0  0  0  0
   68.8440   75.1356   94.2287 C   0  0  0  0  0  0  0  0  0  0  0  0
   69.5492   74.3276   93.3026 C   0  0  0  0  0  0  0  0  0  0  0  0
   70.0029   74.9006   92.0996 C   0  0  0  0  0  0  0  0  0  0  0  0
   69.7801   72.8811   93.5350 C   0  0  0  0  0  0  0  0  0  0  0  0
   68.8112   72.0746   93.5148 O   0  0  0  0  0  0  0  0  0  0  0  0
   71.0553   72.4021   93.8231 O   0  0  0  0  0  0  0  0  0  0  0  0
   71.7839   72.9910   93.8413 H   0  0  0  0  0  0  0  0  0  0  0  0
   68.4651   74.6260   95.5173 N   0  0  0  0  0  0  0  0  0  0  0  0
   69.1552   74.5473   96.2151 H   0  0  0  0  0  0  0  0  0  0  0  0
   66.8421   74.1436   95.8951 S   0  0  0  0  0  0  0  0  0  0  0  0
   65.8964   73.9699   94.3975 C   0  0  0  0  0  0  0  0  0  0  0  0
   66.2095   75.1932   96.7649 O   0  0  0  0  0  0  0  0  0  0  0  0
   66.8538   72.8396   96.6433 O   0  0  0  0  0  0  0  0  0  0  0  0
   71.0884   77.8617   90.4115 C   0  0  0  0  0  0  0  0  0  0  0  0
   70.1128   81.5372   89.9948 C   0  0  0  0  0  0  0  0  0  0  0  0
   70.8452   80.3694   90.2794 C   0  0  0  0  0  0  0  0  0  0  0  0
   70.3016   79.0992   90.0633 C   0  0  0  0  0  0  0  0  0  0  0  0
   69.0151   78.9764   89.5283 C   0  0  0  0  0  0  0  0  0  0  0  0
   68.2428   80.1162   89.2179 C   0  0  0  0  0  0  0  0  0  0  0  0
   68.8130   81.3869   89.4576 C   0  0  0  0  0  0  0  0  0  0  0  0
   72.2756   82.8318   90.1104 C   0  0  0  0  0  0  0  0  0  0  0  0
   70.7434   82.9163   90.2890 C   0  0  0  0  0  0  0  0  0  0  0  0
   70.2237   84.0373   89.3560 C   0  0  0  0  0  0  0  0  0  0  0  0
   70.4177   83.3312   91.7420 C   0  0  0  0  0  0  0  0  0  0  0  0
   66.8157   80.0190   88.6328 C   0  0  0  0  0  0  0  0  0  0  0  0
   66.5838   78.6012   88.0649 C   0  0  0  0  0  0  0  0  0  0  0  0
   66.5563   81.0263   87.4867 C   0  0  0  0  0  0  0  0  0  0  0  0
   65.7833   80.3024   89.7453 C   0  0  0  0  0  0  0  0  0  0  0  0
 25 26  1  0  0  0
 26 27  1  0  0  0
 26 28  1  0  0  0
 26 19  1  0  0  0
 19 20  2  0  0  0
 20 21  1  0  0  0
 21 18  1  0  0  0
 18  1  1  0  0  0
  1  2  1  0  0  0
  2  3  2  0  0  0
  3  4  1  0  0  0
  4  5  2  0  0  0
  5 12  1  0  0  0
 12 14  1  0  0  0
 14 15  1  0  0  0
 14 16  2  0  0  0
 14 17  2  0  0  0
  5  6  1  0  0  0
  6  8  1  0  0  0
  8  9  2  0  0  0
  8 10  1  0  0  0
  6  7  2  0  0  0
 21 22  2  0  0  0
 22 23  1  0  0  0
 23 29  1  0  0  0
 29 30  1  0  0  0
 29 31  1  0  0  0
 29 32  1  0  0  0
 23 24  2  0  0  0
 24 19  1  0  0  0
  7  2  1  0  0  0
 12 13  1  0  0  0
 10 11  1  0  0  0
M  END
> <score>
0.286885

> <minimizedAffinity>
-8.16340

$$$$
HIPS6296


 32 33  0  0  0  0  0  0  0  0999 V2000
   70.6227   80.0647   89.8041 O   0  0  0  0  0  0  0  0  0  0  0  0
   70.5300   78.7679   90.3360 C   0  0  0  0  0  0  0  0  0  0  0  0
   71.5744   78.1687   91.0575 C   0  0  0  0  0  0  0  0  0  0  0  0
   71.4284   76.8782   91.5664 C   0  0  0  0  0  0  0  0  0  0  0  0
   70.2400   76.1563   91.3690 C   0  0  0  0  0  0  0  0  0  0  0  0
   69.1760   76.7567   90.6512 C   0  0  0  0  0  0  0  0  0  0  0  0
   69.3452   78.0545   90.1331 C   0  0  0  0  0  0  0  0  0  0  0  0
   67.8671   76.0825   90.4723 C   0  0  0  0  0  0  0  0  0  0  0  0
   66.7972   76.7037   90.7151 O   0  0  0  0  0  0  0  0  0  0  0  0
   67.8027   74.7480   90.0806 O   0  0  0  0  0  0  0  0  0  0  0  0
   68.5905   74.2750   89.8971 H   0  0  0  0  0  0  0  0  0  0  0  0
   70.1563   74.7929   91.8141 N   0  0  0  0  0  0  0  0  0  0  0  0
   70.5184   74.0843   91.2344 H   0  0  0  0  0  0  0  0  0  0  0  0
   69.4436   74.3432   93.3305 S   0  0  0  0  0  0  0  0  0  0  0  0
   69.1925   75.7900   94.3359 C   0  0  0  0  0  0  0  0  0  0  0  0
   70.3668   73.3954   94.0431 O   0  0  0  0  0  0  0  0  0  0  0  0
   68.1291   73.6521   93.0964 O   0  0  0  0  0  0  0  0  0  0  0  0
   71.4965   81.0907   90.2776 C   0  0  0  0  0  0  0  0  0  0  0  0
   70.3724   84.5256   89.0238 C   0  0  0  0  0  0  0  0  0  0  0  0
   70.9680   83.2519   89.0882 C   0  0  0  0  0  0  0  0  0  0  0  0
   70.8179   82.4350   90.2132 C   0  0  0  0  0  0  0  0  0  0  0  0
   70.0397   82.8722   91.2901 C   0  0  0  0  0  0  0  0  0  0  0  0
   69.4145   84.1375   91.2713 C   0  0  0  0  0  0  0  0  0  0  0  0
   69.5930   84.9467   90.1265 C   0  0  0  0  0  0  0  0  0  0  0  0
   72.0438   85.9593   87.7918 C   0  0  0  0  0  0  0  0  0  0  0  0
   70.6016   85.4058   87.7752 C   0  0  0  0  0  0  0  0  0  0  0  0
   70.4088   84.6395   86.4437 C   0  0  0  0  0  0  0  0  0  0  0  0
   69.5996   86.5827   87.7847 C   0  0  0  0  0  0  0  0  0  0  0  0
   68.5539   84.6566   92.4453 C   0  0  0  0  0  0  0  0  0  0  0  0
   69.2438   84.3148   93.7846 C   0  0  0  0  0  0  0  0  0  0  0  0
   67.1357   84.0378   92.4825 C   0  0  0  0  0  0  0  0  0  0  0  0
   68.3917   86.1874   92.3265 C   0  0  0  0  0  0  0  0  0  0  0  0
 25 26  1  0  0  0
 26 27  1  0  0  0
 26 28  1  0  0  0
 26 19  1  0  0  0
 19 20  2  0  0  0
 20 21  1  0  0  0
 21 18  1  0  0  0
 18  1  1  0  0  0
  1  2  1  0  0  0
  2  3  2  0  0  0
  3  4  1  0  0  0
  4  5  2  0  0  0
  5 12  1  0  0  0
 12 14  1  0  0  0
 14 15  1  0  0  0
 14 16  2  0  0  0
 14 17  2  0  0  0
  5  6  1  0  0  0
  6  8  1  0  0  0
  8  9  2  0  0  0
  8 10  1  0  0  0
  6  7  2  0  0  0
 21 22  2  0  0  0
 22 23  1  0  0  0
 23 29  1  0  0  0
 29 30  1  0  0  0
 29 31  1  0  0  0
 29 32  1  0  0  0
 23 24  2  0  0  0
 24 19  1  0  0  0
  7  2  1  0  0  0
 12 13  1  0  0  0
 10 11  1  0  0  0
M  END
> <score>
0.286885

> <minimizedAffinity>
-7.91303

$$$$
HIPS6297


 35 38  0  0  0  0  0  0  0  0999 V2000
   67.5884   79.5323   88.2223 C   0  0  0  0  0  0  0  0  0  0  0  0
   67.2501   79.1853   86.9265 C   0  0  0  0  0  0  0  0  0  0  0  0
   67.1932   77.8330   86.6140 C   0  0  0  0  0  0  0  0  0  0  0  0
   67.4705   76.8950   87.5861 C   0  0  0  0  0  0  0  0  0  0  0  0
   67.8056   77.2587   88.8712 C   0  0  0  0  0  0  0  0  0  0  0  0
   67.8618   78.5985   89.1804 C   0  0  0  0  0  0  0  0  0  0  0  0
   68.0939   76.2470   89.8829 C   0  0  0  0  0  0  0  0  0  0  0  0
   67.7856   74.9085   89.6677 C   0  0  0  0  0  0  0  0  0  0  0  0
   68.0688   73.9967   90.6361 C   0  0  0  0  0  0  0  0  0  0  0  0
   68.6585   74.3254   91.8512 C   0  0  0  0  0  0  0  0  0  0  0  0
   68.9546   75.6467   92.0446 C   0  0  0  0  0  0  0  0  0  0  0  0
   68.6793   76.5948   91.0809 C   0  0  0  0  0  0  0  0  0  0  0  0
   68.9904   73.0746   93.0565 S   0  0  0  0  0  0  0  0  0  0  0  0
   69.0668   71.7478   92.3822 O   0  0  0  0  0  0  0  0  0  0  0  0
   70.3777   73.3773   93.5877 O   0  0  0  0  0  0  0  0  0  0  0  0
   67.7892   73.1717   94.2412 N   0  0  0  0  0  0  0  0  0  0  0  0
   66.4735   73.3680   93.7814 C   0  0  0  0  0  0  0  0  0  0  0  0
   65.7214   74.5356   94.3124 C   0  0  0  0  0  0  0  0  0  0  0  0
   66.0007   74.9096   95.7255 C   0  0  0  0  0  0  0  0  0  0  0  0
   67.0575   74.0949   96.3930 C   0  0  0  0  0  0  0  0  0  0  0  0
   68.1713   73.6898   95.4916 C   0  0  0  0  0  0  0  0  0  0  0  0
   67.6422   81.0014   88.5309 C   0  0  0  0  0  0  0  0  0  0  0  0
   68.4141   81.2370   89.6764 O   0  0  0  0  0  0  0  0  0  0  0  0
   70.9598   83.6373   88.4850 C   0  0  0  0  0  0  0  0  0  0  0  0
   69.7698   82.9658   88.6304 C   0  0  0  0  0  0  0  0  0  0  0  0
   69.6151   81.9165   89.5282 C   0  0  0  0  0  0  0  0  0  0  0  0
   70.7189   81.5668   90.2819 C   0  0  0  0  0  0  0  0  0  0  0  0
   71.9228   82.2335   90.1464 C   0  0  0  0  0  0  0  0  0  0  0  0
   72.0529   83.2794   89.2420 C   0  0  0  0  0  0  0  0  0  0  0  0
   73.2764   83.9184   89.1398 O   0  0  0  0  0  0  0  0  0  0  0  0
   73.9950   83.6427   89.6743 H   0  0  0  0  0  0  0  0  0  0  0  0
   70.6370   84.6402   86.3780 O   0  0  0  0  0  0  0  0  0  0  0  0
   71.0925   84.7326   87.5363 C   0  0  0  0  0  0  0  0  0  0  0  0
   71.7339   85.9161   87.8994 O   0  0  0  0  0  0  0  0  0  0  0  0
   72.0853   86.0126   88.7626 H   0  0  0  0  0  0  0  0  0  0  0  0
 32 33  2  0  0  0
 33 34  1  0  0  0
 33 24  1  0  0  0
 24 25  2  0  0  0
 25 26  1  0  0  0
 26 23  1  0  0  0
 23 22  1  0  0  0
 22  1  1  0  0  0
  1  2  2  0  0  0
  2  3  1  0  0  0
  3  4  2  0  0  0
  4  5  1  0  0  0
  5  7  1  0  0  0
  7  8  2  0  0  0
  8  9  1  0  0  0
  9 10  2  0  0  0
 10 13  1  0  0  0
 13 14  2  0  0  0
 13 15  2  0  0  0
 13 16  1  0  0  0
 16 17  1  0  0  0
 17 18  1  0  0  0
 18 19  1  0  0  0
 19 20  1  0  0  0
 20 21  1  0  0  0
 10 11  1  0  0  0
 11 12  2  0  0  0
  5  6  2  0  0  0
 26 27  2  0  0  0
 27 28  1  0  0  0
 28 29  2  0  0  0
 29 30  1  0  0  0
 29 24  1  0  0  0
  6  1  1  0  0  0
 12  7  1  0  0  0
 21 16  1  0  0  0
 34 35  1  0  0  0
 30 31  1  0  0  0
M  END
> <score>
0.393044

> <minimizedAffinity>
-9.58499

$$$$
HIPS6297


 35 38  0  0  0  0  0  0  0  0999 V2000
   67.1335   79.5979   88.3158 C   0  0  0  0  0  0  0  0  0  0  0  0
   67.1786   79.3419   86.9571 C   0  0  0  0  0  0  0  0  0  0  0  0
   67.5299   78.0601   86.5527 C   0  0  0  0  0  0  0  0  0  0  0  0
   67.8176   77.0999   87.4997 C   0  0  0  0  0  0  0  0  0  0  0  0
   67.7675   77.3726   88.8484 C   0  0  0  0  0  0  0  0  0  0  0  0
   67.4195   78.6425   89.2486 C   0  0  0  0  0  0  0  0  0  0  0  0
   68.0756   76.3389   89.8317 C   0  0  0  0  0  0  0  0  0  0  0  0
   67.7174   75.0131   89.6154 C   0  0  0  0  0  0  0  0  0  0  0  0
   68.0211   74.0800   90.5569 C   0  0  0  0  0  0  0  0  0  0  0  0
   68.6799   74.3744   91.7451 C   0  0  0  0  0  0  0  0  0  0  0  0
   69.0243   75.6837   91.9399 C   0  0  0  0  0  0  0  0  0  0  0  0
   68.7297   76.6528   91.0032 C   0  0  0  0  0  0  0  0  0  0  0  0
   69.0339   73.0977   92.9164 S   0  0  0  0  0  0  0  0  0  0  0  0
   69.1223   71.7894   92.2084 O   0  0  0  0  0  0  0  0  0  0  0  0
   70.4207   73.4038   93.4473 O   0  0  0  0  0  0  0  0  0  0  0  0
   67.8387   73.1502   94.1099 N   0  0  0  0  0  0  0  0  0  0  0  0
   66.5205   73.3614   93.6643 C   0  0  0  0  0  0  0  0  0  0  0  0
   65.7699   74.5081   94.2411 C   0  0  0  0  0  0  0  0  0  0  0  0
   66.0560   74.8310   95.6653 C   0  0  0  0  0  0  0  0  0  0  0  0
   67.1171   73.9940   96.2975 C   0  0  0  0  0  0  0  0  0  0  0  0
   68.2267   73.6233   95.3764 C   0  0  0  0  0  0  0  0  0  0  0  0
   66.7511   80.9923   88.7233 C   0  0  0  0  0  0  0  0  0  0  0  0
   67.8614   81.6800   89.2310 O   0  0  0  0  0  0  0  0  0  0  0  0
   70.3456   84.0406   87.8462 C   0  0  0  0  0  0  0  0  0  0  0  0
   69.7573   83.0866   88.6411 C   0  0  0  0  0  0  0  0  0  0  0  0
   68.4574   82.6433   88.4293 C   0  0  0  0  0  0  0  0  0  0  0  0
   67.7663   83.2055   87.3733 C   0  0  0  0  0  0  0  0  0  0  0  0
   68.3455   84.1665   86.5650 C   0  0  0  0  0  0  0  0  0  0  0  0
   69.6465   84.5935   86.7967 C   0  0  0  0  0  0  0  0  0  0  0  0
   70.1858   85.5572   85.9623 O   0  0  0  0  0  0  0  0  0  0  0  0
   69.6749   85.9073   85.2592 H   0  0  0  0  0  0  0  0  0  0  0  0
   72.5841   83.6906   88.4917 O   0  0  0  0  0  0  0  0  0  0  0  0
   71.7090   84.4857   88.0921 C   0  0  0  0  0  0  0  0  0  0  0  0
   72.0722   85.8161   87.8866 O   0  0  0  0  0  0  0  0  0  0  0  0
   71.4353   86.4346   87.5869 H   0  0  0  0  0  0  0  0  0  0  0  0
 32 33  2  0  0  0
 33 34  1  0  0  0
 33 24  1  0  0  0
 24 25  2  0  0  0
 25 26  1  0  0  0
 26 23  1  0  0  0
 23 22  1  0  0  0
 22  1  1  0  0  0
  1  2  2  0  0  0
  2  3  1  0  0  0
  3  4  2  0  0  0
  4  5  1  0  0  0
  5  7  1  0  0  0
  7  8  2  0  0  0
  8  9  1  0  0  0
  9 10  2  0  0  0
 10 13  1  0  0  0
 13 14  2  0  0  0
 13 15  2  0  0  0
 13 16  1  0  0  0
 16 17  1  0  0  0
 17 18  1  0  0  0
 18 19  1  0  0  0
 19 20  1  0  0  0
 20 21  1  0  0  0
 10 11  1  0  0  0
 11 12  2  0  0  0
  5  6  2  0  0  0
 26 27  2  0  0  0
 27 28  1  0  0  0
 28 29  2  0  0  0
 29 30  1  0  0  0
 29 24  1  0  0  0
  6  1  1  0  0  0
 12  7  1  0  0  0
 21 16  1  0  0  0
 34 35  1  0  0  0
 30 31  1  0  0  0
M  END
> <score>
0.393044

> <minimizedAffinity>
-9.53608

$$$$
HIPS6297


 35 38  0  0  0  0  0  0  0  0999 V2000
   68.9506   77.7649   90.9300 C   0  0  0  0  0  0  0  0  0  0  0  0
   70.0599   76.9600   91.1178 C   0  0  0  0  0  0  0  0  0  0  0  0
   71.3071   77.5029   90.8357 C   0  0  0  0  0  0  0  0  0  0  0  0
   71.4001   78.8030   90.3855 C   0  0  0  0  0  0  0  0  0  0  0  0
   70.2848   79.5900   90.2043 C   0  0  0  0  0  0  0  0  0  0  0  0
   69.0495   79.0518   90.4839 C   0  0  0  0  0  0  0  0  0  0  0  0
   70.4092   80.9638   89.7275 C   0  0  0  0  0  0  0  0  0  0  0  0
   69.3840   81.5701   89.0102 C   0  0  0  0  0  0  0  0  0  0  0  0
   69.5394   82.8515   88.5821 C   0  0  0  0  0  0  0  0  0  0  0  0
   70.6811   83.6077   88.8211 C   0  0  0  0  0  0  0  0  0  0  0  0
   71.6784   82.9944   89.5282 C   0  0  0  0  0  0  0  0  0  0  0  0
   71.5499   81.6957   89.9757 C   0  0  0  0  0  0  0  0  0  0  0  0
   70.7998   85.2685   88.2252 S   0  0  0  0  0  0  0  0  0  0  0  0
   72.1960   85.7578   88.4034 O   0  0  0  0  0  0  0  0  0  0  0  0
   70.5513   85.1852   86.7319 O   0  0  0  0  0  0  0  0  0  0  0  0
   69.6423   86.1906   89.0412 N   0  0  0  0  0  0  0  0  0  0  0  0
   69.6813   87.5799   88.8190 C   0  0  0  0  0  0  0  0  0  0  0  0
   69.8031   88.4677   90.0056 C   0  0  0  0  0  0  0  0  0  0  0  0
   69.1206   88.0057   91.2447 C   0  0  0  0  0  0  0  0  0  0  0  0
   68.4638   86.6703   91.1386 C   0  0  0  0  0  0  0  0  0  0  0  0
   69.1985   85.6989   90.2819 C   0  0  0  0  0  0  0  0  0  0  0  0
   67.6158   77.1510   91.2428 C   0  0  0  0  0  0  0  0  0  0  0  0
   67.2504   77.4144   92.5697 O   0  0  0  0  0  0  0  0  0  0  0  0
   68.1553   74.4513   94.5853 C   0  0  0  0  0  0  0  0  0  0  0  0
   68.2431   75.5101   93.7139 C   0  0  0  0  0  0  0  0  0  0  0  0
   67.1638   76.3445   93.4494 C   0  0  0  0  0  0  0  0  0  0  0  0
   65.9798   76.0668   94.1048 C   0  0  0  0  0  0  0  0  0  0  0  0
   65.8766   75.0047   94.9844 C   0  0  0  0  0  0  0  0  0  0  0  0
   66.9696   74.1846   95.2325 C   0  0  0  0  0  0  0  0  0  0  0  0
   66.8209   73.1334   96.1205 O   0  0  0  0  0  0  0  0  0  0  0  0
   65.9957   72.9873   96.5396 H   0  0  0  0  0  0  0  0  0  0  0  0
   70.2458   73.5185   94.0287 O   0  0  0  0  0  0  0  0  0  0  0  0
   69.3026   73.5940   94.8425 C   0  0  0  0  0  0  0  0  0  0  0  0
   69.3763   72.8333   96.0087 O   0  0  0  0  0  0  0  0  0  0  0  0
   68.6823   72.8707   96.6371 H   0  0  0  0  0  0  0  0  0  0  0  0
 32 33  2  0  0  0
 33 34  1  0  0  0
 33 24  1  0  0  0
 24 25  2  0  0  0
 25 26  1  0  0  0
 26 23  1  0  0  0
 23 22  1  0  0  0
 22  1  1  0  0  0
  1  2  2  0  0  0
  2  3  1  0  0  0
  3  4  2  0  0  0
  4  5  1  0  0  0
  5  7  1  0  0  0
  7  8  2  0  0  0
  8  9  1  0  0  0
  9 10  2  0  0  0
 10 13  1  0  0  0
 13 14  2  0  0  0
 13 15  2  0  0  0
 13 16  1  0  0  0
 16 17  1  0  0  0
 17 18  1  0  0  0
 18 19  1  0  0  0
 19 20  1  0  0  0
 20 21  1  0  0  0
 10 11  1  0  0  0
 11 12  2  0  0  0
  5  6  2  0  0  0
 26 27  2  0  0  0
 27 28  1  0  0  0
 28 29  2  0  0  0
 29 30  1  0  0  0
 29 24  1  0  0  0
  6  1  1  0  0  0
 12  7  1  0  0  0
 21 16  1  0  0  0
 34 35  1  0  0  0
 30 31  1  0  0  0
M  END
> <score>
0.393044

> <minimizedAffinity>
-9.50073

$$$$
HIPS6312


 38 41  0  0  0  0  0  0  0  0999 V2000
   67.7671   73.5203   89.6701 C   0  0  0  0  0  0  0  0  0  0  0  0
   67.9574   74.9081   89.5945 C   0  0  0  0  0  0  0  0  0  0  0  0
   68.7383   75.5738   90.5517 C   0  0  0  0  0  0  0  0  0  0  0  0
   69.2999   74.8457   91.6110 C   0  0  0  0  0  0  0  0  0  0  0  0
   69.1252   73.4568   91.6914 C   0  0  0  0  0  0  0  0  0  0  0  0
   68.3382   72.8033   90.7322 C   0  0  0  0  0  0  0  0  0  0  0  0
   68.9214   77.0376   90.4857 C   0  0  0  0  0  0  0  0  0  0  0  0
   67.9459   77.9469   90.1274 C   0  0  0  0  0  0  0  0  0  0  0  0
   68.5612   79.1812   90.1245 C   0  0  0  0  0  0  0  0  0  0  0  0
   69.8219   79.0515   90.4701 O   0  0  0  0  0  0  0  0  0  0  0  0
   70.0746   77.7836   90.7040 C   0  0  0  0  0  0  0  0  0  0  0  0
   71.3878   77.3109   91.1702 C   0  0  0  0  0  0  0  0  0  0  0  0
   71.5498   76.9147   92.3547 O   0  0  0  0  0  0  0  0  0  0  0  0
   72.4727   77.3431   90.3005 O   0  0  0  0  0  0  0  0  0  0  0  0
   72.3574   77.6371   89.4183 H   0  0  0  0  0  0  0  0  0  0  0  0
   69.7226   72.7009   92.8089 C   0  0  0  0  0  0  0  0  0  0  0  0
   70.6467   71.6833   92.6810 C   0  0  0  0  0  0  0  0  0  0  0  0
   70.9942   71.3247   93.9668 C   0  0  0  0  0  0  0  0  0  0  0  0
   70.3245   72.0547   94.8298 O   0  0  0  0  0  0  0  0  0  0  0  0
   69.5444   72.8849   94.1746 C   0  0  0  0  0  0  0  0  0  0  0  0
   68.6128   73.8038   94.8475 C   0  0  0  0  0  0  0  0  0  0  0  0
   68.9890   74.9721   95.1309 O   0  0  0  0  0  0  0  0  0  0  0  0
   67.3389   73.3832   95.2162 O   0  0  0  0  0  0  0  0  0  0  0  0
   67.0536   72.5153   95.0080 H   0  0  0  0  0  0  0  0  0  0  0  0
   66.9118   72.8138   88.6497 C   0  0  0  0  0  0  0  0  0  0  0  0
   67.5729   71.6555   88.1374 O   0  0  0  0  0  0  0  0  0  0  0  0
   66.7682   71.5169   84.5196 C   0  0  0  0  0  0  0  0  0  0  0  0
   66.9908   71.9876   85.8274 C   0  0  0  0  0  0  0  0  0  0  0  0
   67.3919   71.1224   86.8508 C   0  0  0  0  0  0  0  0  0  0  0  0
   67.5925   69.7626   86.5612 C   0  0  0  0  0  0  0  0  0  0  0  0
   67.3775   69.2805   85.2705 C   0  0  0  0  0  0  0  0  0  0  0  0
   66.9649   70.1437   84.2464 C   0  0  0  0  0  0  0  0  0  0  0  0
   66.7535   69.6325   82.9658 O   0  0  0  0  0  0  0  0  0  0  0  0
   66.8873   68.7206   82.7974 H   0  0  0  0  0  0  0  0  0  0  0  0
   66.8898   73.5925   83.3378 O   0  0  0  0  0  0  0  0  0  0  0  0
   66.3283   72.4720   83.4706 C   0  0  0  0  0  0  0  0  0  0  0  0
   65.2820   72.1363   82.6146 O   0  0  0  0  0  0  0  0  0  0  0  0
   64.8542   71.3070   82.7003 H   0  0  0  0  0  0  0  0  0  0  0  0
 35 36  2  0  0  0
 36 37  1  0  0  0
 36 27  1  0  0  0
 27 28  2  0  0  0
 28 29  1  0  0  0
 29 26  1  0  0  0
 26 25  1  0  0  0
 25  1  1  0  0  0
  1  2  2  0  0  0
  2  3  1  0  0  0
  3  7  1  0  0  0
  7  8  1  0  0  0
  8  9  2  0  0  0
  9 10  1  0  0  0
 10 11  1  0  0  0
 11 12  1  0  0  0
 12 13  2  0  0  0
 12 14  1  0  0  0
  3  4  2  0  0  0
  4  5  1  0  0  0
  5 16  1  0  0  0
 16 17  1  0  0  0
 17 18  2  0  0  0
 18 19  1  0  0  0
 19 20  1  0  0  0
 20 21  1  0  0  0
 21 22  2  0  0  0
 21 23  1  0  0  0
  5  6  2  0  0  0
 29 30  2  0  0  0
 30 31  1  0  0  0
 31 32  2  0  0  0
 32 33  1  0  0  0
 32 27  1  0  0  0
  6  1  1  0  0  0
 11  7  2  0  0  0
 20 16  2  0  0  0
 37 38  1  0  0  0
 14 15  1  0  0  0
 23 24  1  0  0  0
 33 34  1  0  0  0
M  END
> <score>
0.217117

> <minimizedAffinity>
-9.44897

$$$$
HIPS6312


 38 41  0  0  0  0  0  0  0  0999 V2000
   67.3821   73.6572   89.2172 C   0  0  0  0  0  0  0  0  0  0  0  0
   67.9746   72.8555   90.2042 C   0  0  0  0  0  0  0  0  0  0  0  0
   68.6931   73.4381   91.2595 C   0  0  0  0  0  0  0  0  0  0  0  0
   68.8477   74.8317   91.3020 C   0  0  0  0  0  0  0  0  0  0  0  0
   68.2514   75.6440   90.3269 C   0  0  0  0  0  0  0  0  0  0  0  0
   67.5406   75.0500   89.2741 C   0  0  0  0  0  0  0  0  0  0  0  0
   69.3358   72.5944   92.2869 C   0  0  0  0  0  0  0  0  0  0  0  0
   69.9461   71.3784   92.0512 C   0  0  0  0  0  0  0  0  0  0  0  0
   70.3379   70.9053   93.2860 C   0  0  0  0  0  0  0  0  0  0  0  0
   70.0093   71.7697   94.2191 O   0  0  0  0  0  0  0  0  0  0  0  0
   69.4155   72.7997   93.6601 C   0  0  0  0  0  0  0  0  0  0  0  0
   68.9756   73.9739   94.4302 C   0  0  0  0  0  0  0  0  0  0  0  0
   69.8117   74.7273   94.9956 O   0  0  0  0  0  0  0  0  0  0  0  0
   67.6153   74.2285   94.5688 O   0  0  0  0  0  0  0  0  0  0  0  0
   66.9892   73.6710   94.1502 H   0  0  0  0  0  0  0  0  0  0  0  0
   68.4189   77.1088   90.3830 C   0  0  0  0  0  0  0  0  0  0  0  0
   68.9322   77.8933   89.3696 C   0  0  0  0  0  0  0  0  0  0  0  0
   68.8262   79.1962   89.8099 C   0  0  0  0  0  0  0  0  0  0  0  0
   68.3003   79.2189   91.0136 O   0  0  0  0  0  0  0  0  0  0  0  0
   68.0511   77.9864   91.3956 C   0  0  0  0  0  0  0  0  0  0  0  0
   67.5139   77.6562   92.7251 C   0  0  0  0  0  0  0  0  0  0  0  0
   66.2920   77.8450   92.9655 O   0  0  0  0  0  0  0  0  0  0  0  0
   68.3478   77.1828   93.7331 O   0  0  0  0  0  0  0  0  0  0  0  0
   69.2577   77.0404   93.5601 H   0  0  0  0  0  0  0  0  0  0  0  0
   66.6278   73.0245   88.0760 C   0  0  0  0  0  0  0  0  0  0  0  0
   67.2057   71.7703   87.7098 O   0  0  0  0  0  0  0  0  0  0  0  0
   65.8678   70.8828   84.3665 C   0  0  0  0  0  0  0  0  0  0  0  0
   66.0114   71.4502   85.6467 C   0  0  0  0  0  0  0  0  0  0  0  0
   67.1389   71.1899   86.4327 C   0  0  0  0  0  0  0  0  0  0  0  0
   68.1530   70.3607   85.9255 C   0  0  0  0  0  0  0  0  0  0  0  0
   68.0267   69.7917   84.6586 C   0  0  0  0  0  0  0  0  0  0  0  0
   66.8928   70.0425   83.8742 C   0  0  0  0  0  0  0  0  0  0  0  0
   66.7917   69.4562   82.6124 O   0  0  0  0  0  0  0  0  0  0  0  0
   67.4777   68.9012   82.2974 H   0  0  0  0  0  0  0  0  0  0  0  0
   64.7207   71.4883   82.3572 O   0  0  0  0  0  0  0  0  0  0  0  0
   64.6451   71.1771   83.5762 C   0  0  0  0  0  0  0  0  0  0  0  0
   63.3911   71.1110   84.1788 O   0  0  0  0  0  0  0  0  0  0  0  0
   63.3179   70.8810   85.0843 H   0  0  0  0  0  0  0  0  0  0  0  0
 35 36  2  0  0  0
 36 37  1  0  0  0
 36 27  1  0  0  0
 27 28  2  0  0  0
 28 29  1  0  0  0
 29 26  1  0  0  0
 26 25  1  0  0  0
 25  1  1  0  0  0
  1  2  2  0  0  0
  2  3  1  0  0  0
  3  7  1  0  0  0
  7  8  1  0  0  0
  8  9  2  0  0  0
  9 10  1  0  0  0
 10 11  1  0  0  0
 11 12  1  0  0  0
 12 13  2  0  0  0
 12 14  1  0  0  0
  3  4  2  0  0  0
  4  5  1  0  0  0
  5 16  1  0  0  0
 16 17  1  0  0  0
 17 18  2  0  0  0
 18 19  1  0  0  0
 19 20  1  0  0  0
 20 21  1  0  0  0
 21 22  2  0  0  0
 21 23  1  0  0  0
  5  6  2  0  0  0
 29 30  2  0  0  0
 30 31  1  0  0  0
 31 32  2  0  0  0
 32 33  1  0  0  0
 32 27  1  0  0  0
  6  1  1  0  0  0
 11  7  2  0  0  0
 20 16  2  0  0  0
 37 38  1  0  0  0
 14 15  1  0  0  0
 23 24  1  0  0  0
 33 34  1  0  0  0
M  END
> <score>
0.217117

> <minimizedAffinity>
-9.04134

$$$$
HIPS6312


 38 41  0  0  0  0  0  0  0  0999 V2000
   67.5987   73.9510   89.4746 C   0  0  0  0  0  0  0  0  0  0  0  0
   67.8479   75.3309   89.4338 C   0  0  0  0  0  0  0  0  0  0  0  0
   68.6538   75.9390   90.4084 C   0  0  0  0  0  0  0  0  0  0  0  0
   69.1812   75.1618   91.4502 C   0  0  0  0  0  0  0  0  0  0  0  0
   68.9475   73.7799   91.4959 C   0  0  0  0  0  0  0  0  0  0  0  0
   68.1360   73.1844   90.5196 C   0  0  0  0  0  0  0  0  0  0  0  0
   68.8990   77.3949   90.3791 C   0  0  0  0  0  0  0  0  0  0  0  0
   69.9632   78.0108   89.7508 C   0  0  0  0  0  0  0  0  0  0  0  0
   69.8460   79.3548   90.0371 C   0  0  0  0  0  0  0  0  0  0  0  0
   68.7797   79.5618   90.7758 O   0  0  0  0  0  0  0  0  0  0  0  0
   68.1797   78.4136   90.9947 C   0  0  0  0  0  0  0  0  0  0  0  0
   66.9173   78.3100   91.7436 C   0  0  0  0  0  0  0  0  0  0  0  0
   65.9621   79.0980   91.5139 O   0  0  0  0  0  0  0  0  0  0  0  0
   66.7958   77.3549   92.7473 O   0  0  0  0  0  0  0  0  0  0  0  0
   67.5036   76.7663   92.9221 H   0  0  0  0  0  0  0  0  0  0  0  0
   69.5094   72.9720   92.5953 C   0  0  0  0  0  0  0  0  0  0  0  0
   70.4758   71.9960   92.4560 C   0  0  0  0  0  0  0  0  0  0  0  0
   70.7644   71.5650   93.7341 C   0  0  0  0  0  0  0  0  0  0  0  0
   70.0216   72.2139   94.6020 O   0  0  0  0  0  0  0  0  0  0  0  0
   69.2492   73.0595   93.9574 C   0  0  0  0  0  0  0  0  0  0  0  0
   68.2487   73.9008   94.6329 C   0  0  0  0  0  0  0  0  0  0  0  0
   67.1376   73.4044   94.9580 O   0  0  0  0  0  0  0  0  0  0  0  0
   68.4968   75.2483   94.8743 O   0  0  0  0  0  0  0  0  0  0  0  0
   69.3215   75.6230   94.6346 H   0  0  0  0  0  0  0  0  0  0  0  0
   66.7169   73.3069   88.4357 C   0  0  0  0  0  0  0  0  0  0  0  0
   67.1207   71.9603   88.1812 O   0  0  0  0  0  0  0  0  0  0  0  0
   66.0876   71.1029   84.7240 C   0  0  0  0  0  0  0  0  0  0  0  0
   66.1449   71.6976   85.9985 C   0  0  0  0  0  0  0  0  0  0  0  0
   67.1373   71.3445   86.9191 C   0  0  0  0  0  0  0  0  0  0  0  0
   68.1034   70.3917   86.5558 C   0  0  0  0  0  0  0  0  0  0  0  0
   68.0614   69.7942   85.2965 C   0  0  0  0  0  0  0  0  0  0  0  0
   67.0614   70.1384   84.3770 C   0  0  0  0  0  0  0  0  0  0  0  0
   67.0417   69.5212   83.1261 O   0  0  0  0  0  0  0  0  0  0  0  0
   67.6927   68.8835   82.9081 H   0  0  0  0  0  0  0  0  0  0  0  0
   63.8005   71.2275   84.0361 O   0  0  0  0  0  0  0  0  0  0  0  0
   65.0056   71.4999   83.7870 C   0  0  0  0  0  0  0  0  0  0  0  0
   65.3137   72.1838   82.6134 O   0  0  0  0  0  0  0  0  0  0  0  0
   66.2048   72.3937   82.4137 H   0  0  0  0  0  0  0  0  0  0  0  0
 35 36  2  0  0  0
 36 37  1  0  0  0
 36 27  1  0  0  0
 27 28  2  0  0  0
 28 29  1  0  0  0
 29 26  1  0  0  0
 26 25  1  0  0  0
 25  1  1  0  0  0
  1  2  2  0  0  0
  2  3  1  0  0  0
  3  7  1  0  0  0
  7  8  1  0  0  0
  8  9  2  0  0  0
  9 10  1  0  0  0
 10 11  1  0  0  0
 11 12  1  0  0  0
 12 13  2  0  0  0
 12 14  1  0  0  0
  3  4  2  0  0  0
  4  5  1  0  0  0
  5 16  1  0  0  0
 16 17  1  0  0  0
 17 18  2  0  0  0
 18 19  1  0  0  0
 19 20  1  0  0  0
 20 21  1  0  0  0
 21 22  2  0  0  0
 21 23  1  0  0  0
  5  6  2  0  0  0
 29 30  2  0  0  0
 30 31  1  0  0  0
 31 32  2  0  0  0
 32 33  1  0  0  0
 32 27  1  0  0  0
  6  1  1  0  0  0
 11  7  2  0  0  0
 20 16  2  0  0  0
 37 38  1  0  0  0
 14 15  1  0  0  0
 23 24  1  0  0  0
 33 34  1  0  0  0
M  END
> <score>
0.217117

> <minimizedAffinity>
-8.73660

$$$$
HIPS6336


 30 32  0  0  0  0  0  0  0  0999 V2000
   70.0922   79.7841   90.2420 C   0  0  0  0  0  0  0  0  0  0  0  0
   71.2603   79.0040   90.3128 C   0  0  0  0  0  0  0  0  0  0  0  0
   71.1851   77.6427   90.6154 C   0  0  0  0  0  0  0  0  0  0  0  0
   69.9461   77.0413   90.8434 C   0  0  0  0  0  0  0  0  0  0  0  0
   68.7685   77.7989   90.7676 C   0  0  0  0  0  0  0  0  0  0  0  0
   68.8478   79.1714   90.4794 C   0  0  0  0  0  0  0  0  0  0  0  0
   70.2820   83.9555   89.2858 C   0  0  0  0  0  0  0  0  0  0  0  0
   71.4581   83.2712   89.6412 C   0  0  0  0  0  0  0  0  0  0  0  0
   71.3956   81.9132   89.9561 C   0  0  0  0  0  0  0  0  0  0  0  0
   70.1699   81.2306   89.9147 C   0  0  0  0  0  0  0  0  0  0  0  0
   69.0212   81.9507   89.5497 C   0  0  0  0  0  0  0  0  0  0  0  0
   69.1062   83.2738   89.2505 N   0  0  0  0  0  0  0  0  0  0  0  0
   70.2672   85.3201   88.9544 O   0  0  0  0  0  0  0  0  0  0  0  0
   72.2336   86.1465   87.8472 C   0  0  0  0  0  0  0  0  0  0  0  0
   70.7325   85.8893   87.7282 C   0  0  0  0  0  0  0  0  0  0  0  0
   70.4497   84.9388   86.5603 C   0  0  0  0  0  0  0  0  0  0  0  0
   67.4344   77.1390   90.9988 C   0  0  0  0  0  0  0  0  0  0  0  0
   67.0546   77.2332   92.3726 O   0  0  0  0  0  0  0  0  0  0  0  0
   67.0460   76.1684   93.2889 C   0  0  0  0  0  0  0  0  0  0  0  0
   65.8396   75.8477   93.9150 C   0  0  0  0  0  0  0  0  0  0  0  0
   65.7796   74.8161   94.8519 C   0  0  0  0  0  0  0  0  0  0  0  0
   66.9252   74.0853   95.1830 C   0  0  0  0  0  0  0  0  0  0  0  0
   66.8156   73.1232   96.1892 O   0  0  0  0  0  0  0  0  0  0  0  0
   68.1474   74.3636   94.5240 C   0  0  0  0  0  0  0  0  0  0  0  0
   68.1963   75.4163   93.5913 C   0  0  0  0  0  0  0  0  0  0  0  0
   65.9884   72.9684   96.6013 H   0  0  0  0  0  0  0  0  0  0  0  0
   69.3707   73.5641   94.7538 C   0  0  0  0  0  0  0  0  0  0  0  0
   70.2773   73.5336   93.8780 O   0  0  0  0  0  0  0  0  0  0  0  0
   69.5078   72.7936   95.9047 O   0  0  0  0  0  0  0  0  0  0  0  0
   68.8395   72.8094   96.5614 H   0  0  0  0  0  0  0  0  0  0  0  0
 14 15  1  0  0  0
 15 16  1  0  0  0
 15 13  1  0  0  0
 13  7  1  0  0  0
  7  8  2  0  0  0
  8  9  1  0  0  0
  9 10  2  0  0  0
 10  1  1  0  0  0
  1  2  2  0  0  0
  2  3  1  0  0  0
  3  4  2  0  0  0
  4  5  1  0  0  0
  5 17  1  0  0  0
 17 18  1  0  0  0
 18 19  1  0  0  0
 19 20  2  0  0  0
 20 21  1  0  0  0
 21 22  2  0  0  0
 22 23  1  0  0  0
 22 24  1  0  0  0
 24 27  1  0  0  0
 27 28  2  0  0  0
 27 29  1  0  0  0
 24 25  2  0  0  0
  5  6  2  0  0  0
 10 11  1  0  0  0
 11 12  2  0  0  0
 12  7  2  0  0  0
  6  1  1  0  0  0
 25 19  1  0  0  0
 23 26  1  0  0  0
 29 30  1  0  0  0
M  END
> <score>
-0.258887

> <minimizedAffinity>
-8.72904

$$$$
HIPS6336


 30 32  0  0  0  0  0  0  0  0999 V2000
   69.1263   75.9985   90.7540 C   0  0  0  0  0  0  0  0  0  0  0  0
   68.0578   76.0712   89.8423 C   0  0  0  0  0  0  0  0  0  0  0  0
   67.8636   77.2182   89.0695 C   0  0  0  0  0  0  0  0  0  0  0  0
   68.7348   78.3022   89.1901 C   0  0  0  0  0  0  0  0  0  0  0  0
   69.8123   78.2463   90.0858 C   0  0  0  0  0  0  0  0  0  0  0  0
   69.9961   77.0982   90.8740 C   0  0  0  0  0  0  0  0  0  0  0  0
   69.7535   72.4963   93.1398 C   0  0  0  0  0  0  0  0  0  0  0  0
   69.2669   72.3632   91.8271 C   0  0  0  0  0  0  0  0  0  0  0  0
   69.0592   73.5043   91.0511 C   0  0  0  0  0  0  0  0  0  0  0  0
   69.3376   74.7775   91.5724 C   0  0  0  0  0  0  0  0  0  0  0  0
   69.8270   74.8645   92.8856 C   0  0  0  0  0  0  0  0  0  0  0  0
   70.0181   73.7392   93.6234 N   0  0  0  0  0  0  0  0  0  0  0  0
   69.9889   71.3948   93.9785 O   0  0  0  0  0  0  0  0  0  0  0  0
   72.3198   70.9267   93.6277 C   0  0  0  0  0  0  0  0  0  0  0  0
   70.9151   70.3348   93.7287 C   0  0  0  0  0  0  0  0  0  0  0  0
   70.8567   69.3010   94.8581 C   0  0  0  0  0  0  0  0  0  0  0  0
   70.7574   79.4138   90.1981 C   0  0  0  0  0  0  0  0  0  0  0  0
   70.0520   80.6495   90.0723 O   0  0  0  0  0  0  0  0  0  0  0  0
   70.5798   81.8362   89.5367 C   0  0  0  0  0  0  0  0  0  0  0  0
   71.8698   82.2135   89.9157 C   0  0  0  0  0  0  0  0  0  0  0  0
   72.4331   83.3951   89.4338 C   0  0  0  0  0  0  0  0  0  0  0  0
   71.7170   84.2243   88.5645 C   0  0  0  0  0  0  0  0  0  0  0  0
   72.3044   85.4335   88.1864 O   0  0  0  0  0  0  0  0  0  0  0  0
   70.4262   83.8353   88.1310 C   0  0  0  0  0  0  0  0  0  0  0  0
   69.8650   82.6477   88.6362 C   0  0  0  0  0  0  0  0  0  0  0  0
   73.1611   85.6547   88.4948 H   0  0  0  0  0  0  0  0  0  0  0  0
   69.6568   84.6146   87.1364 C   0  0  0  0  0  0  0  0  0  0  0  0
   68.3968   84.5655   87.1354 O   0  0  0  0  0  0  0  0  0  0  0  0
   70.3113   85.3585   86.1591 O   0  0  0  0  0  0  0  0  0  0  0  0
   71.2473   85.4013   86.1513 H   0  0  0  0  0  0  0  0  0  0  0  0
 14 15  1  0  0  0
 15 16  1  0  0  0
 15 13  1  0  0  0
 13  7  1  0  0  0
  7  8  2  0  0  0
  8  9  1  0  0  0
  9 10  2  0  0  0
 10  1  1  0  0  0
  1  2  2  0  0  0
  2  3  1  0  0  0
  3  4  2  0  0  0
  4  5  1  0  0  0
  5 17  1  0  0  0
 17 18  1  0  0  0
 18 19  1  0  0  0
 19 20  2  0  0  0
 20 21  1  0  0  0
 21 22  2  0  0  0
 22 23  1  0  0  0
 22 24  1  0  0  0
 24 27  1  0  0  0
 27 28  2  0  0  0
 27 29  1  0  0  0
 24 25  2  0  0  0
  5  6  2  0  0  0
 10 11  1  0  0  0
 11 12  2  0  0  0
 12  7  2  0  0  0
  6  1  1  0  0  0
 25 19  1  0  0  0
 23 26  1  0  0  0
 29 30  1  0  0  0
M  END
> <score>
-0.258887

> <minimizedAffinity>
-8.51595

$$$$
HIPS6336


 30 32  0  0  0  0  0  0  0  0999 V2000
   67.3975   76.5811   89.0438 C   0  0  0  0  0  0  0  0  0  0  0  0
   67.7251   77.7067   88.2667 C   0  0  0  0  0  0  0  0  0  0  0  0
   67.9380   78.9471   88.8722 C   0  0  0  0  0  0  0  0  0  0  0  0
   67.8344   79.0792   90.2580 C   0  0  0  0  0  0  0  0  0  0  0  0
   67.5186   77.9674   91.0520 C   0  0  0  0  0  0  0  0  0  0  0  0
   67.2888   76.7244   90.4394 C   0  0  0  0  0  0  0  0  0  0  0  0
   66.7523   72.7875   87.1614 C   0  0  0  0  0  0  0  0  0  0  0  0
   66.8873   72.8539   88.5596 C   0  0  0  0  0  0  0  0  0  0  0  0
   67.1010   74.0893   89.1725 C   0  0  0  0  0  0  0  0  0  0  0  0
   67.1764   75.2602   88.4021 C   0  0  0  0  0  0  0  0  0  0  0  0
   67.0309   75.1493   87.0100 C   0  0  0  0  0  0  0  0  0  0  0  0
   66.8269   73.9346   86.4353 N   0  0  0  0  0  0  0  0  0  0  0  0
   66.5336   71.5819   86.4753 O   0  0  0  0  0  0  0  0  0  0  0  0
   68.0345   69.7071   86.5640 C   0  0  0  0  0  0  0  0  0  0  0  0
   67.5074   70.8624   85.7149 C   0  0  0  0  0  0  0  0  0  0  0  0
   66.8824   70.3268   84.4225 C   0  0  0  0  0  0  0  0  0  0  0  0
   67.4249   78.1148   92.5481 C   0  0  0  0  0  0  0  0  0  0  0  0
   66.4475   77.2217   93.0843 O   0  0  0  0  0  0  0  0  0  0  0  0
   66.7187   76.1272   93.9221 C   0  0  0  0  0  0  0  0  0  0  0  0
   65.7438   75.7482   94.8473 C   0  0  0  0  0  0  0  0  0  0  0  0
   65.9707   74.6846   95.7208 C   0  0  0  0  0  0  0  0  0  0  0  0
   67.1781   73.9794   95.6878 C   0  0  0  0  0  0  0  0  0  0  0  0
   67.3756   72.9814   96.6444 O   0  0  0  0  0  0  0  0  0  0  0  0
   68.1600   74.3177   94.7249 C   0  0  0  0  0  0  0  0  0  0  0  0
   67.9230   75.4018   93.8595 C   0  0  0  0  0  0  0  0  0  0  0  0
   66.7010   72.7871   97.2649 H   0  0  0  0  0  0  0  0  0  0  0  0
   69.4149   73.5497   94.5703 C   0  0  0  0  0  0  0  0  0  0  0  0
   69.8092   72.7933   95.4989 O   0  0  0  0  0  0  0  0  0  0  0  0
   70.2004   73.6978   93.4310 O   0  0  0  0  0  0  0  0  0  0  0  0
   69.9161   74.2576   92.7354 H   0  0  0  0  0  0  0  0  0  0  0  0
 14 15  1  0  0  0
 15 16  1  0  0  0
 15 13  1  0  0  0
 13  7  1  0  0  0
  7  8  2  0  0  0
  8  9  1  0  0  0
  9 10  2  0  0  0
 10  1  1  0  0  0
  1  2  2  0  0  0
  2  3  1  0  0  0
  3  4  2  0  0  0
  4  5  1  0  0  0
  5 17  1  0  0  0
 17 18  1  0  0  0
 18 19  1  0  0  0
 19 20  2  0  0  0
 20 21  1  0  0  0
 21 22  2  0  0  0
 22 23  1  0  0  0
 22 24  1  0  0  0
 24 27  1  0  0  0
 27 28  2  0  0  0
 27 29  1  0  0  0
 24 25  2  0  0  0
  5  6  2  0  0  0
 10 11  1  0  0  0
 11 12  2  0  0  0
 12  7  2  0  0  0
  6  1  1  0  0  0
 25 19  1  0  0  0
 23 26  1  0  0  0
 29 30  1  0  0  0
M  END
> <score>
-0.258887

> <minimizedAffinity>
-8.37510

$$$$
HIPS6385


 51 54  0  0  0  0  0  0  0  0999 V2000
   67.3629   75.4200   88.8087 C   0  0  0  0  0  0  0  0  0  0  0  0
   66.8142   74.5512   87.9038 C   0  0  0  0  0  0  0  0  0  0  0  0
   66.7934   73.1856   88.1702 C   0  0  0  0  0  0  0  0  0  0  0  0
   67.3364   72.7285   89.3632 C   0  0  0  0  0  0  0  0  0  0  0  0
   67.8943   73.5835   90.2900 C   0  0  0  0  0  0  0  0  0  0  0  0
   67.8855   74.9197   89.9708 C   0  0  0  0  0  0  0  0  0  0  0  0
   68.4831   73.0981   91.5703 C   0  0  0  0  0  0  0  0  0  0  0  0
   68.0516   73.4529   92.7049 C   0  0  0  0  0  0  0  0  0  0  0  0
   68.6935   72.9239   93.9268 C   0  0  0  0  0  0  0  0  0  0  0  0
   69.9879   71.8518   93.1734 S   0  0  0  0  0  0  0  0  0  0  0  0
   69.6099   72.1666   91.5297 C   0  0  0  0  0  0  0  0  0  0  0  0
   69.8288   70.5410   93.4995 H   0  0  0  0  0  0  0  0  0  0  0  0
   69.2355   74.1018   94.6663 C   0  0  0  0  0  0  0  0  0  0  0  0
   68.4518   75.2859   94.7063 N   0  0  0  0  0  0  0  0  0  0  0  0
   68.6077   76.4826   93.9856 C   0  0  0  0  0  0  0  0  0  0  0  0
   69.5528   76.5634   93.1724 O   0  0  0  0  0  0  0  0  0  0  0  0
   67.6892   75.2654   95.3287 H   0  0  0  0  0  0  0  0  0  0  0  0
   67.7557   77.5760   94.1410 O   0  0  0  0  0  0  0  0  0  0  0  0
   66.4768   77.5205   93.5325 C   0  0  0  0  0  0  0  0  0  0  0  0
   65.8454   76.1582   93.7199 C   0  0  0  0  0  0  0  0  0  0  0  0
   66.6755   77.7325   92.0474 C   0  0  0  0  0  0  0  0  0  0  0  0
   65.5910   78.6206   94.0540 C   0  0  0  0  0  0  0  0  0  0  0  0
   68.1425   79.0711   88.8839 C   0  0  0  0  0  0  0  0  0  0  0  0
   68.1652   77.7800   89.1878 C   0  0  0  0  0  0  0  0  0  0  0  0
   67.3901   76.9048   88.5235 C   0  0  0  0  0  0  0  0  0  0  0  0
   66.5760   77.4222   87.5152 C   0  0  0  0  0  0  0  0  0  0  0  0
   66.9364   79.2136   87.5248 S   0  0  0  0  0  0  0  0  0  0  0  0
   68.8796   80.2411   89.4350 C   0  0  0  0  0  0  0  0  0  0  0  0
   69.0022   82.7058   89.2950 C   0  0  0  0  0  0  0  0  0  0  0  0
   69.8954   82.7193   90.1641 O   0  0  0  0  0  0  0  0  0  0  0  0
   68.4385   81.4956   88.8732 N   0  0  0  0  0  0  0  0  0  0  0  0
   67.7336   81.5002   88.1859 H   0  0  0  0  0  0  0  0  0  0  0  0
   68.6194   83.9515   88.7905 O   0  0  0  0  0  0  0  0  0  0  0  0
   67.8716   84.0535   86.5212 C   0  0  0  0  0  0  0  0  0  0  0  0
   68.9963   84.3528   87.4865 C   0  0  0  0  0  0  0  0  0  0  0  0
   69.2506   85.8434   87.5272 C   0  0  0  0  0  0  0  0  0  0  0  0
   70.2669   83.6668   87.0176 C   0  0  0  0  0  0  0  0  0  0  0  0
   66.1963   72.2877   87.1713 C   0  0  0  0  0  0  0  0  0  0  0  0
   66.8935   72.2519   85.9619 O   0  0  0  0  0  0  0  0  0  0  0  0
   66.4649   71.4361   84.9349 C   0  0  0  0  0  0  0  0  0  0  0  0
   67.3148   70.4715   84.4521 C   0  0  0  0  0  0  0  0  0  0  0  0
   66.9389   69.6215   83.4199 C   0  0  0  0  0  0  0  0  0  0  0  0
   65.6694   69.7838   82.8932 C   0  0  0  0  0  0  0  0  0  0  0  0
   65.2876   68.9457   81.8693 O   0  0  0  0  0  0  0  0  0  0  0  0
   64.8033   70.7370   83.3561 C   0  0  0  0  0  0  0  0  0  0  0  0
   65.2057   71.5685   84.3846 C   0  0  0  0  0  0  0  0  0  0  0  0
   65.8805   68.2930   81.5523 H   0  0  0  0  0  0  0  0  0  0  0  0
   63.4713   70.8598   82.7561 C   0  0  0  0  0  0  0  0  0  0  0  0
   62.4526   70.5943   83.4141 O   0  0  0  0  0  0  0  0  0  0  0  0
   63.3405   71.2800   81.4283 O   0  0  0  0  0  0  0  0  0  0  0  0
   64.1036   71.4826   80.9237 H   0  0  0  0  0  0  0  0  0  0  0  0
 34 35  1  0  0  0
 35 36  1  0  0  0
 35 37  1  0  0  0
 35 33  1  0  0  0
 33 29  1  0  0  0
 29 30  2  0  0  0
 29 31  1  0  0  0
 31 28  1  0  0  0
 28 23  1  0  0  0
 23 24  2  0  0  0
 24 25  1  0  0  0
 25  1  1  0  0  0
  1  2  2  0  0  0
  2  3  1  0  0  0
  3 38  1  0  0  0
 38 39  1  0  0  0
 39 40  1  0  0  0
 40 41  2  0  0  0
 41 42  1  0  0  0
 42 43  2  0  0  0
 43 44  1  0  0  0
 43 45  1  0  0  0
 45 48  1  0  0  0
 48 49  2  0  0  0
 48 50  1  0  0  0
 45 46  2  0  0  0
  3  4  2  0  0  0
  4  5  1  0  0  0
  5  7  1  0  0  0
  7  8  2  0  0  0
  8  9  1  0  0  0
  9 13  1  0  0  0
 13 14  1  0  0  0
 14 15  1  0  0  0
 15 16  2  0  0  0
 15 18  1  0  0  0
 18 19  1  0  0  0
 19 20  1  0  0  0
 19 21  1  0  0  0
 19 22  1  0  0  0
  9 10  1  0  0  0
 10 11  2  0  0  0
  5  6  2  0  0  0
 25 26  2  0  0  0
 26 27  1  0  0  0
 27 23  1  0  0  0
  6  1  1  0  0  0
 46 40  1  0  0  0
 11  7  1  0  0  0
 31 32  1  0  0  0
 44 47  1  0  0  0
 50 51  1  0  0  0
 14 17  1  0  0  0
 10 12  1  0  0  0
M  END
> <score>
-0.976363

> <minimizedAffinity>
-9.55256

$$$$
HIPS6385


 51 54  0  0  0  0  0  0  0  0999 V2000
   68.3045   74.1195   90.7727 C   0  0  0  0  0  0  0  0  0  0  0  0
   67.6960   73.3086   89.8524 C   0  0  0  0  0  0  0  0  0  0  0  0
   67.0670   73.8618   88.7413 C   0  0  0  0  0  0  0  0  0  0  0  0
   67.0705   75.2414   88.5885 C   0  0  0  0  0  0  0  0  0  0  0  0
   67.6764   76.0787   89.5013 C   0  0  0  0  0  0  0  0  0  0  0  0
   68.2806   75.4741   90.5769 C   0  0  0  0  0  0  0  0  0  0  0  0
   67.6793   77.5609   89.3450 C   0  0  0  0  0  0  0  0  0  0  0  0
   68.7394   78.2371   89.2101 C   0  0  0  0  0  0  0  0  0  0  0  0
   68.6536   79.7051   89.0608 C   0  0  0  0  0  0  0  0  0  0  0  0
   66.8274   79.9317   89.1414 S   0  0  0  0  0  0  0  0  0  0  0  0
   66.4061   78.2807   89.3428 C   0  0  0  0  0  0  0  0  0  0  0  0
   66.3200   80.4595   87.9953 H   0  0  0  0  0  0  0  0  0  0  0  0
   69.3902   80.2940   90.2178 C   0  0  0  0  0  0  0  0  0  0  0  0
   70.2175   81.4240   89.9799 N   0  0  0  0  0  0  0  0  0  0  0  0
   69.8736   82.7860   89.9317 C   0  0  0  0  0  0  0  0  0  0  0  0
   68.6809   83.1014   90.1292 O   0  0  0  0  0  0  0  0  0  0  0  0
   71.1693   81.2242   89.8265 H   0  0  0  0  0  0  0  0  0  0  0  0
   70.8040   83.7927   89.6738 O   0  0  0  0  0  0  0  0  0  0  0  0
   70.9132   84.2802   88.3474 C   0  0  0  0  0  0  0  0  0  0  0  0
   70.2387   83.3445   87.3682 C   0  0  0  0  0  0  0  0  0  0  0  0
   72.3861   84.3199   88.0024 C   0  0  0  0  0  0  0  0  0  0  0  0
   70.3652   85.6790   88.2476 C   0  0  0  0  0  0  0  0  0  0  0  0
   70.3937   72.0023   93.0304 C   0  0  0  0  0  0  0  0  0  0  0  0
   69.8247   72.4731   91.9284 C   0  0  0  0  0  0  0  0  0  0  0  0
   68.9877   73.5240   91.9832 C   0  0  0  0  0  0  0  0  0  0  0  0
   68.7561   74.0808   93.2417 C   0  0  0  0  0  0  0  0  0  0  0  0
   69.7694   73.0649   94.3732 S   0  0  0  0  0  0  0  0  0  0  0  0
   71.3439   70.8806   93.2642 C   0  0  0  0  0  0  0  0  0  0  0  0
   73.6119   70.7239   94.2345 C   0  0  0  0  0  0  0  0  0  0  0  0
   73.2342   69.8085   94.9911 O   0  0  0  0  0  0  0  0  0  0  0  0
   72.7182   71.3168   93.3343 N   0  0  0  0  0  0  0  0  0  0  0  0
   73.0305   72.0391   92.7427 H   0  0  0  0  0  0  0  0  0  0  0  0
   74.9525   71.1006   94.3502 O   0  0  0  0  0  0  0  0  0  0  0  0
   75.4490   69.9378   92.3202 C   0  0  0  0  0  0  0  0  0  0  0  0
   75.9674   70.3886   93.6672 C   0  0  0  0  0  0  0  0  0  0  0  0
   77.1328   71.3338   93.4750 C   0  0  0  0  0  0  0  0  0  0  0  0
   76.4563   69.1858   94.4541 C   0  0  0  0  0  0  0  0  0  0  0  0
   66.4247   72.9555   87.7786 C   0  0  0  0  0  0  0  0  0  0  0  0
   67.2710   71.9518   87.3030 O   0  0  0  0  0  0  0  0  0  0  0  0
   67.0055   71.3286   86.1009 C   0  0  0  0  0  0  0  0  0  0  0  0
   67.9428   70.4755   85.5720 C   0  0  0  0  0  0  0  0  0  0  0  0
   67.7312   69.8201   84.3658 C   0  0  0  0  0  0  0  0  0  0  0  0
   66.5347   70.0602   83.7132 C   0  0  0  0  0  0  0  0  0  0  0  0
   66.3159   69.4150   82.5164 O   0  0  0  0  0  0  0  0  0  0  0  0
   65.5843   70.9054   84.2185 C   0  0  0  0  0  0  0  0  0  0  0  0
   65.8231   71.5436   85.4214 C   0  0  0  0  0  0  0  0  0  0  0  0
   66.9665   68.8362   82.1703 H   0  0  0  0  0  0  0  0  0  0  0  0
   64.3364   71.1192   83.4791 C   0  0  0  0  0  0  0  0  0  0  0  0
   63.2366   70.9396   84.0264 O   0  0  0  0  0  0  0  0  0  0  0  0
   64.3792   71.5296   82.1426 O   0  0  0  0  0  0  0  0  0  0  0  0
   65.2046   71.6676   81.7211 H   0  0  0  0  0  0  0  0  0  0  0  0
 34 35  1  0  0  0
 35 36  1  0  0  0
 35 37  1  0  0  0
 35 33  1  0  0  0
 33 29  1  0  0  0
 29 30  2  0  0  0
 29 31  1  0  0  0
 31 28  1  0  0  0
 28 23  1  0  0  0
 23 24  2  0  0  0
 24 25  1  0  0  0
 25  1  1  0  0  0
  1  2  2  0  0  0
  2  3  1  0  0  0
  3 38  1  0  0  0
 38 39  1  0  0  0
 39 40  1  0  0  0
 40 41  2  0  0  0
 41 42  1  0  0  0
 42 43  2  0  0  0
 43 44  1  0  0  0
 43 45  1  0  0  0
 45 48  1  0  0  0
 48 49  2  0  0  0
 48 50  1  0  0  0
 45 46  2  0  0  0
  3  4  2  0  0  0
  4  5  1  0  0  0
  5  7  1  0  0  0
  7  8  2  0  0  0
  8  9  1  0  0  0
  9 13  1  0  0  0
 13 14  1  0  0  0
 14 15  1  0  0  0
 15 16  2  0  0  0
 15 18  1  0  0  0
 18 19  1  0  0  0
 19 20  1  0  0  0
 19 21  1  0  0  0
 19 22  1  0  0  0
  9 10  1  0  0  0
 10 11  2  0  0  0
  5  6  2  0  0  0
 25 26  2  0  0  0
 26 27  1  0  0  0
 27 23  1  0  0  0
  6  1  1  0  0  0
 46 40  1  0  0  0
 11  7  1  0  0  0
 31 32  1  0  0  0
 44 47  1  0  0  0
 50 51  1  0  0  0
 14 17  1  0  0  0
 10 12  1  0  0  0
M  END
> <score>
-0.976363

> <minimizedAffinity>
-9.49864

$$$$
HIPS6385


 51 54  0  0  0  0  0  0  0  0999 V2000
   68.1690   73.2596   90.1709 C   0  0  0  0  0  0  0  0  0  0  0  0
   67.5690   72.4877   89.2123 C   0  0  0  0  0  0  0  0  0  0  0  0
   66.8820   73.0874   88.1612 C   0  0  0  0  0  0  0  0  0  0  0  0
   66.8196   74.4731   88.1071 C   0  0  0  0  0  0  0  0  0  0  0  0
   67.4157   75.2716   89.0602 C   0  0  0  0  0  0  0  0  0  0  0  0
   68.0790   74.6221   90.0728 C   0  0  0  0  0  0  0  0  0  0  0  0
   67.3480   76.7597   89.0099 C   0  0  0  0  0  0  0  0  0  0  0  0
   67.9260   77.5043   89.8530 C   0  0  0  0  0  0  0  0  0  0  0  0
   67.8078   78.9725   89.7306 C   0  0  0  0  0  0  0  0  0  0  0  0
   66.7513   79.0873   88.2263 S   0  0  0  0  0  0  0  0  0  0  0  0
   66.5844   77.4036   87.9415 C   0  0  0  0  0  0  0  0  0  0  0  0
   67.3769   79.7263   87.2016 H   0  0  0  0  0  0  0  0  0  0  0  0
   67.1422   79.4509   90.9781 C   0  0  0  0  0  0  0  0  0  0  0  0
   66.5894   78.4809   91.8563 N   0  0  0  0  0  0  0  0  0  0  0  0
   66.4590   78.5168   93.2555 C   0  0  0  0  0  0  0  0  0  0  0  0
   66.8652   79.5315   93.8607 O   0  0  0  0  0  0  0  0  0  0  0  0
   66.2482   77.6657   91.4224 H   0  0  0  0  0  0  0  0  0  0  0  0
   65.8984   77.4721   93.9902 O   0  0  0  0  0  0  0  0  0  0  0  0
   66.6174   76.2539   94.0785 C   0  0  0  0  0  0  0  0  0  0  0  0
   68.1099   76.5013   94.0480 C   0  0  0  0  0  0  0  0  0  0  0  0
   66.2643   75.4333   92.8570 C   0  0  0  0  0  0  0  0  0  0  0  0
   66.2068   75.4810   95.3036 C   0  0  0  0  0  0  0  0  0  0  0  0
   69.7537   70.7846   92.4746 C   0  0  0  0  0  0  0  0  0  0  0  0
   69.0845   71.2856   91.4446 C   0  0  0  0  0  0  0  0  0  0  0  0
   68.9150   72.6133   91.3165 C   0  0  0  0  0  0  0  0  0  0  0  0
   69.4727   73.4190   92.3101 C   0  0  0  0  0  0  0  0  0  0  0  0
   70.2605   72.2341   93.4565 S   0  0  0  0  0  0  0  0  0  0  0  0
   70.0938   69.3882   92.8622 C   0  0  0  0  0  0  0  0  0  0  0  0
   72.3428   68.8017   93.7033 C   0  0  0  0  0  0  0  0  0  0  0  0
   71.9238   68.8415   94.8764 O   0  0  0  0  0  0  0  0  0  0  0  0
   71.4818   69.0656   92.6312 N   0  0  0  0  0  0  0  0  0  0  0  0
   71.8267   69.0307   91.7097 H   0  0  0  0  0  0  0  0  0  0  0  0
   73.6944   68.4839   93.5459 O   0  0  0  0  0  0  0  0  0  0  0  0
   75.1111   69.7338   92.0796 C   0  0  0  0  0  0  0  0  0  0  0  0
   74.6790   69.5001   93.5096 C   0  0  0  0  0  0  0  0  0  0  0  0
   74.0508   70.7593   94.0649 C   0  0  0  0  0  0  0  0  0  0  0  0
   75.8901   69.1591   94.3591 C   0  0  0  0  0  0  0  0  0  0  0  0
   66.2512   72.2218   87.1545 C   0  0  0  0  0  0  0  0  0  0  0  0
   66.9614   72.1480   85.9545 O   0  0  0  0  0  0  0  0  0  0  0  0
   66.5015   71.3585   84.9206 C   0  0  0  0  0  0  0  0  0  0  0  0
   67.3300   70.3953   84.3992 C   0  0  0  0  0  0  0  0  0  0  0  0
   66.9222   69.5711   83.3582 C   0  0  0  0  0  0  0  0  0  0  0  0
   65.6434   69.7577   82.8632 C   0  0  0  0  0  0  0  0  0  0  0  0
   65.2301   68.9453   81.8308 O   0  0  0  0  0  0  0  0  0  0  0  0
   64.7982   70.7101   83.3647 C   0  0  0  0  0  0  0  0  0  0  0  0
   65.2321   71.5156   84.4011 C   0  0  0  0  0  0  0  0  0  0  0  0
   65.8087   68.2932   81.4873 H   0  0  0  0  0  0  0  0  0  0  0  0
   63.4548   70.8595   82.7970 C   0  0  0  0  0  0  0  0  0  0  0  0
   62.4498   70.5481   83.4561 O   0  0  0  0  0  0  0  0  0  0  0  0
   63.2974   71.3574   81.4994 O   0  0  0  0  0  0  0  0  0  0  0  0
   64.0500   71.5951   80.9943 H   0  0  0  0  0  0  0  0  0  0  0  0
 34 35  1  0  0  0
 35 36  1  0  0  0
 35 37  1  0  0  0
 35 33  1  0  0  0
 33 29  1  0  0  0
 29 30  2  0  0  0
 29 31  1  0  0  0
 31 28  1  0  0  0
 28 23  1  0  0  0
 23 24  2  0  0  0
 24 25  1  0  0  0
 25  1  1  0  0  0
  1  2  2  0  0  0
  2  3  1  0  0  0
  3 38  1  0  0  0
 38 39  1  0  0  0
 39 40  1  0  0  0
 40 41  2  0  0  0
 41 42  1  0  0  0
 42 43  2  0  0  0
 43 44  1  0  0  0
 43 45  1  0  0  0
 45 48  1  0  0  0
 48 49  2  0  0  0
 48 50  1  0  0  0
 45 46  2  0  0  0
  3  4  2  0  0  0
  4  5  1  0  0  0
  5  7  1  0  0  0
  7  8  2  0  0  0
  8  9  1  0  0  0
  9 13  1  0  0  0
 13 14  1  0  0  0
 14 15  1  0  0  0
 15 16  2  0  0  0
 15 18  1  0  0  0
 18 19  1  0  0  0
 19 20  1  0  0  0
 19 21  1  0  0  0
 19 22  1  0  0  0
  9 10  1  0  0  0
 10 11  2  0  0  0
  5  6  2  0  0  0
 25 26  2  0  0  0
 26 27  1  0  0  0
 27 23  1  0  0  0
  6  1  1  0  0  0
 46 40  1  0  0  0
 11  7  1  0  0  0
 31 32  1  0  0  0
 44 47  1  0  0  0
 50 51  1  0  0  0
 14 17  1  0  0  0
 10 12  1  0  0  0
M  END
> <score>
-0.976363

> <minimizedAffinity>
-9.21839

$$$$
HIPS6415


 40 43  0  0  0  0  0  0  0  0999 V2000
   67.6014   75.6264   89.3350 C   0  0  0  0  0  0  0  0  0  0  0  0
   66.8738   74.8356   88.4312 C   0  0  0  0  0  0  0  0  0  0  0  0
   66.8680   73.4392   88.5472 C   0  0  0  0  0  0  0  0  0  0  0  0
   67.5808   72.8310   89.5877 C   0  0  0  0  0  0  0  0  0  0  0  0
   68.3479   73.5975   90.4804 C   0  0  0  0  0  0  0  0  0  0  0  0
   68.3475   74.9991   90.3488 C   0  0  0  0  0  0  0  0  0  0  0  0
   67.5202   79.8933   88.9771 C   0  0  0  0  0  0  0  0  0  0  0  0
   68.6789   79.2578   89.4566 C   0  0  0  0  0  0  0  0  0  0  0  0
   68.7037   77.8667   89.5677 C   0  0  0  0  0  0  0  0  0  0  0  0
   67.5824   77.1058   89.2102 C   0  0  0  0  0  0  0  0  0  0  0  0
   66.4441   77.7799   88.7401 C   0  0  0  0  0  0  0  0  0  0  0  0
   66.4433   79.1369   88.6416 N   0  0  0  0  0  0  0  0  0  0  0  0
   67.4213   81.2875   88.8411 O   0  0  0  0  0  0  0  0  0  0  0  0
   68.6209   83.3454   89.1570 C   0  0  0  0  0  0  0  0  0  0  0  0
   68.3994   82.1417   88.2439 C   0  0  0  0  0  0  0  0  0  0  0  0
   67.9270   82.6090   86.8624 C   0  0  0  0  0  0  0  0  0  0  0  0
   69.1672   72.9279   91.5261 C   0  0  0  0  0  0  0  0  0  0  0  0
   69.3476   71.5337   91.5085 C   0  0  0  0  0  0  0  0  0  0  0  0
   70.1164   70.9093   92.4886 C   0  0  0  0  0  0  0  0  0  0  0  0
   70.7035   71.6754   93.4927 C   0  0  0  0  0  0  0  0  0  0  0  0
   70.5251   73.0270   93.5020 N   0  0  0  0  0  0  0  0  0  0  0  0
   69.7824   73.6609   92.5548 C   0  0  0  0  0  0  0  0  0  0  0  0
   71.4739   71.0416   94.4739 O   0  0  0  0  0  0  0  0  0  0  0  0
   71.8436   69.6640   94.4287 C   0  0  0  0  0  0  0  0  0  0  0  0
   70.9206   68.8766   95.3543 C   0  0  0  0  0  0  0  0  0  0  0  0
   73.3030   69.4931   94.8591 C   0  0  0  0  0  0  0  0  0  0  0  0
   66.1331   72.6087   87.5319 C   0  0  0  0  0  0  0  0  0  0  0  0
   67.0499   72.0332   86.6001 O   0  0  0  0  0  0  0  0  0  0  0  0
   66.7082   71.3489   85.4222 C   0  0  0  0  0  0  0  0  0  0  0  0
   67.6759   70.5316   84.8347 C   0  0  0  0  0  0  0  0  0  0  0  0
   67.3996   69.8384   83.6517 C   0  0  0  0  0  0  0  0  0  0  0  0
   66.1460   69.9494   83.0429 C   0  0  0  0  0  0  0  0  0  0  0  0
   65.9083   69.2271   81.8712 O   0  0  0  0  0  0  0  0  0  0  0  0
   65.1587   70.7679   83.6302 C   0  0  0  0  0  0  0  0  0  0  0  0
   65.4443   71.4629   84.8162 C   0  0  0  0  0  0  0  0  0  0  0  0
   66.5848   68.6919   81.5054 H   0  0  0  0  0  0  0  0  0  0  0  0
   63.8192   70.8911   83.0431 C   0  0  0  0  0  0  0  0  0  0  0  0
   62.8052   70.5452   83.7023 O   0  0  0  0  0  0  0  0  0  0  0  0
   63.6785   71.3613   81.7431 O   0  0  0  0  0  0  0  0  0  0  0  0
   64.4349   71.6185   81.2535 H   0  0  0  0  0  0  0  0  0  0  0  0
 14 15  1  0  0  0
 15 16  1  0  0  0
 15 13  1  0  0  0
 13  7  1  0  0  0
  7  8  2  0  0  0
  8  9  1  0  0  0
  9 10  2  0  0  0
 10  1  1  0  0  0
  1  2  2  0  0  0
  2  3  1  0  0  0
  3 27  1  0  0  0
 27 28  1  0  0  0
 28 29  1  0  0  0
 29 30  2  0  0  0
 30 31  1  0  0  0
 31 32  2  0  0  0
 32 33  1  0  0  0
 32 34  1  0  0  0
 34 37  1  0  0  0
 37 38  2  0  0  0
 37 39  1  0  0  0
 34 35  2  0  0  0
  3  4  2  0  0  0
  4  5  1  0  0  0
  5 17  1  0  0  0
 17 18  2  0  0  0
 18 19  1  0  0  0
 19 20  2  0  0  0
 20 23  1  0  0  0
 23 24  1  0  0  0
 24 25  1  0  0  0
 24 26  1  0  0  0
 20 21  2  0  0  0
 21 22  2  0  0  0
  5  6  2  0  0  0
 10 11  1  0  0  0
 11 12  2  0  0  0
 12  7  2  0  0  0
  6  1  1  0  0  0
 35 29  1  0  0  0
 22 17  1  0  0  0
 33 36  1  0  0  0
 39 40  1  0  0  0
M  END
> <score>
-0.063073

> <minimizedAffinity>
-9.60393

$$$$
HIPS6415


 40 43  0  0  0  0  0  0  0  0999 V2000
   68.2693   73.4877   90.2715 C   0  0  0  0  0  0  0  0  0  0  0  0
   67.5958   72.6886   89.3336 C   0  0  0  0  0  0  0  0  0  0  0  0
   66.8470   73.2729   88.3033 C   0  0  0  0  0  0  0  0  0  0  0  0
   66.7878   74.6680   88.2002 C   0  0  0  0  0  0  0  0  0  0  0  0
   67.4200   75.4886   89.1487 C   0  0  0  0  0  0  0  0  0  0  0  0
   68.1651   74.8874   90.1807 C   0  0  0  0  0  0  0  0  0  0  0  0
   70.5890   71.6812   93.3853 C   0  0  0  0  0  0  0  0  0  0  0  0
   69.8420   70.8689   92.5145 C   0  0  0  0  0  0  0  0  0  0  0  0
   69.0906   71.4606   91.4978 C   0  0  0  0  0  0  0  0  0  0  0  0
   69.0740   72.8537   91.3462 C   0  0  0  0  0  0  0  0  0  0  0  0
   69.8305   73.6287   92.2397 C   0  0  0  0  0  0  0  0  0  0  0  0
   70.5541   73.0292   93.2236 N   0  0  0  0  0  0  0  0  0  0  0  0
   71.3655   71.1574   94.4317 O   0  0  0  0  0  0  0  0  0  0  0  0
   73.2096   70.6812   92.9668 C   0  0  0  0  0  0  0  0  0  0  0  0
   72.5206   70.3288   94.2831 C   0  0  0  0  0  0  0  0  0  0  0  0
   72.1194   68.8492   94.2875 C   0  0  0  0  0  0  0  0  0  0  0  0
   67.2742   76.9671   89.0724 C   0  0  0  0  0  0  0  0  0  0  0  0
   66.8668   77.5842   87.8766 C   0  0  0  0  0  0  0  0  0  0  0  0
   66.7301   78.9692   87.8083 C   0  0  0  0  0  0  0  0  0  0  0  0
   67.0050   79.7429   88.9332 C   0  0  0  0  0  0  0  0  0  0  0  0
   67.3983   79.1369   90.0895 N   0  0  0  0  0  0  0  0  0  0  0  0
   67.5357   77.7868   90.1832 C   0  0  0  0  0  0  0  0  0  0  0  0
   66.8660   81.1332   88.8572 O   0  0  0  0  0  0  0  0  0  0  0  0
   67.2333   82.0282   89.9063 C   0  0  0  0  0  0  0  0  0  0  0  0
   66.0897   82.1004   90.9139 C   0  0  0  0  0  0  0  0  0  0  0  0
   67.5310   83.4178   89.3366 C   0  0  0  0  0  0  0  0  0  0  0  0
   66.0834   72.3991   87.3475 C   0  0  0  0  0  0  0  0  0  0  0  0
   66.8460   72.1714   86.1614 O   0  0  0  0  0  0  0  0  0  0  0  0
   66.4441   71.4020   85.0573 C   0  0  0  0  0  0  0  0  0  0  0  0
   67.3645   70.5029   84.5151 C   0  0  0  0  0  0  0  0  0  0  0  0
   67.0275   69.7218   83.4049 C   0  0  0  0  0  0  0  0  0  0  0  0
   65.7597   69.8260   82.8250 C   0  0  0  0  0  0  0  0  0  0  0  0
   65.4606   69.0155   81.7274 O   0  0  0  0  0  0  0  0  0  0  0  0
   64.8197   70.7270   83.3675 C   0  0  0  0  0  0  0  0  0  0  0  0
   65.1662   71.5098   84.4803 C   0  0  0  0  0  0  0  0  0  0  0  0
   66.1067   68.4267   81.3899 H   0  0  0  0  0  0  0  0  0  0  0  0
   63.4672   70.8483   82.8107 C   0  0  0  0  0  0  0  0  0  0  0  0
   62.4664   70.5364   83.5059 O   0  0  0  0  0  0  0  0  0  0  0  0
   63.2989   71.2786   81.5001 O   0  0  0  0  0  0  0  0  0  0  0  0
   64.0455   71.5106   80.9836 H   0  0  0  0  0  0  0  0  0  0  0  0
 14 15  1  0  0  0
 15 16  1  0  0  0
 15 13  1  0  0  0
 13  7  1  0  0  0
  7  8  2  0  0  0
  8  9  1  0  0  0
  9 10  2  0  0  0
 10  1  1  0  0  0
  1  2  2  0  0  0
  2  3  1  0  0  0
  3 27  1  0  0  0
 27 28  1  0  0  0
 28 29  1  0  0  0
 29 30  2  0  0  0
 30 31  1  0  0  0
 31 32  2  0  0  0
 32 33  1  0  0  0
 32 34  1  0  0  0
 34 37  1  0  0  0
 37 38  2  0  0  0
 37 39  1  0  0  0
 34 35  2  0  0  0
  3  4  2  0  0  0
  4  5  1  0  0  0
  5 17  1  0  0  0
 17 18  2  0  0  0
 18 19  1  0  0  0
 19 20  2  0  0  0
 20 23  1  0  0  0
 23 24  1  0  0  0
 24 25  1  0  0  0
 24 26  1  0  0  0
 20 21  2  0  0  0
 21 22  2  0  0  0
  5  6  2  0  0  0
 10 11  1  0  0  0
 11 12  2  0  0  0
 12  7  2  0  0  0
  6  1  1  0  0  0
 35 29  1  0  0  0
 22 17  1  0  0  0
 33 36  1  0  0  0
 39 40  1  0  0  0
M  END
> <score>
-0.063073

> <minimizedAffinity>
-9.44888

$$$$
HIPS6415


 40 43  0  0  0  0  0  0  0  0999 V2000
   67.1483   76.8778   89.2918 C   0  0  0  0  0  0  0  0  0  0  0  0
   67.1351   76.8910   90.6959 C   0  0  0  0  0  0  0  0  0  0  0  0
   67.2626   78.0954   91.4006 C   0  0  0  0  0  0  0  0  0  0  0  0
   67.3851   79.2979   90.6937 C   0  0  0  0  0  0  0  0  0  0  0  0
   67.4406   79.3068   89.2903 C   0  0  0  0  0  0  0  0  0  0  0  0
   67.3155   78.0886   88.5960 C   0  0  0  0  0  0  0  0  0  0  0  0
   66.7110   73.1907   87.1576 C   0  0  0  0  0  0  0  0  0  0  0  0
   66.8296   73.1733   88.5583 C   0  0  0  0  0  0  0  0  0  0  0  0
   66.9674   74.3771   89.2512 C   0  0  0  0  0  0  0  0  0  0  0  0
   66.9932   75.5956   88.5593 C   0  0  0  0  0  0  0  0  0  0  0  0
   66.8761   75.5684   87.1605 C   0  0  0  0  0  0  0  0  0  0  0  0
   66.7439   74.3824   86.5070 N   0  0  0  0  0  0  0  0  0  0  0  0
   66.5721   72.0203   86.3939 O   0  0  0  0  0  0  0  0  0  0  0  0
   67.1582   70.8701   84.3673 C   0  0  0  0  0  0  0  0  0  0  0  0
   67.6325   71.3101   85.7505 C   0  0  0  0  0  0  0  0  0  0  0  0
   68.0364   70.0870   86.5819 C   0  0  0  0  0  0  0  0  0  0  0  0
   67.6577   80.5844   88.5597 C   0  0  0  0  0  0  0  0  0  0  0  0
   67.4052   80.6699   87.1793 C   0  0  0  0  0  0  0  0  0  0  0  0
   67.6084   81.8682   86.4977 C   0  0  0  0  0  0  0  0  0  0  0  0
   68.0696   82.9838   87.1923 C   0  0  0  0  0  0  0  0  0  0  0  0
   68.3108   82.8932   88.5311 N   0  0  0  0  0  0  0  0  0  0  0  0
   68.1169   81.7364   89.2201 C   0  0  0  0  0  0  0  0  0  0  0  0
   68.2718   84.1837   86.5014 O   0  0  0  0  0  0  0  0  0  0  0  0
   69.5103   84.8924   86.4830 C   0  0  0  0  0  0  0  0  0  0  0  0
   70.6395   83.9173   86.8033 C   0  0  0  0  0  0  0  0  0  0  0  0
   69.4833   86.0319   87.5054 C   0  0  0  0  0  0  0  0  0  0  0  0
   67.3084   78.0799   92.9032 C   0  0  0  0  0  0  0  0  0  0  0  0
   66.3720   77.1340   93.4213 O   0  0  0  0  0  0  0  0  0  0  0  0
   66.6761   76.0399   94.2477 C   0  0  0  0  0  0  0  0  0  0  0  0
   65.7420   75.6716   95.2180 C   0  0  0  0  0  0  0  0  0  0  0  0
   65.9966   74.6010   96.0813 C   0  0  0  0  0  0  0  0  0  0  0  0
   67.1895   73.8792   95.9807 C   0  0  0  0  0  0  0  0  0  0  0  0
   67.3953   72.8076   96.8528 O   0  0  0  0  0  0  0  0  0  0  0  0
   68.1384   74.2386   95.0008 C   0  0  0  0  0  0  0  0  0  0  0  0
   67.8771   75.3163   94.1396 C   0  0  0  0  0  0  0  0  0  0  0  0
   66.7459   72.5936   97.4934 H   0  0  0  0  0  0  0  0  0  0  0  0
   69.3909   73.4911   94.8386 C   0  0  0  0  0  0  0  0  0  0  0  0
   69.7203   72.6177   95.6819 O   0  0  0  0  0  0  0  0  0  0  0  0
   70.2278   73.7754   93.7664 O   0  0  0  0  0  0  0  0  0  0  0  0
   69.9810   74.4263   93.1391 H   0  0  0  0  0  0  0  0  0  0  0  0
 14 15  1  0  0  0
 15 16  1  0  0  0
 15 13  1  0  0  0
 13  7  1  0  0  0
  7  8  2  0  0  0
  8  9  1  0  0  0
  9 10  2  0  0  0
 10  1  1  0  0  0
  1  2  2  0  0  0
  2  3  1  0  0  0
  3 27  1  0  0  0
 27 28  1  0  0  0
 28 29  1  0  0  0
 29 30  2  0  0  0
 30 31  1  0  0  0
 31 32  2  0  0  0
 32 33  1  0  0  0
 32 34  1  0  0  0
 34 37  1  0  0  0
 37 38  2  0  0  0
 37 39  1  0  0  0
 34 35  2  0  0  0
  3  4  2  0  0  0
  4  5  1  0  0  0
  5 17  1  0  0  0
 17 18  2  0  0  0
 18 19  1  0  0  0
 19 20  2  0  0  0
 20 23  1  0  0  0
 23 24  1  0  0  0
 24 25  1  0  0  0
 24 26  1  0  0  0
 20 21  2  0  0  0
 21 22  2  0  0  0
  5  6  2  0  0  0
 10 11  1  0  0  0
 11 12  2  0  0  0
 12  7  2  0  0  0
  6  1  1  0  0  0
 35 29  1  0  0  0
 22 17  1  0  0  0
 33 36  1  0  0  0
 39 40  1  0  0  0
M  END
> <score>
-0.063073

> <minimizedAffinity>
-9.42256

$$$$
HIPS643


 30 31  0  0  0  0  0  0  0  0999 V2000
   67.8604   74.9137   91.1982 C   0  0  0  0  0  0  0  0  0  0  0  0
   68.4034   73.6357   91.3441 C   0  0  0  0  0  0  0  0  0  0  0  0
   68.2666   73.1051   92.6403 C   0  0  0  0  0  0  0  0  0  0  0  0
   67.6244   73.9700   93.5308 C   0  0  0  0  0  0  0  0  0  0  0  0
   67.2228   75.3702   92.6912 S   0  0  0  0  0  0  0  0  0  0  0  0
   67.8004   77.3035   87.6069 C   0  0  0  0  0  0  0  0  0  0  0  0
   67.1085   76.0906   87.6679 C   0  0  0  0  0  0  0  0  0  0  0  0
   67.1276   75.3175   88.8320 C   0  0  0  0  0  0  0  0  0  0  0  0
   67.8455   75.7437   89.9648 C   0  0  0  0  0  0  0  0  0  0  0  0
   68.5393   76.9672   89.9008 C   0  0  0  0  0  0  0  0  0  0  0  0
   68.5180   77.7390   88.7351 C   0  0  0  0  0  0  0  0  0  0  0  0
   68.2311   77.5745   85.1592 C   0  0  0  0  0  0  0  0  0  0  0  0
   67.7496   78.0416   86.4151 O   0  0  0  0  0  0  0  0  0  0  0  0
   68.8199   71.8370   93.0258 N   0  0  0  0  0  0  0  0  0  0  0  0
   70.1352   71.6857   93.5782 C   0  0  0  0  0  0  0  0  0  0  0  0
   70.9410   72.6562   93.5787 O   0  0  0  0  0  0  0  0  0  0  0  0
   70.5391   70.4161   94.1087 N   0  0  0  0  0  0  0  0  0  0  0  0
   68.2684   71.0305   92.9048 H   0  0  0  0  0  0  0  0  0  0  0  0
   69.8832   69.6821   94.1270 H   0  0  0  0  0  0  0  0  0  0  0  0
   71.8829   70.1668   94.6228 C   0  0  0  0  0  0  0  0  0  0  0  0
   73.0459   69.9024   93.2484 P   0  0  0  0  0  0  0  0  0  0  0  0
   72.2990   69.3394   92.0607 O   0  0  0  0  0  0  0  0  0  0  0  0
   73.7736   71.3669   92.8133 O   0  0  0  0  0  0  0  0  0  0  0  0
   74.2384   68.8030   93.7298 O   0  0  0  0  0  0  0  0  0  0  0  0
   73.0905   71.9978   92.5372 H   0  0  0  0  0  0  0  0  0  0  0  0
   73.8221   67.9631   93.9794 H   0  0  0  0  0  0  0  0  0  0  0  0
   67.2792   73.7243   94.9415 C   0  0  0  0  0  0  0  0  0  0  0  0
   66.0922   73.8882   95.3313 O   0  0  0  0  0  0  0  0  0  0  0  0
   68.2423   73.2887   95.8458 O   0  0  0  0  0  0  0  0  0  0  0  0
   69.1273   73.1644   95.5640 H   0  0  0  0  0  0  0  0  0  0  0  0
 12 13  1  0  0  0
 13  6  1  0  0  0
  6  7  2  0  0  0
  7  8  1  0  0  0
  8  9  2  0  0  0
  9  1  1  0  0  0
  1  2  2  0  0  0
  2  3  1  0  0  0
  3 14  1  0  0  0
 14 15  1  0  0  0
 15 16  2  0  0  0
 15 17  1  0  0  0
 17 20  1  0  0  0
 20 21  1  0  0  0
 21 22  2  0  0  0
 21 23  1  0  0  0
 21 24  1  0  0  0
  3  4  2  0  0  0
  4 27  1  0  0  0
 27 28  2  0  0  0
 27 29  1  0  0  0
  4  5  1  0  0  0
  9 10  1  0  0  0
 10 11  2  0  0  0
 11  6  1  0  0  0
  5  1  1  0  0  0
 14 18  1  0  0  0
 17 19  1  0  0  0
 23 25  1  0  0  0
 24 26  1  0  0  0
 29 30  1  0  0  0
M  END
> <score>
0.601462

> <minimizedAffinity>
-7.50597

$$$$
HIPS643


 30 31  0  0  0  0  0  0  0  0999 V2000
   67.2891   76.2363   88.8435 C   0  0  0  0  0  0  0  0  0  0  0  0
   66.6911   75.2854   88.0142 C   0  0  0  0  0  0  0  0  0  0  0  0
   66.7881   73.9678   88.4989 C   0  0  0  0  0  0  0  0  0  0  0  0
   67.4770   73.8700   89.7111 C   0  0  0  0  0  0  0  0  0  0  0  0
   67.9391   75.4204   90.1686 S   0  0  0  0  0  0  0  0  0  0  0  0
   67.5085   80.4974   88.2058 C   0  0  0  0  0  0  0  0  0  0  0  0
   67.8548   79.9425   89.4410 C   0  0  0  0  0  0  0  0  0  0  0  0
   67.7844   78.5620   89.6465 C   0  0  0  0  0  0  0  0  0  0  0  0
   67.3615   77.7035   88.6148 C   0  0  0  0  0  0  0  0  0  0  0  0
   67.0158   78.2655   87.3710 C   0  0  0  0  0  0  0  0  0  0  0  0
   67.0877   79.6470   87.1679 C   0  0  0  0  0  0  0  0  0  0  0  0
   67.9975   82.5404   86.8504 C   0  0  0  0  0  0  0  0  0  0  0  0
   67.5961   81.8889   88.0511 O   0  0  0  0  0  0  0  0  0  0  0  0
   66.3062   72.8303   87.7663 N   0  0  0  0  0  0  0  0  0  0  0  0
   66.6394   72.5772   86.3941 C   0  0  0  0  0  0  0  0  0  0  0  0
   67.2331   73.4557   85.7107 O   0  0  0  0  0  0  0  0  0  0  0  0
   66.2716   71.3276   85.7946 N   0  0  0  0  0  0  0  0  0  0  0  0
   65.7171   72.1918   88.2295 H   0  0  0  0  0  0  0  0  0  0  0  0
   65.8376   70.6447   86.3555 H   0  0  0  0  0  0  0  0  0  0  0  0
   66.5141   71.0258   84.3866 C   0  0  0  0  0  0  0  0  0  0  0  0
   64.9421   70.6949   83.5319 P   0  0  0  0  0  0  0  0  0  0  0  0
   64.8803   69.2353   83.1428 O   0  0  0  0  0  0  0  0  0  0  0  0
   63.6398   71.0624   84.5480 O   0  0  0  0  0  0  0  0  0  0  0  0
   64.8536   71.6484   82.1370 O   0  0  0  0  0  0  0  0  0  0  0  0
   63.6898   70.5162   85.3481 H   0  0  0  0  0  0  0  0  0  0  0  0
   65.5997   71.4383   81.5539 H   0  0  0  0  0  0  0  0  0  0  0  0
   67.7253   72.6620   90.5165 C   0  0  0  0  0  0  0  0  0  0  0  0
   66.7593   72.0699   91.0678 O   0  0  0  0  0  0  0  0  0  0  0  0
   69.0112   72.1503   90.6564 O   0  0  0  0  0  0  0  0  0  0  0  0
   69.7351   72.5845   90.2497 H   0  0  0  0  0  0  0  0  0  0  0  0
 12 13  1  0  0  0
 13  6  1  0  0  0
  6  7  2  0  0  0
  7  8  1  0  0  0
  8  9  2  0  0  0
  9  1  1  0  0  0
  1  2  2  0  0  0
  2  3  1  0  0  0
  3 14  1  0  0  0
 14 15  1  0  0  0
 15 16  2  0  0  0
 15 17  1  0  0  0
 17 20  1  0  0  0
 20 21  1  0  0  0
 21 22  2  0  0  0
 21 23  1  0  0  0
 21 24  1  0  0  0
  3  4  2  0  0  0
  4 27  1  0  0  0
 27 28  2  0  0  0
 27 29  1  0  0  0
  4  5  1  0  0  0
  9 10  1  0  0  0
 10 11  2  0  0  0
 11  6  1  0  0  0
  5  1  1  0  0  0
 14 18  1  0  0  0
 17 19  1  0  0  0
 23 25  1  0  0  0
 24 26  1  0  0  0
 29 30  1  0  0  0
M  END
> <score>
0.601462

> <minimizedAffinity>
-7.37423

$$$$
HIPS643


 30 31  0  0  0  0  0  0  0  0999 V2000
   69.1746   76.2737   91.3842 C   0  0  0  0  0  0  0  0  0  0  0  0
   69.9442   75.1087   91.3875 C   0  0  0  0  0  0  0  0  0  0  0  0
   69.2657   73.9813   91.8865 C   0  0  0  0  0  0  0  0  0  0  0  0
   67.9567   74.2544   92.2933 C   0  0  0  0  0  0  0  0  0  0  0  0
   67.6584   75.8848   92.0117 S   0  0  0  0  0  0  0  0  0  0  0  0
   70.3745   80.1989   90.0556 C   0  0  0  0  0  0  0  0  0  0  0  0
   69.0252   79.8970   90.2605 C   0  0  0  0  0  0  0  0  0  0  0  0
   68.6375   78.6255   90.6918 C   0  0  0  0  0  0  0  0  0  0  0  0
   69.5973   77.6235   90.9263 C   0  0  0  0  0  0  0  0  0  0  0  0
   70.9557   77.9318   90.7214 C   0  0  0  0  0  0  0  0  0  0  0  0
   71.3410   79.2048   90.2904 C   0  0  0  0  0  0  0  0  0  0  0  0
   71.4713   82.4212   90.3850 C   0  0  0  0  0  0  0  0  0  0  0  0
   70.7112   81.4898   89.6221 O   0  0  0  0  0  0  0  0  0  0  0  0
   69.8953   72.7004   92.0466 N   0  0  0  0  0  0  0  0  0  0  0  0
   70.4537   72.2458   93.2874 C   0  0  0  0  0  0  0  0  0  0  0  0
   70.5778   73.0408   94.2589 O   0  0  0  0  0  0  0  0  0  0  0  0
   70.8941   70.8866   93.4105 N   0  0  0  0  0  0  0  0  0  0  0  0
   69.9461   72.1039   91.2651 H   0  0  0  0  0  0  0  0  0  0  0  0
   70.7581   70.2759   92.6503 H   0  0  0  0  0  0  0  0  0  0  0  0
   71.5357   70.3708   94.6165 C   0  0  0  0  0  0  0  0  0  0  0  0
   73.2962   70.0356   94.3010 P   0  0  0  0  0  0  0  0  0  0  0  0
   73.9612   71.2914   93.7849 O   0  0  0  0  0  0  0  0  0  0  0  0
   74.0582   69.5409   95.7287 O   0  0  0  0  0  0  0  0  0  0  0  0
   73.4324   68.8139   93.1385 O   0  0  0  0  0  0  0  0  0  0  0  0
   73.9807   70.2408   96.3958 H   0  0  0  0  0  0  0  0  0  0  0  0
   72.9958   69.0966   92.3197 H   0  0  0  0  0  0  0  0  0  0  0  0
   66.9564   73.3099   92.8196 C   0  0  0  0  0  0  0  0  0  0  0  0
   66.2758   73.6219   93.8330 O   0  0  0  0  0  0  0  0  0  0  0  0
   66.7346   72.0860   92.1967 O   0  0  0  0  0  0  0  0  0  0  0  0
   67.2364   71.8463   91.4426 H   0  0  0  0  0  0  0  0  0  0  0  0
 12 13  1  0  0  0
 13  6  1  0  0  0
  6  7  2  0  0  0
  7  8  1  0  0  0
  8  9  2  0  0  0
  9  1  1  0  0  0
  1  2  2  0  0  0
  2  3  1  0  0  0
  3 14  1  0  0  0
 14 15  1  0  0  0
 15 16  2  0  0  0
 15 17  1  0  0  0
 17 20  1  0  0  0
 20 21  1  0  0  0
 21 22  2  0  0  0
 21 23  1  0  0  0
 21 24  1  0  0  0
  3  4  2  0  0  0
  4 27  1  0  0  0
 27 28  2  0  0  0
 27 29  1  0  0  0
  4  5  1  0  0  0
  9 10  1  0  0  0
 10 11  2  0  0  0
 11  6  1  0  0  0
  5  1  1  0  0  0
 14 18  1  0  0  0
 17 19  1  0  0  0
 23 25  1  0  0  0
 24 26  1  0  0  0
 29 30  1  0  0  0
M  END
> <score>
0.601462

> <minimizedAffinity>
-7.20488

$$$$
HIPS6457


 34 37  0  0  0  0  0  0  0  0999 V2000
   68.0211   79.4122   89.4387 C   0  0  0  0  0  0  0  0  0  0  0  0
   67.4891   79.6232   88.1844 C   0  0  0  0  0  0  0  0  0  0  0  0
   67.0825   78.5427   87.4347 C   0  0  0  0  0  0  0  0  0  0  0  0
   67.2001   77.2665   87.9195 C   0  0  0  0  0  0  0  0  0  0  0  0
   67.7312   77.0673   89.1693 C   0  0  0  0  0  0  0  0  0  0  0  0
   68.1426   78.1268   89.9334 C   0  0  0  0  0  0  0  0  0  0  0  0
   67.8480   75.6781   89.6706 C   0  0  0  0  0  0  0  0  0  0  0  0
   67.3135   74.6349   88.9455 C   0  0  0  0  0  0  0  0  0  0  0  0
   67.4287   73.3441   89.4234 C   0  0  0  0  0  0  0  0  0  0  0  0
   68.0754   73.0907   90.6226 C   0  0  0  0  0  0  0  0  0  0  0  0
   68.6192   74.1288   91.3656 C   0  0  0  0  0  0  0  0  0  0  0  0
   68.4875   75.3944   90.8633 C   0  0  0  0  0  0  0  0  0  0  0  0
   69.4250   73.7572   92.8728 S   0  0  0  0  0  0  0  0  0  0  0  0
   70.4471   72.6719   92.5764 O   0  0  0  0  0  0  0  0  0  0  0  0
   70.2146   74.9309   93.3894 O   0  0  0  0  0  0  0  0  0  0  0  0
   68.3647   73.1390   94.0586 N   0  0  0  0  0  0  0  0  0  0  0  0
   68.9107   72.5815   94.7154 H   0  0  0  0  0  0  0  0  0  0  0  0
   67.6591   74.1388   94.7993 C   0  0  0  0  0  0  0  0  0  0  0  0
   66.8921   73.8043   96.0378 C   0  0  0  0  0  0  0  0  0  0  0  0
   66.1131   74.0033   94.7446 C   0  0  0  0  0  0  0  0  0  0  0  0
   68.4513   80.6119   90.2224 C   0  0  0  0  0  0  0  0  0  0  0  0
   69.8290   80.7691   90.0007 O   0  0  0  0  0  0  0  0  0  0  0  0
   70.3098   83.8512   88.1401 C   0  0  0  0  0  0  0  0  0  0  0  0
   69.7308   82.6966   88.6473 C   0  0  0  0  0  0  0  0  0  0  0  0
   70.4379   81.8974   89.5257 C   0  0  0  0  0  0  0  0  0  0  0  0
   71.7132   82.2894   89.8669 C   0  0  0  0  0  0  0  0  0  0  0  0
   72.3005   83.4401   89.3663 C   0  0  0  0  0  0  0  0  0  0  0  0
   71.5852   84.2268   88.4926 C   0  0  0  0  0  0  0  0  0  0  0  0
   72.1743   85.3970   87.9798 O   0  0  0  0  0  0  0  0  0  0  0  0
   73.0447   85.6334   88.2339 H   0  0  0  0  0  0  0  0  0  0  0  0
   68.3626   85.0060   87.4388 O   0  0  0  0  0  0  0  0  0  0  0  0
   69.5571   84.7002   87.2067 C   0  0  0  0  0  0  0  0  0  0  0  0
   70.1366   85.1896   86.0452 O   0  0  0  0  0  0  0  0  0  0  0  0
   71.0269   84.9802   85.8416 H   0  0  0  0  0  0  0  0  0  0  0  0
 31 32  2  0  0  0
 32 33  1  0  0  0
 32 23  1  0  0  0
 23 24  2  0  0  0
 24 25  1  0  0  0
 25 22  1  0  0  0
 22 21  1  0  0  0
 21  1  1  0  0  0
  1  2  2  0  0  0
  2  3  1  0  0  0
  3  4  2  0  0  0
  4  5  1  0  0  0
  5  7  1  0  0  0
  7  8  2  0  0  0
  8  9  1  0  0  0
  9 10  2  0  0  0
 10 11  1  0  0  0
 11 13  1  0  0  0
 13 14  2  0  0  0
 13 15  2  0  0  0
 13 16  1  0  0  0
 16 18  1  0  0  0
 18 19  1  0  0  0
 19 20  1  0  0  0
 11 12  2  0  0  0
  5  6  2  0  0  0
 25 26  2  0  0  0
 26 27  1  0  0  0
 27 28  2  0  0  0
 28 29  1  0  0  0
 28 23  1  0  0  0
  6  1  1  0  0  0
 12  7  1  0  0  0
 20 18  1  0  0  0
 33 34  1  0  0  0
 16 17  1  0  0  0
 29 30  1  0  0  0
M  END
> <score>
-0.261525

> <minimizedAffinity>
-9.41751

$$$$
HIPS6457


 34 37  0  0  0  0  0  0  0  0999 V2000
   67.7764   78.9222   88.8854 C   0  0  0  0  0  0  0  0  0  0  0  0
   67.1763   78.9813   87.6455 C   0  0  0  0  0  0  0  0  0  0  0  0
   66.7658   77.8154   87.0395 C   0  0  0  0  0  0  0  0  0  0  0  0
   66.9462   76.6033   87.6525 C   0  0  0  0  0  0  0  0  0  0  0  0
   67.5446   76.5555   88.8867 C   0  0  0  0  0  0  0  0  0  0  0  0
   67.9612   77.7021   89.5090 C   0  0  0  0  0  0  0  0  0  0  0  0
   67.7284   75.2328   89.5284 C   0  0  0  0  0  0  0  0  0  0  0  0
   67.1967   74.1026   88.9456 C   0  0  0  0  0  0  0  0  0  0  0  0
   67.3746   72.8751   89.5536 C   0  0  0  0  0  0  0  0  0  0  0  0
   68.0812   72.7716   90.7413 C   0  0  0  0  0  0  0  0  0  0  0  0
   68.6232   73.8990   91.3419 C   0  0  0  0  0  0  0  0  0  0  0  0
   68.4285   75.0983   90.7132 C   0  0  0  0  0  0  0  0  0  0  0  0
   69.5060   73.7161   92.8406 S   0  0  0  0  0  0  0  0  0  0  0  0
   70.5906   72.6796   92.5957 O   0  0  0  0  0  0  0  0  0  0  0  0
   70.2291   74.9808   93.2221 O   0  0  0  0  0  0  0  0  0  0  0  0
   68.5344   73.1350   94.1177 N   0  0  0  0  0  0  0  0  0  0  0  0
   69.0460   73.2618   94.9909 H   0  0  0  0  0  0  0  0  0  0  0  0
   67.2685   73.7893   94.2418 C   0  0  0  0  0  0  0  0  0  0  0  0
   67.1246   75.0927   94.9593 C   0  0  0  0  0  0  0  0  0  0  0  0
   66.7054   73.8233   95.6887 C   0  0  0  0  0  0  0  0  0  0  0  0
   68.2084   80.2107   89.5109 C   0  0  0  0  0  0  0  0  0  0  0  0
   67.5162   81.2365   88.8471 O   0  0  0  0  0  0  0  0  0  0  0  0
   70.0332   83.6473   87.8245 C   0  0  0  0  0  0  0  0  0  0  0  0
   69.4125   82.5832   88.4633 C   0  0  0  0  0  0  0  0  0  0  0  0
   68.0878   82.2938   88.1952 C   0  0  0  0  0  0  0  0  0  0  0  0
   67.4270   83.0905   87.2869 C   0  0  0  0  0  0  0  0  0  0  0  0
   68.0373   84.1552   86.6438 C   0  0  0  0  0  0  0  0  0  0  0  0
   69.3568   84.4322   86.9199 C   0  0  0  0  0  0  0  0  0  0  0  0
   69.9838   85.5117   86.2709 O   0  0  0  0  0  0  0  0  0  0  0  0
   69.5034   86.0330   85.6582 H   0  0  0  0  0  0  0  0  0  0  0  0
   72.2349   84.2449   87.1826 O   0  0  0  0  0  0  0  0  0  0  0  0
   71.4413   83.9539   88.1099 C   0  0  0  0  0  0  0  0  0  0  0  0
   71.9388   83.9324   89.4047 O   0  0  0  0  0  0  0  0  0  0  0  0
   71.3730   83.7189   90.1205 H   0  0  0  0  0  0  0  0  0  0  0  0
 31 32  2  0  0  0
 32 33  1  0  0  0
 32 23  1  0  0  0
 23 24  2  0  0  0
 24 25  1  0  0  0
 25 22  1  0  0  0
 22 21  1  0  0  0
 21  1  1  0  0  0
  1  2  2  0  0  0
  2  3  1  0  0  0
  3  4  2  0  0  0
  4  5  1  0  0  0
  5  7  1  0  0  0
  7  8  2  0  0  0
  8  9  1  0  0  0
  9 10  2  0  0  0
 10 11  1  0  0  0
 11 13  1  0  0  0
 13 14  2  0  0  0
 13 15  2  0  0  0
 13 16  1  0  0  0
 16 18  1  0  0  0
 18 19  1  0  0  0
 19 20  1  0  0  0
 11 12  2  0  0  0
  5  6  2  0  0  0
 25 26  2  0  0  0
 26 27  1  0  0  0
 27 28  2  0  0  0
 28 29  1  0  0  0
 28 23  1  0  0  0
  6  1  1  0  0  0
 12  7  1  0  0  0
 20 18  1  0  0  0
 33 34  1  0  0  0
 16 17  1  0  0  0
 29 30  1  0  0  0
M  END
> <score>
-0.261525

> <minimizedAffinity>
-9.30958

$$$$
HIPS6457


 34 37  0  0  0  0  0  0  0  0999 V2000
   69.0047   79.2977   89.7774 C   0  0  0  0  0  0  0  0  0  0  0  0
   70.3160   79.6176   90.0584 C   0  0  0  0  0  0  0  0  0  0  0  0
   71.1524   78.6481   90.5641 C   0  0  0  0  0  0  0  0  0  0  0  0
   70.6978   77.3753   90.7896 C   0  0  0  0  0  0  0  0  0  0  0  0
   69.3906   77.0673   90.5065 C   0  0  0  0  0  0  0  0  0  0  0  0
   68.5401   78.0151   90.0029 C   0  0  0  0  0  0  0  0  0  0  0  0
   68.9234   75.6843   90.7594 C   0  0  0  0  0  0  0  0  0  0  0  0
   68.1343   75.0411   89.8302 C   0  0  0  0  0  0  0  0  0  0  0  0
   67.7048   73.7519   90.0775 C   0  0  0  0  0  0  0  0  0  0  0  0
   68.0599   73.1021   91.2489 C   0  0  0  0  0  0  0  0  0  0  0  0
   68.8536   73.7345   92.1953 C   0  0  0  0  0  0  0  0  0  0  0  0
   69.2615   75.0106   91.9187 C   0  0  0  0  0  0  0  0  0  0  0  0
   69.2740   72.8722   93.6577 S   0  0  0  0  0  0  0  0  0  0  0  0
   69.3319   71.3951   93.3036 O   0  0  0  0  0  0  0  0  0  0  0  0
   70.6546   73.2301   94.1412 O   0  0  0  0  0  0  0  0  0  0  0  0
   68.1080   73.0481   94.8915 N   0  0  0  0  0  0  0  0  0  0  0  0
   68.5459   72.8076   95.7808 H   0  0  0  0  0  0  0  0  0  0  0  0
   67.5609   74.3649   95.0040 C   0  0  0  0  0  0  0  0  0  0  0  0
   66.6178   74.7327   96.1038 C   0  0  0  0  0  0  0  0  0  0  0  0
   66.0355   74.4495   94.7254 C   0  0  0  0  0  0  0  0  0  0  0  0
   68.1275   80.3785   89.2292 C   0  0  0  0  0  0  0  0  0  0  0  0
   68.7486   81.6001   89.5357 O   0  0  0  0  0  0  0  0  0  0  0  0
   70.7207   84.1215   87.8193 C   0  0  0  0  0  0  0  0  0  0  0  0
   70.3433   83.1281   88.7117 C   0  0  0  0  0  0  0  0  0  0  0  0
   69.0784   82.5761   88.6367 C   0  0  0  0  0  0  0  0  0  0  0  0
   68.2292   83.0454   87.6593 C   0  0  0  0  0  0  0  0  0  0  0  0
   68.5961   84.0367   86.7636 C   0  0  0  0  0  0  0  0  0  0  0  0
   69.8586   84.5777   86.8493 C   0  0  0  0  0  0  0  0  0  0  0  0
   70.2390   85.5847   85.9435 O   0  0  0  0  0  0  0  0  0  0  0  0
   69.6351   85.8801   85.2907 H   0  0  0  0  0  0  0  0  0  0  0  0
   73.0679   83.9846   88.1171 O   0  0  0  0  0  0  0  0  0  0  0  0
   72.0656   84.7074   87.8997 C   0  0  0  0  0  0  0  0  0  0  0  0
   72.2725   86.0696   87.7391 O   0  0  0  0  0  0  0  0  0  0  0  0
   71.5456   86.6378   87.5755 H   0  0  0  0  0  0  0  0  0  0  0  0
 31 32  2  0  0  0
 32 33  1  0  0  0
 32 23  1  0  0  0
 23 24  2  0  0  0
 24 25  1  0  0  0
 25 22  1  0  0  0
 22 21  1  0  0  0
 21  1  1  0  0  0
  1  2  2  0  0  0
  2  3  1  0  0  0
  3  4  2  0  0  0
  4  5  1  0  0  0
  5  7  1  0  0  0
  7  8  2  0  0  0
  8  9  1  0  0  0
  9 10  2  0  0  0
 10 11  1  0  0  0
 11 13  1  0  0  0
 13 14  2  0  0  0
 13 15  2  0  0  0
 13 16  1  0  0  0
 16 18  1  0  0  0
 18 19  1  0  0  0
 19 20  1  0  0  0
 11 12  2  0  0  0
  5  6  2  0  0  0
 25 26  2  0  0  0
 26 27  1  0  0  0
 27 28  2  0  0  0
 28 29  1  0  0  0
 28 23  1  0  0  0
  6  1  1  0  0  0
 12  7  1  0  0  0
 20 18  1  0  0  0
 33 34  1  0  0  0
 16 17  1  0  0  0
 29 30  1  0  0  0
M  END
> <score>
-0.261525

> <minimizedAffinity>
-9.15936

$$$$
HIPS6458


 42 45  0  0  0  0  0  0  0  0999 V2000
   67.3838   75.5945   89.0851 C   0  0  0  0  0  0  0  0  0  0  0  0
   66.7269   74.7762   88.1508 C   0  0  0  0  0  0  0  0  0  0  0  0
   66.8259   73.3802   88.2303 C   0  0  0  0  0  0  0  0  0  0  0  0
   67.5603   72.7963   89.2719 C   0  0  0  0  0  0  0  0  0  0  0  0
   68.2220   73.5961   90.2194 C   0  0  0  0  0  0  0  0  0  0  0  0
   68.1312   74.9952   90.1138 C   0  0  0  0  0  0  0  0  0  0  0  0
   67.0893   79.8501   88.7867 C   0  0  0  0  0  0  0  0  0  0  0  0
   67.3979   79.0893   87.7034 N   0  0  0  0  0  0  0  0  0  0  0  0
   67.4999   77.7365   87.7752 C   0  0  0  0  0  0  0  0  0  0  0  0
   67.2842   77.0730   88.9937 C   0  0  0  0  0  0  0  0  0  0  0  0
   66.9794   77.8438   90.1272 C   0  0  0  0  0  0  0  0  0  0  0  0
   66.8880   79.2344   90.0328 C   0  0  0  0  0  0  0  0  0  0  0  0
   66.6016   80.1744   91.4905 Cl  0  0  0  0  0  0  0  0  0  0  0  0
   67.0003   81.2361   88.6354 O   0  0  0  0  0  0  0  0  0  0  0  0
   67.6582   82.8446   86.9705 C   0  0  0  0  0  0  0  0  0  0  0  0
   68.0972   82.0366   88.1896 C   0  0  0  0  0  0  0  0  0  0  0  0
   68.5635   82.9673   89.3133 C   0  0  0  0  0  0  0  0  0  0  0  0
   68.9959   72.9734   91.3245 C   0  0  0  0  0  0  0  0  0  0  0  0
   69.7350   73.7636   92.2202 C   0  0  0  0  0  0  0  0  0  0  0  0
   70.4268   73.1851   93.2364 N   0  0  0  0  0  0  0  0  0  0  0  0
   70.4336   71.8407   93.4336 C   0  0  0  0  0  0  0  0  0  0  0  0
   69.7317   71.0061   92.5497 C   0  0  0  0  0  0  0  0  0  0  0  0
   69.7851   69.2552   92.6989 Cl  0  0  0  0  0  0  0  0  0  0  0  0
   69.0092   71.5798   91.5006 C   0  0  0  0  0  0  0  0  0  0  0  0
   71.1539   71.3182   94.5107 O   0  0  0  0  0  0  0  0  0  0  0  0
   72.1050   70.2633   94.3594 C   0  0  0  0  0  0  0  0  0  0  0  0
   73.4786   70.8697   94.0802 C   0  0  0  0  0  0  0  0  0  0  0  0
   72.1432   69.4015   95.6247 C   0  0  0  0  0  0  0  0  0  0  0  0
   66.0915   72.5136   87.2490 C   0  0  0  0  0  0  0  0  0  0  0  0
   66.9370   72.2546   86.1319 O   0  0  0  0  0  0  0  0  0  0  0  0
   66.6012   71.4172   85.0577 C   0  0  0  0  0  0  0  0  0  0  0  0
   67.5018   70.4817   84.5216 C   0  0  0  0  0  0  0  0  0  0  0  0
   67.1195   69.6729   83.4515 C   0  0  0  0  0  0  0  0  0  0  0  0
   65.8365   69.7818   82.8978 C   0  0  0  0  0  0  0  0  0  0  0  0
   65.4821   68.9600   81.8278 O   0  0  0  0  0  0  0  0  0  0  0  0
   64.9188   70.7184   83.4265 C   0  0  0  0  0  0  0  0  0  0  0  0
   65.3197   71.5265   84.5073 C   0  0  0  0  0  0  0  0  0  0  0  0
   66.0993   68.3432   81.4863 H   0  0  0  0  0  0  0  0  0  0  0  0
   63.5485   70.8742   82.8746 C   0  0  0  0  0  0  0  0  0  0  0  0
   62.5332   70.6653   83.5917 O   0  0  0  0  0  0  0  0  0  0  0  0
   63.3699   71.2551   81.5467 O   0  0  0  0  0  0  0  0  0  0  0  0
   64.1146   71.4141   81.0007 H   0  0  0  0  0  0  0  0  0  0  0  0
 15 16  1  0  0  0
 16 17  1  0  0  0
 16 14  1  0  0  0
 14  7  1  0  0  0
  7  8  2  0  0  0
  8  9  2  0  0  0
  9 10  2  0  0  0
 10  1  1  0  0  0
  1  2  2  0  0  0
  2  3  1  0  0  0
  3 29  1  0  0  0
 29 30  1  0  0  0
 30 31  1  0  0  0
 31 32  2  0  0  0
 32 33  1  0  0  0
 33 34  2  0  0  0
 34 35  1  0  0  0
 34 36  1  0  0  0
 36 39  1  0  0  0
 39 40  2  0  0  0
 39 41  1  0  0  0
 36 37  2  0  0  0
  3  4  2  0  0  0
  4  5  1  0  0  0
  5 18  1  0  0  0
 18 19  2  0  0  0
 19 20  2  0  0  0
 20 21  2  0  0  0
 21 25  1  0  0  0
 25 26  1  0  0  0
 26 27  1  0  0  0
 26 28  1  0  0  0
 21 22  1  0  0  0
 22 23  1  0  0  0
 22 24  2  0  0  0
  5  6  2  0  0  0
 10 11  1  0  0  0
 11 12  2  0  0  0
 12 13  1  0  0  0
 12  7  1  0  0  0
  6  1  1  0  0  0
 37 31  1  0  0  0
 24 18  1  0  0  0
 35 38  1  0  0  0
 41 42  1  0  0  0
M  END
> <score>
-0.954894

> <minimizedAffinity>
-9.75345

$$$$
HIPS6458


 42 45  0  0  0  0  0  0  0  0999 V2000
   68.4530   73.4693   90.4362 C   0  0  0  0  0  0  0  0  0  0  0  0
   67.7040   72.8044   89.4508 C   0  0  0  0  0  0  0  0  0  0  0  0
   66.9423   73.5284   88.5233 C   0  0  0  0  0  0  0  0  0  0  0  0
   66.9554   74.9298   88.5599 C   0  0  0  0  0  0  0  0  0  0  0  0
   67.7006   75.6151   89.5346 C   0  0  0  0  0  0  0  0  0  0  0  0
   68.4425   74.8746   90.4718 C   0  0  0  0  0  0  0  0  0  0  0  0
   70.7521   71.2802   93.3010 C   0  0  0  0  0  0  0  0  0  0  0  0
   70.6931   72.6377   93.3367 N   0  0  0  0  0  0  0  0  0  0  0  0
   69.9720   73.3541   92.4353 C   0  0  0  0  0  0  0  0  0  0  0  0
   69.2523   72.6999   91.4227 C   0  0  0  0  0  0  0  0  0  0  0  0
   69.3137   71.2983   91.3606 C   0  0  0  0  0  0  0  0  0  0  0  0
   70.0685   70.5819   92.2924 C   0  0  0  0  0  0  0  0  0  0  0  0
   70.2018   68.8369   92.1259 Cl  0  0  0  0  0  0  0  0  0  0  0  0
   71.5134   70.6118   94.2630 O   0  0  0  0  0  0  0  0  0  0  0  0
   73.4547   69.7271   95.3770 C   0  0  0  0  0  0  0  0  0  0  0  0
   72.9393   70.6952   94.3145 C   0  0  0  0  0  0  0  0  0  0  0  0
   73.5383   70.3606   92.9449 C   0  0  0  0  0  0  0  0  0  0  0  0
   67.7154   77.1005   89.5675 C   0  0  0  0  0  0  0  0  0  0  0  0
   66.5362   77.8369   89.3668 C   0  0  0  0  0  0  0  0  0  0  0  0
   66.5581   79.1945   89.4142 N   0  0  0  0  0  0  0  0  0  0  0  0
   67.6988   79.8916   89.6572 C   0  0  0  0  0  0  0  0  0  0  0  0
   68.9081   79.2022   89.8382 C   0  0  0  0  0  0  0  0  0  0  0  0
   70.4296   80.0549   90.0585 Cl  0  0  0  0  0  0  0  0  0  0  0  0
   68.9081   77.8056   89.7987 C   0  0  0  0  0  0  0  0  0  0  0  0
   67.6416   81.2866   89.7088 O   0  0  0  0  0  0  0  0  0  0  0  0
   67.6509   82.0997   88.5344 C   0  0  0  0  0  0  0  0  0  0  0  0
   69.0211   82.7605   88.3989 C   0  0  0  0  0  0  0  0  0  0  0  0
   67.3386   81.2482   87.3004 C   0  0  0  0  0  0  0  0  0  0  0  0
   66.1739   72.8104   87.4521 C   0  0  0  0  0  0  0  0  0  0  0  0
   66.9868   71.7729   86.9111 O   0  0  0  0  0  0  0  0  0  0  0  0
   66.7732   71.1627   85.6661 C   0  0  0  0  0  0  0  0  0  0  0  0
   67.7579   70.3918   85.0262 C   0  0  0  0  0  0  0  0  0  0  0  0
   67.4962   69.8070   83.7872 C   0  0  0  0  0  0  0  0  0  0  0  0
   66.2520   69.9799   83.1654 C   0  0  0  0  0  0  0  0  0  0  0  0
   66.0188   69.3835   81.9261 O   0  0  0  0  0  0  0  0  0  0  0  0
   65.2507   70.7529   83.7970 C   0  0  0  0  0  0  0  0  0  0  0  0
   65.5302   71.3354   85.0477 C   0  0  0  0  0  0  0  0  0  0  0  0
   66.6904   68.8735   81.5178 H   0  0  0  0  0  0  0  0  0  0  0  0
   63.9170   70.9680   83.1794 C   0  0  0  0  0  0  0  0  0  0  0  0
   62.8590   70.7444   83.8269 O   0  0  0  0  0  0  0  0  0  0  0  0
   63.8210   71.4222   81.8660 O   0  0  0  0  0  0  0  0  0  0  0  0
   64.5982   71.5931   81.3713 H   0  0  0  0  0  0  0  0  0  0  0  0
 15 16  1  0  0  0
 16 17  1  0  0  0
 16 14  1  0  0  0
 14  7  1  0  0  0
  7  8  2  0  0  0
  8  9  2  0  0  0
  9 10  2  0  0  0
 10  1  1  0  0  0
  1  2  2  0  0  0
  2  3  1  0  0  0
  3 29  1  0  0  0
 29 30  1  0  0  0
 30 31  1  0  0  0
 31 32  2  0  0  0
 32 33  1  0  0  0
 33 34  2  0  0  0
 34 35  1  0  0  0
 34 36  1  0  0  0
 36 39  1  0  0  0
 39 40  2  0  0  0
 39 41  1  0  0  0
 36 37  2  0  0  0
  3  4  2  0  0  0
  4  5  1  0  0  0
  5 18  1  0  0  0
 18 19  2  0  0  0
 19 20  2  0  0  0
 20 21  2  0  0  0
 21 25  1  0  0  0
 25 26  1  0  0  0
 26 27  1  0  0  0
 26 28  1  0  0  0
 21 22  1  0  0  0
 22 23  1  0  0  0
 22 24  2  0  0  0
  5  6  2  0  0  0
 10 11  1  0  0  0
 11 12  2  0  0  0
 12 13  1  0  0  0
 12  7  1  0  0  0
  6  1  1  0  0  0
 37 31  1  0  0  0
 24 18  1  0  0  0
 35 38  1  0  0  0
 41 42  1  0  0  0
M  END
> <score>
-0.954894

> <minimizedAffinity>
-9.63593

$$$$
HIPS6458


 42 45  0  0  0  0  0  0  0  0999 V2000
   67.6604   75.5503   89.5866 C   0  0  0  0  0  0  0  0  0  0  0  0
   66.9720   74.9024   88.5473 C   0  0  0  0  0  0  0  0  0  0  0  0
   66.9838   73.5043   88.4459 C   0  0  0  0  0  0  0  0  0  0  0  0
   67.6618   72.7458   89.4105 C   0  0  0  0  0  0  0  0  0  0  0  0
   68.3536   73.3734   90.4605 C   0  0  0  0  0  0  0  0  0  0  0  0
   68.3507   74.7774   90.5365 C   0  0  0  0  0  0  0  0  0  0  0  0
   67.6678   79.8151   89.8980 C   0  0  0  0  0  0  0  0  0  0  0  0
   68.1770   79.0372   90.8896 N   0  0  0  0  0  0  0  0  0  0  0  0
   68.1824   77.6808   90.8138 C   0  0  0  0  0  0  0  0  0  0  0  0
   67.6532   77.0315   89.6869 C   0  0  0  0  0  0  0  0  0  0  0  0
   67.1088   77.8184   88.6591 C   0  0  0  0  0  0  0  0  0  0  0  0
   67.1055   79.2115   88.7614 C   0  0  0  0  0  0  0  0  0  0  0  0
   66.3285   80.1605   87.5021 Cl  0  0  0  0  0  0  0  0  0  0  0  0
   67.6986   81.2039   90.0460 O   0  0  0  0  0  0  0  0  0  0  0  0
   65.4816   81.0703   90.9729 C   0  0  0  0  0  0  0  0  0  0  0  0
   66.7439   81.9183   90.8340 C   0  0  0  0  0  0  0  0  0  0  0  0
   67.3308   82.2404   92.2118 C   0  0  0  0  0  0  0  0  0  0  0  0
   69.0675   72.5658   91.4834 C   0  0  0  0  0  0  0  0  0  0  0  0
   69.5578   71.2859   91.1764 C   0  0  0  0  0  0  0  0  0  0  0  0
   70.2226   70.5622   92.1147 N   0  0  0  0  0  0  0  0  0  0  0  0
   70.4441   71.0342   93.3694 C   0  0  0  0  0  0  0  0  0  0  0  0
   69.9508   72.2972   93.7328 C   0  0  0  0  0  0  0  0  0  0  0  0
   70.1230   72.9165   95.3692 Cl  0  0  0  0  0  0  0  0  0  0  0  0
   69.2687   73.0609   92.7824 C   0  0  0  0  0  0  0  0  0  0  0  0
   71.1511   70.2405   94.2762 O   0  0  0  0  0  0  0  0  0  0  0  0
   72.5686   70.3272   94.4303 C   0  0  0  0  0  0  0  0  0  0  0  0
   73.1059   68.9626   94.8565 C   0  0  0  0  0  0  0  0  0  0  0  0
   73.2159   70.7752   93.1167 C   0  0  0  0  0  0  0  0  0  0  0  0
   66.2159   72.8195   87.3529 C   0  0  0  0  0  0  0  0  0  0  0  0
   67.0143   71.7731   86.8074 O   0  0  0  0  0  0  0  0  0  0  0  0
   66.7827   71.1605   85.5668 C   0  0  0  0  0  0  0  0  0  0  0  0
   67.7662   70.4086   84.9027 C   0  0  0  0  0  0  0  0  0  0  0  0
   67.4863   69.8206   83.6693 C   0  0  0  0  0  0  0  0  0  0  0  0
   66.2248   69.9711   83.0772 C   0  0  0  0  0  0  0  0  0  0  0  0
   65.9736   69.3719   81.8428 O   0  0  0  0  0  0  0  0  0  0  0  0
   65.2245   70.7247   83.7333 C   0  0  0  0  0  0  0  0  0  0  0  0
   65.5226   71.3108   84.9781 C   0  0  0  0  0  0  0  0  0  0  0  0
   66.6448   68.8749   81.4180 H   0  0  0  0  0  0  0  0  0  0  0  0
   63.8730   70.9157   83.1476 C   0  0  0  0  0  0  0  0  0  0  0  0
   62.8355   70.6333   83.8053 O   0  0  0  0  0  0  0  0  0  0  0  0
   63.7369   71.4127   81.8534 O   0  0  0  0  0  0  0  0  0  0  0  0
   64.4985   71.6274   81.3515 H   0  0  0  0  0  0  0  0  0  0  0  0
 15 16  1  0  0  0
 16 17  1  0  0  0
 16 14  1  0  0  0
 14  7  1  0  0  0
  7  8  2  0  0  0
  8  9  2  0  0  0
  9 10  2  0  0  0
 10  1  1  0  0  0
  1  2  2  0  0  0
  2  3  1  0  0  0
  3 29  1  0  0  0
 29 30  1  0  0  0
 30 31  1  0  0  0
 31 32  2  0  0  0
 32 33  1  0  0  0
 33 34  2  0  0  0
 34 35  1  0  0  0
 34 36  1  0  0  0
 36 39  1  0  0  0
 39 40  2  0  0  0
 39 41  1  0  0  0
 36 37  2  0  0  0
  3  4  2  0  0  0
  4  5  1  0  0  0
  5 18  1  0  0  0
 18 19  2  0  0  0
 19 20  2  0  0  0
 20 21  2  0  0  0
 21 25  1  0  0  0
 25 26  1  0  0  0
 26 27  1  0  0  0
 26 28  1  0  0  0
 21 22  1  0  0  0
 22 23  1  0  0  0
 22 24  2  0  0  0
  5  6  2  0  0  0
 10 11  1  0  0  0
 11 12  2  0  0  0
 12 13  1  0  0  0
 12  7  1  0  0  0
  6  1  1  0  0  0
 37 31  1  0  0  0
 24 18  1  0  0  0
 35 38  1  0  0  0
 41 42  1  0  0  0
M  END
> <score>
-0.954894

> <minimizedAffinity>
-9.14838

$$$$
HIPS6459


 28 30  0  0  0  0  0  0  0  0999 V2000
   67.2990   78.6912   89.9076 C   0  0  0  0  0  0  0  0  0  0  0  0
   67.1514   79.7172   89.1188 N   0  0  0  0  0  0  0  0  0  0  0  0
   69.9527   76.8884   91.9446 C   0  0  0  0  0  0  0  0  0  0  0  0
   68.7025   77.3445   91.4858 C   0  0  0  0  0  0  0  0  0  0  0  0
   68.6104   78.2157   90.3907 C   0  0  0  0  0  0  0  0  0  0  0  0
   69.7793   78.6871   89.7849 C   0  0  0  0  0  0  0  0  0  0  0  0
   71.0265   78.2478   90.2292 C   0  0  0  0  0  0  0  0  0  0  0  0
   71.1248   77.3468   91.2991 C   0  0  0  0  0  0  0  0  0  0  0  0
   72.3847   76.9195   91.7188 O   0  0  0  0  0  0  0  0  0  0  0  0
   73.1540   77.2301   91.2832 H   0  0  0  0  0  0  0  0  0  0  0  0
   70.2593   74.7271   92.9213 O   0  0  0  0  0  0  0  0  0  0  0  0
   70.0047   75.9493   93.0943 C   0  0  0  0  0  0  0  0  0  0  0  0
   69.7689   76.4127   94.3864 O   0  0  0  0  0  0  0  0  0  0  0  0
   69.5782   77.3185   94.5317 H   0  0  0  0  0  0  0  0  0  0  0  0
   68.1842   80.5978   88.7442 N   0  0  0  0  0  0  0  0  0  0  0  0
   68.1258   82.0023   89.0468 C   0  0  0  0  0  0  0  0  0  0  0  0
   67.2034   82.4494   89.7811 O   0  0  0  0  0  0  0  0  0  0  0  0
   68.9663   80.2429   88.2629 H   0  0  0  0  0  0  0  0  0  0  0  0
   69.0609   82.9589   88.4064 C   0  0  0  0  0  0  0  0  0  0  0  0
   68.5537   83.7722   87.3783 C   0  0  0  0  0  0  0  0  0  0  0  0
   69.3819   84.6559   86.6882 C   0  0  0  0  0  0  0  0  0  0  0  0
   70.7324   84.7523   87.0132 C   0  0  0  0  0  0  0  0  0  0  0  0
   71.2660   83.9762   88.0504 C   0  0  0  0  0  0  0  0  0  0  0  0
   72.6232   84.1004   88.3881 C   0  0  0  0  0  0  0  0  0  0  0  0
   73.1568   83.3580   89.4414 C   0  0  0  0  0  0  0  0  0  0  0  0
   72.3415   82.4952   90.1721 C   0  0  0  0  0  0  0  0  0  0  0  0
   70.9901   82.3577   89.8466 C   0  0  0  0  0  0  0  0  0  0  0  0
   70.4311   83.0760   88.7691 C   0  0  0  0  0  0  0  0  0  0  0  0
 11 12  2  0  0  0
 12 13  1  0  0  0
 12  3  1  0  0  0
  3  4  2  0  0  0
  4  5  1  0  0  0
  5  1  1  0  0  0
  1  2  2  0  0  0
  2 15  1  0  0  0
 15 16  1  0  0  0
 16 17  2  0  0  0
 16 19  1  0  0  0
 19 20  2  0  0  0
 20 21  1  0  0  0
 21 22  2  0  0  0
 22 23  1  0  0  0
 23 24  2  0  0  0
 24 25  1  0  0  0
 25 26  2  0  0  0
 26 27  1  0  0  0
 27 28  2  0  0  0
  5  6  2  0  0  0
  6  7  1  0  0  0
  7  8  2  0  0  0
  8  9  1  0  0  0
  8  3  1  0  0  0
 28 19  1  0  0  0
 28 23  1  0  0  0
 13 14  1  0  0  0
 15 18  1  0  0  0
  9 10  1  0  0  0
M  END
> <score>
0.863171

> <minimizedAffinity>
-8.89618

$$$$
HIPS6459


 28 30  0  0  0  0  0  0  0  0999 V2000
   66.8955   78.5594   89.8160 C   0  0  0  0  0  0  0  0  0  0  0  0
   67.2327   79.6570   89.2010 N   0  0  0  0  0  0  0  0  0  0  0  0
   70.1681   77.0636   91.0384 C   0  0  0  0  0  0  0  0  0  0  0  0
   69.2394   77.9398   90.4458 C   0  0  0  0  0  0  0  0  0  0  0  0
   67.8696   77.6387   90.4345 C   0  0  0  0  0  0  0  0  0  0  0  0
   67.4270   76.4225   90.9639 C   0  0  0  0  0  0  0  0  0  0  0  0
   68.3345   75.5413   91.5521 C   0  0  0  0  0  0  0  0  0  0  0  0
   69.7007   75.8530   91.6013 C   0  0  0  0  0  0  0  0  0  0  0  0
   70.5850   74.9560   92.2007 O   0  0  0  0  0  0  0  0  0  0  0  0
   70.2634   74.1572   92.5702 H   0  0  0  0  0  0  0  0  0  0  0  0
   72.1483   77.9570   90.0386 O   0  0  0  0  0  0  0  0  0  0  0  0
   71.6074   77.4305   91.0479 C   0  0  0  0  0  0  0  0  0  0  0  0
   72.3816   77.1929   92.1810 O   0  0  0  0  0  0  0  0  0  0  0  0
   71.9944   76.8022   92.9395 H   0  0  0  0  0  0  0  0  0  0  0  0
   68.5339   80.1939   89.1711 N   0  0  0  0  0  0  0  0  0  0  0  0
   68.8622   81.4165   89.8530 C   0  0  0  0  0  0  0  0  0  0  0  0
   68.0140   81.9610   90.6108 O   0  0  0  0  0  0  0  0  0  0  0  0
   69.2370   79.7202   88.6705 H   0  0  0  0  0  0  0  0  0  0  0  0
   70.1396   82.1200   89.5829 C   0  0  0  0  0  0  0  0  0  0  0  0
   71.2583   81.7506   90.3497 C   0  0  0  0  0  0  0  0  0  0  0  0
   72.4802   82.4036   90.1963 C   0  0  0  0  0  0  0  0  0  0  0  0
   72.6147   83.4344   89.2700 C   0  0  0  0  0  0  0  0  0  0  0  0
   71.5278   83.8106   88.4699 C   0  0  0  0  0  0  0  0  0  0  0  0
   71.6811   84.8333   87.5201 C   0  0  0  0  0  0  0  0  0  0  0  0
   70.6157   85.1922   86.6947 C   0  0  0  0  0  0  0  0  0  0  0  0
   69.3941   84.5293   86.8018 C   0  0  0  0  0  0  0  0  0  0  0  0
   69.2244   83.5121   87.7440 C   0  0  0  0  0  0  0  0  0  0  0  0
   70.2768   83.1477   88.6095 C   0  0  0  0  0  0  0  0  0  0  0  0
 11 12  2  0  0  0
 12 13  1  0  0  0
 12  3  1  0  0  0
  3  4  2  0  0  0
  4  5  1  0  0  0
  5  1  1  0  0  0
  1  2  2  0  0  0
  2 15  1  0  0  0
 15 16  1  0  0  0
 16 17  2  0  0  0
 16 19  1  0  0  0
 19 20  2  0  0  0
 20 21  1  0  0  0
 21 22  2  0  0  0
 22 23  1  0  0  0
 23 24  2  0  0  0
 24 25  1  0  0  0
 25 26  2  0  0  0
 26 27  1  0  0  0
 27 28  2  0  0  0
  5  6  2  0  0  0
  6  7  1  0  0  0
  7  8  2  0  0  0
  8  9  1  0  0  0
  8  3  1  0  0  0
 28 19  1  0  0  0
 28 23  1  0  0  0
 13 14  1  0  0  0
 15 18  1  0  0  0
  9 10  1  0  0  0
M  END
> <score>
0.863171

> <minimizedAffinity>
-8.41063

$$$$
HIPS6459


 28 30  0  0  0  0  0  0  0  0999 V2000
   66.6895   79.2925   90.6378 C   0  0  0  0  0  0  0  0  0  0  0  0
   66.8246   80.5401   90.2886 N   0  0  0  0  0  0  0  0  0  0  0  0
   68.9215   76.9963   92.6840 C   0  0  0  0  0  0  0  0  0  0  0  0
   67.8462   77.8204   92.3018 C   0  0  0  0  0  0  0  0  0  0  0  0
   67.8189   78.4311   91.0396 C   0  0  0  0  0  0  0  0  0  0  0  0
   68.9038   78.2695   90.1723 C   0  0  0  0  0  0  0  0  0  0  0  0
   69.9790   77.4588   90.5366 C   0  0  0  0  0  0  0  0  0  0  0  0
   69.9955   76.8142   91.7817 C   0  0  0  0  0  0  0  0  0  0  0  0
   71.0808   76.0046   92.1176 O   0  0  0  0  0  0  0  0  0  0  0  0
   71.7863   75.8916   91.5114 H   0  0  0  0  0  0  0  0  0  0  0  0
   67.8639   75.7753   94.4474 O   0  0  0  0  0  0  0  0  0  0  0  0
   68.9010   76.3513   94.0218 C   0  0  0  0  0  0  0  0  0  0  0  0
   70.0365   76.3778   94.8279 O   0  0  0  0  0  0  0  0  0  0  0  0
   70.8156   76.8020   94.5260 H   0  0  0  0  0  0  0  0  0  0  0  0
   68.0195   81.2779   90.3899 N   0  0  0  0  0  0  0  0  0  0  0  0
   68.7020   81.7733   89.2253 C   0  0  0  0  0  0  0  0  0  0  0  0
   68.1628   81.6721   88.0900 O   0  0  0  0  0  0  0  0  0  0  0  0
   68.3974   81.4591   91.2807 H   0  0  0  0  0  0  0  0  0  0  0  0
   70.0892   82.2899   89.3176 C   0  0  0  0  0  0  0  0  0  0  0  0
   71.0041   81.5569   90.0932 C   0  0  0  0  0  0  0  0  0  0  0  0
   72.3108   82.0064   90.2763 C   0  0  0  0  0  0  0  0  0  0  0  0
   72.7352   83.1931   89.6843 C   0  0  0  0  0  0  0  0  0  0  0  0
   71.8577   83.9352   88.8828 C   0  0  0  0  0  0  0  0  0  0  0  0
   72.3034   85.1166   88.2685 C   0  0  0  0  0  0  0  0  0  0  0  0
   71.4488   85.8447   87.4410 C   0  0  0  0  0  0  0  0  0  0  0  0
   70.1489   85.3969   87.2110 C   0  0  0  0  0  0  0  0  0  0  0  0
   69.6893   84.2255   87.8173 C   0  0  0  0  0  0  0  0  0  0  0  0
   70.5237   83.4847   88.6801 C   0  0  0  0  0  0  0  0  0  0  0  0
 11 12  2  0  0  0
 12 13  1  0  0  0
 12  3  1  0  0  0
  3  4  2  0  0  0
  4  5  1  0  0  0
  5  1  1  0  0  0
  1  2  2  0  0  0
  2 15  1  0  0  0
 15 16  1  0  0  0
 16 17  2  0  0  0
 16 19  1  0  0  0
 19 20  2  0  0  0
 20 21  1  0  0  0
 21 22  2  0  0  0
 22 23  1  0  0  0
 23 24  2  0  0  0
 24 25  1  0  0  0
 25 26  2  0  0  0
 26 27  1  0  0  0
 27 28  2  0  0  0
  5  6  2  0  0  0
  6  7  1  0  0  0
  7  8  2  0  0  0
  8  9  1  0  0  0
  8  3  1  0  0  0
 28 19  1  0  0  0
 28 23  1  0  0  0
 13 14  1  0  0  0
 15 18  1  0  0  0
  9 10  1  0  0  0
M  END
> <score>
0.863171

> <minimizedAffinity>
-8.27254

$$$$
HIPS6546


 35 37  0  0  0  0  0  0  0  0999 V2000
   67.9123   77.2191   89.0399 C   0  0  0  0  0  0  0  0  0  0  0  0
   67.3909   76.9890   87.7541 C   0  0  0  0  0  0  0  0  0  0  0  0
   67.0343   78.0609   86.9328 C   0  0  0  0  0  0  0  0  0  0  0  0
   67.1913   79.3731   87.3830 C   0  0  0  0  0  0  0  0  0  0  0  0
   67.6993   79.6236   88.6661 C   0  0  0  0  0  0  0  0  0  0  0  0
   68.0687   78.5450   89.4862 C   0  0  0  0  0  0  0  0  0  0  0  0
   69.0378   73.9110   91.5479 C   0  0  0  0  0  0  0  0  0  0  0  0
   68.0661   73.7422   90.5529 C   0  0  0  0  0  0  0  0  0  0  0  0
   67.6953   74.8181   89.7412 C   0  0  0  0  0  0  0  0  0  0  0  0
   68.2940   76.0796   89.9112 C   0  0  0  0  0  0  0  0  0  0  0  0
   69.2633   76.2429   90.9173 C   0  0  0  0  0  0  0  0  0  0  0  0
   69.6280   75.1671   91.7313 C   0  0  0  0  0  0  0  0  0  0  0  0
   69.5013   72.5644   92.5852 S   0  0  0  0  0  0  0  0  0  0  0  0
   71.0001   72.5195   92.6833 O   0  0  0  0  0  0  0  0  0  0  0  0
   69.0325   71.2631   91.9927 O   0  0  0  0  0  0  0  0  0  0  0  0
   68.8578   72.7850   94.1378 O   0  0  0  0  0  0  0  0  0  0  0  0
   67.5484   73.2953   94.0215 C   0  0  0  0  0  0  0  0  0  0  0  0
   68.7723   75.2184   95.1166 C   0  0  0  0  0  0  0  0  0  0  0  0
   67.3913   74.5752   94.8760 C   0  0  0  0  0  0  0  0  0  0  0  0
   66.4935   75.5770   94.1233 C   0  0  0  0  0  0  0  0  0  0  0  0
   66.7384   74.2336   96.2311 C   0  0  0  0  0  0  0  0  0  0  0  0
   67.9203   81.0368   89.1207 C   0  0  0  0  0  0  0  0  0  0  0  0
   69.2738   81.1832   89.5406 O   0  0  0  0  0  0  0  0  0  0  0  0
   70.0948   82.2750   89.2225 C   0  0  0  0  0  0  0  0  0  0  0  0
   71.3917   82.2957   89.7393 C   0  0  0  0  0  0  0  0  0  0  0  0
   72.2530   83.3527   89.4491 C   0  0  0  0  0  0  0  0  0  0  0  0
   71.8307   84.4119   88.6345 C   0  0  0  0  0  0  0  0  0  0  0  0
   72.7139   85.4571   88.3617 O   0  0  0  0  0  0  0  0  0  0  0  0
   70.5204   84.4120   88.1018 C   0  0  0  0  0  0  0  0  0  0  0  0
   69.6618   83.3373   88.4062 C   0  0  0  0  0  0  0  0  0  0  0  0
   73.5793   85.4450   88.7208 H   0  0  0  0  0  0  0  0  0  0  0  0
   70.0278   85.5117   87.2321 C   0  0  0  0  0  0  0  0  0  0  0  0
   69.8215   86.6643   87.6989 O   0  0  0  0  0  0  0  0  0  0  0  0
   69.7879   85.2789   85.8794 O   0  0  0  0  0  0  0  0  0  0  0  0
   69.9364   84.4277   85.5169 H   0  0  0  0  0  0  0  0  0  0  0  0
 18 19  1  0  0  0
 19 20  1  0  0  0
 19 21  1  0  0  0
 19 17  1  0  0  0
 17 16  1  0  0  0
 16 13  1  0  0  0
 13 14  2  0  0  0
 13 15  2  0  0  0
 13  7  1  0  0  0
  7  8  2  0  0  0
  8  9  1  0  0  0
  9 10  2  0  0  0
 10  1  1  0  0  0
  1  2  2  0  0  0
  2  3  1  0  0  0
  3  4  2  0  0  0
  4  5  1  0  0  0
  5 22  1  0  0  0
 22 23  1  0  0  0
 23 24  1  0  0  0
 24 25  2  0  0  0
 25 26  1  0  0  0
 26 27  2  0  0  0
 27 28  1  0  0  0
 27 29  1  0  0  0
 29 32  1  0  0  0
 32 33  2  0  0  0
 32 34  1  0  0  0
 29 30  2  0  0  0
  5  6  2  0  0  0
 10 11  1  0  0  0
 11 12  2  0  0  0
 12  7  1  0  0  0
  6  1  1  0  0  0
 30 24  1  0  0  0
 28 31  1  0  0  0
 34 35  1  0  0  0
M  END
> <score>
-0.51205

> <minimizedAffinity>
-9.22398

$$$$
HIPS6546


 35 37  0  0  0  0  0  0  0  0999 V2000
   67.7930   77.1243   88.9677 C   0  0  0  0  0  0  0  0  0  0  0  0
   67.5936   76.8965   87.5942 C   0  0  0  0  0  0  0  0  0  0  0  0
   67.2167   77.9438   86.7505 C   0  0  0  0  0  0  0  0  0  0  0  0
   67.0329   79.2285   87.2650 C   0  0  0  0  0  0  0  0  0  0  0  0
   67.2161   79.4743   88.6336 C   0  0  0  0  0  0  0  0  0  0  0  0
   67.6068   78.4227   89.4786 C   0  0  0  0  0  0  0  0  0  0  0  0
   68.9819   73.8940   91.5467 C   0  0  0  0  0  0  0  0  0  0  0  0
   68.0312   73.6789   90.5405 C   0  0  0  0  0  0  0  0  0  0  0  0
   67.6396   74.7294   89.7056 C   0  0  0  0  0  0  0  0  0  0  0  0
   68.1964   76.0116   89.8633 C   0  0  0  0  0  0  0  0  0  0  0  0
   69.1448   76.2213   90.8807 C   0  0  0  0  0  0  0  0  0  0  0  0
   69.5301   75.1706   91.7178 C   0  0  0  0  0  0  0  0  0  0  0  0
   69.4710   72.5795   92.6130 S   0  0  0  0  0  0  0  0  0  0  0  0
   70.9715   72.5025   92.6336 O   0  0  0  0  0  0  0  0  0  0  0  0
   68.9426   71.2670   92.1007 O   0  0  0  0  0  0  0  0  0  0  0  0
   68.9171   72.8779   94.1870 O   0  0  0  0  0  0  0  0  0  0  0  0
   67.5889   73.3473   94.1227 C   0  0  0  0  0  0  0  0  0  0  0  0
   66.7180   74.4888   96.2046 C   0  0  0  0  0  0  0  0  0  0  0  0
   67.4580   74.6968   94.8675 C   0  0  0  0  0  0  0  0  0  0  0  0
   68.8668   75.2539   95.1529 C   0  0  0  0  0  0  0  0  0  0  0  0
   66.6822   75.7100   94.0009 C   0  0  0  0  0  0  0  0  0  0  0  0
   67.0740   80.8692   89.1691 C   0  0  0  0  0  0  0  0  0  0  0  0
   68.3692   81.4438   89.3172 O   0  0  0  0  0  0  0  0  0  0  0  0
   68.8849   82.4689   88.5106 C   0  0  0  0  0  0  0  0  0  0  0  0
   68.0717   82.9814   87.4979 C   0  0  0  0  0  0  0  0  0  0  0  0
   68.5305   84.0060   86.6714 C   0  0  0  0  0  0  0  0  0  0  0  0
   69.8157   84.5376   86.8434 C   0  0  0  0  0  0  0  0  0  0  0  0
   70.2489   85.5620   86.0007 O   0  0  0  0  0  0  0  0  0  0  0  0
   70.6569   84.0320   87.8620 C   0  0  0  0  0  0  0  0  0  0  0  0
   70.1787   82.9952   88.6874 C   0  0  0  0  0  0  0  0  0  0  0  0
   69.6818   85.8880   85.3298 H   0  0  0  0  0  0  0  0  0  0  0  0
   72.0264   84.5644   88.0839 C   0  0  0  0  0  0  0  0  0  0  0  0
   72.3364   85.7294   87.7154 O   0  0  0  0  0  0  0  0  0  0  0  0
   72.9904   83.7754   88.7082 O   0  0  0  0  0  0  0  0  0  0  0  0
   72.7758   82.9073   88.9881 H   0  0  0  0  0  0  0  0  0  0  0  0
 18 19  1  0  0  0
 19 20  1  0  0  0
 19 21  1  0  0  0
 19 17  1  0  0  0
 17 16  1  0  0  0
 16 13  1  0  0  0
 13 14  2  0  0  0
 13 15  2  0  0  0
 13  7  1  0  0  0
  7  8  2  0  0  0
  8  9  1  0  0  0
  9 10  2  0  0  0
 10  1  1  0  0  0
  1  2  2  0  0  0
  2  3  1  0  0  0
  3  4  2  0  0  0
  4  5  1  0  0  0
  5 22  1  0  0  0
 22 23  1  0  0  0
 23 24  1  0  0  0
 24 25  2  0  0  0
 25 26  1  0  0  0
 26 27  2  0  0  0
 27 28  1  0  0  0
 27 29  1  0  0  0
 29 32  1  0  0  0
 32 33  2  0  0  0
 32 34  1  0  0  0
 29 30  2  0  0  0
  5  6  2  0  0  0
 10 11  1  0  0  0
 11 12  2  0  0  0
 12  7  1  0  0  0
  6  1  1  0  0  0
 30 24  1  0  0  0
 28 31  1  0  0  0
 34 35  1  0  0  0
M  END
> <score>
-0.51205

> <minimizedAffinity>
-9.05314

$$$$
HIPS6546


 35 37  0  0  0  0  0  0  0  0999 V2000
   68.0468   76.4913   89.6548 C   0  0  0  0  0  0  0  0  0  0  0  0
   67.4007   76.2225   88.4348 C   0  0  0  0  0  0  0  0  0  0  0  0
   66.9512   77.2689   87.6264 C   0  0  0  0  0  0  0  0  0  0  0  0
   67.1388   78.5940   88.0243 C   0  0  0  0  0  0  0  0  0  0  0  0
   67.7711   78.8830   89.2423 C   0  0  0  0  0  0  0  0  0  0  0  0
   68.2332   77.8299   90.0484 C   0  0  0  0  0  0  0  0  0  0  0  0
   69.4606   73.2667   92.1254 C   0  0  0  0  0  0  0  0  0  0  0  0
   68.6951   72.9962   90.9837 C   0  0  0  0  0  0  0  0  0  0  0  0
   68.2300   74.0437   90.1833 C   0  0  0  0  0  0  0  0  0  0  0  0
   68.5270   75.3788   90.5121 C   0  0  0  0  0  0  0  0  0  0  0  0
   69.2897   75.6425   91.6642 C   0  0  0  0  0  0  0  0  0  0  0  0
   69.7484   74.5937   92.4658 C   0  0  0  0  0  0  0  0  0  0  0  0
   70.0389   71.9537   93.1480 S   0  0  0  0  0  0  0  0  0  0  0  0
   69.3025   70.6949   92.7861 O   0  0  0  0  0  0  0  0  0  0  0  0
   69.7617   72.2578   94.5953 O   0  0  0  0  0  0  0  0  0  0  0  0
   71.6967   71.7106   92.8910 O   0  0  0  0  0  0  0  0  0  0  0  0
   72.2252   70.9814   93.9762 C   0  0  0  0  0  0  0  0  0  0  0  0
   72.9237   69.4399   92.0969 C   0  0  0  0  0  0  0  0  0  0  0  0
   73.3087   69.9932   93.4841 C   0  0  0  0  0  0  0  0  0  0  0  0
   74.6555   70.7352   93.3741 C   0  0  0  0  0  0  0  0  0  0  0  0
   73.4572   68.8260   94.4816 C   0  0  0  0  0  0  0  0  0  0  0  0
   68.0216   80.3097   89.6354 C   0  0  0  0  0  0  0  0  0  0  0  0
   67.4994   81.1682   88.6254 O   0  0  0  0  0  0  0  0  0  0  0  0
   68.1838   82.2618   88.0749 C   0  0  0  0  0  0  0  0  0  0  0  0
   67.5144   83.0542   87.1404 C   0  0  0  0  0  0  0  0  0  0  0  0
   68.1440   84.1579   86.5670 C   0  0  0  0  0  0  0  0  0  0  0  0
   69.4593   84.4894   86.9190 C   0  0  0  0  0  0  0  0  0  0  0  0
   70.0648   85.5991   86.3282 O   0  0  0  0  0  0  0  0  0  0  0  0
   70.1567   83.6992   87.8624 C   0  0  0  0  0  0  0  0  0  0  0  0
   69.5068   82.5862   88.4310 C   0  0  0  0  0  0  0  0  0  0  0  0
   69.5919   86.1143   85.7046 H   0  0  0  0  0  0  0  0  0  0  0  0
   71.5516   84.0118   88.2684 C   0  0  0  0  0  0  0  0  0  0  0  0
   72.3293   84.6301   87.4925 O   0  0  0  0  0  0  0  0  0  0  0  0
   72.0185   83.6226   89.5222 O   0  0  0  0  0  0  0  0  0  0  0  0
   71.4529   83.1622   90.1106 H   0  0  0  0  0  0  0  0  0  0  0  0
 18 19  1  0  0  0
 19 20  1  0  0  0
 19 21  1  0  0  0
 19 17  1  0  0  0
 17 16  1  0  0  0
 16 13  1  0  0  0
 13 14  2  0  0  0
 13 15  2  0  0  0
 13  7  1  0  0  0
  7  8  2  0  0  0
  8  9  1  0  0  0
  9 10  2  0  0  0
 10  1  1  0  0  0
  1  2  2  0  0  0
  2  3  1  0  0  0
  3  4  2  0  0  0
  4  5  1  0  0  0
  5 22  1  0  0  0
 22 23  1  0  0  0
 23 24  1  0  0  0
 24 25  2  0  0  0
 25 26  1  0  0  0
 26 27  2  0  0  0
 27 28  1  0  0  0
 27 29  1  0  0  0
 29 32  1  0  0  0
 32 33  2  0  0  0
 32 34  1  0  0  0
 29 30  2  0  0  0
  5  6  2  0  0  0
 10 11  1  0  0  0
 11 12  2  0  0  0
 12  7  1  0  0  0
  6  1  1  0  0  0
 30 24  1  0  0  0
 28 31  1  0  0  0
 34 35  1  0  0  0
M  END
> <score>
-0.51205

> <minimizedAffinity>
-8.68193

$$$$
HIPS6547


 36 38  0  0  0  0  0  0  0  0999 V2000
   67.6522   76.5043   89.0765 C   0  0  0  0  0  0  0  0  0  0  0  0
   67.1040   76.6283   87.7906 C   0  0  0  0  0  0  0  0  0  0  0  0
   66.9162   77.8915   87.2249 C   0  0  0  0  0  0  0  0  0  0  0  0
   67.2735   79.0392   87.9367 C   0  0  0  0  0  0  0  0  0  0  0  0
   67.8324   78.9311   89.2192 C   0  0  0  0  0  0  0  0  0  0  0  0
   68.0357   77.6589   89.7777 C   0  0  0  0  0  0  0  0  0  0  0  0
   66.5985   74.0246   87.7528 C   0  0  0  0  0  0  0  0  0  0  0  0
   67.3352   73.9894   89.0670 C   0  0  0  0  0  0  0  0  0  0  0  0
   67.5019   72.7543   89.7146 C   0  0  0  0  0  0  0  0  0  0  0  0
   68.1871   72.6737   90.9273 C   0  0  0  0  0  0  0  0  0  0  0  0
   68.7111   73.8264   91.5191 C   0  0  0  0  0  0  0  0  0  0  0  0
   68.5432   75.0662   90.8900 C   0  0  0  0  0  0  0  0  0  0  0  0
   67.8411   75.1650   89.6773 C   0  0  0  0  0  0  0  0  0  0  0  0
   69.5554   73.7060   93.0596 S   0  0  0  0  0  0  0  0  0  0  0  0
   70.2192   75.0119   93.3985 O   0  0  0  0  0  0  0  0  0  0  0  0
   70.6361   72.6739   92.9010 O   0  0  0  0  0  0  0  0  0  0  0  0
   68.5083   73.2025   94.3680 N   0  0  0  0  0  0  0  0  0  0  0  0
   69.0808   73.1329   95.2093 H   0  0  0  0  0  0  0  0  0  0  0  0
   67.3492   74.0767   94.6875 C   0  0  0  0  0  0  0  0  0  0  0  0
   66.9790   73.8372   96.1684 C   0  0  0  0  0  0  0  0  0  0  0  0
   67.6693   75.5773   94.5101 C   0  0  0  0  0  0  0  0  0  0  0  0
   66.1214   73.6918   93.8356 C   0  0  0  0  0  0  0  0  0  0  0  0
   68.1916   80.1746   89.9878 C   0  0  0  0  0  0  0  0  0  0  0  0
   68.4989   81.2437   89.0919 O   0  0  0  0  0  0  0  0  0  0  0  0
   69.6858   81.9951   89.1016 C   0  0  0  0  0  0  0  0  0  0  0  0
   70.7776   81.6749   89.9255 C   0  0  0  0  0  0  0  0  0  0  0  0
   71.9256   82.4661   89.9106 C   0  0  0  0  0  0  0  0  0  0  0  0
   72.0109   83.5827   89.0685 C   0  0  0  0  0  0  0  0  0  0  0  0
   73.1713   84.3571   89.0758 O   0  0  0  0  0  0  0  0  0  0  0  0
   70.9266   83.9109   88.2226 C   0  0  0  0  0  0  0  0  0  0  0  0
   69.7737   83.1032   88.2519 C   0  0  0  0  0  0  0  0  0  0  0  0
   73.8831   84.1292   89.6410 H   0  0  0  0  0  0  0  0  0  0  0  0
   70.9688   85.0813   87.3087 C   0  0  0  0  0  0  0  0  0  0  0  0
   71.6446   86.1051   87.5979 O   0  0  0  0  0  0  0  0  0  0  0  0
   70.2560   85.0594   86.1122 O   0  0  0  0  0  0  0  0  0  0  0  0
   69.7488   84.3057   85.8827 H   0  0  0  0  0  0  0  0  0  0  0  0
  7  8  1  0  0  0
  8  9  2  0  0  0
  9 10  1  0  0  0
 10 11  2  0  0  0
 11 14  1  0  0  0
 14 15  2  0  0  0
 14 16  2  0  0  0
 14 17  1  0  0  0
 17 19  1  0  0  0
 19 20  1  0  0  0
 19 21  1  0  0  0
 19 22  1  0  0  0
 11 12  1  0  0  0
 12 13  2  0  0  0
 13  1  1  0  0  0
  1  2  2  0  0  0
  2  3  1  0  0  0
  3  4  2  0  0  0
  4  5  1  0  0  0
  5 23  1  0  0  0
 23 24  1  0  0  0
 24 25  1  0  0  0
 25 26  2  0  0  0
 26 27  1  0  0  0
 27 28  2  0  0  0
 28 29  1  0  0  0
 28 30  1  0  0  0
 30 33  1  0  0  0
 33 34  2  0  0  0
 33 35  1  0  0  0
 30 31  2  0  0  0
  5  6  2  0  0  0
 13  8  1  0  0  0
  6  1  1  0  0  0
 31 25  1  0  0  0
 17 18  1  0  0  0
 29 32  1  0  0  0
 35 36  1  0  0  0
M  END
> <score>
-0.481785

> <minimizedAffinity>
-9.85215

$$$$
HIPS6547


 36 38  0  0  0  0  0  0  0  0999 V2000
   68.2693   77.4557   90.1524 C   0  0  0  0  0  0  0  0  0  0  0  0
   67.1143   78.2518   90.1124 C   0  0  0  0  0  0  0  0  0  0  0  0
   67.2208   79.6434   90.0577 C   0  0  0  0  0  0  0  0  0  0  0  0
   68.4787   80.2507   90.0422 C   0  0  0  0  0  0  0  0  0  0  0  0
   69.6428   79.4679   90.0712 C   0  0  0  0  0  0  0  0  0  0  0  0
   69.5319   78.0686   90.1088 C   0  0  0  0  0  0  0  0  0  0  0  0
   66.9931   75.8759   87.9417 C   0  0  0  0  0  0  0  0  0  0  0  0
   67.5399   75.2280   89.1876 C   0  0  0  0  0  0  0  0  0  0  0  0
   67.4138   73.8371   89.3361 C   0  0  0  0  0  0  0  0  0  0  0  0
   67.9158   73.1941   90.4681 C   0  0  0  0  0  0  0  0  0  0  0  0
   68.5455   73.9299   91.4759 C   0  0  0  0  0  0  0  0  0  0  0  0
   68.6689   75.3188   91.3461 C   0  0  0  0  0  0  0  0  0  0  0  0
   68.1535   75.9818   90.2200 C   0  0  0  0  0  0  0  0  0  0  0  0
   69.1545   73.1022   92.9056 S   0  0  0  0  0  0  0  0  0  0  0  0
   70.3778   73.7982   93.4348 O   0  0  0  0  0  0  0  0  0  0  0  0
   69.5644   71.7191   92.4844 O   0  0  0  0  0  0  0  0  0  0  0  0
   67.9503   72.9538   94.1665 N   0  0  0  0  0  0  0  0  0  0  0  0
   68.3626   72.4051   94.9210 H   0  0  0  0  0  0  0  0  0  0  0  0
   67.4295   74.2122   94.7621 C   0  0  0  0  0  0  0  0  0  0  0  0
   66.8614   73.8673   96.1571 C   0  0  0  0  0  0  0  0  0  0  0  0
   68.5274   75.2835   94.9431 C   0  0  0  0  0  0  0  0  0  0  0  0
   66.2692   74.7791   93.9173 C   0  0  0  0  0  0  0  0  0  0  0  0
   70.9934   80.1327   90.0788 C   0  0  0  0  0  0  0  0  0  0  0  0
   70.8759   81.4968   90.4855 O   0  0  0  0  0  0  0  0  0  0  0  0
   71.3158   82.6058   89.7438 C   0  0  0  0  0  0  0  0  0  0  0  0
   72.6484   83.0495   89.7640 C   0  0  0  0  0  0  0  0  0  0  0  0
   73.0283   84.1684   89.0237 C   0  0  0  0  0  0  0  0  0  0  0  0
   72.0913   84.8583   88.2430 C   0  0  0  0  0  0  0  0  0  0  0  0
   72.4995   85.9755   87.5140 O   0  0  0  0  0  0  0  0  0  0  0  0
   70.7489   84.4165   88.2003 C   0  0  0  0  0  0  0  0  0  0  0  0
   70.3814   83.2867   88.9558 C   0  0  0  0  0  0  0  0  0  0  0  0
   73.3921   86.2583   87.5506 H   0  0  0  0  0  0  0  0  0  0  0  0
   69.7187   85.1102   87.3853 C   0  0  0  0  0  0  0  0  0  0  0  0
   68.6467   85.5190   87.9073 O   0  0  0  0  0  0  0  0  0  0  0  0
   69.9282   85.3181   86.0241 O   0  0  0  0  0  0  0  0  0  0  0  0
   70.7199   85.0202   85.6210 H   0  0  0  0  0  0  0  0  0  0  0  0
  7  8  1  0  0  0
  8  9  2  0  0  0
  9 10  1  0  0  0
 10 11  2  0  0  0
 11 14  1  0  0  0
 14 15  2  0  0  0
 14 16  2  0  0  0
 14 17  1  0  0  0
 17 19  1  0  0  0
 19 20  1  0  0  0
 19 21  1  0  0  0
 19 22  1  0  0  0
 11 12  1  0  0  0
 12 13  2  0  0  0
 13  1  1  0  0  0
  1  2  2  0  0  0
  2  3  1  0  0  0
  3  4  2  0  0  0
  4  5  1  0  0  0
  5 23  1  0  0  0
 23 24  1  0  0  0
 24 25  1  0  0  0
 25 26  2  0  0  0
 26 27  1  0  0  0
 27 28  2  0  0  0
 28 29  1  0  0  0
 28 30  1  0  0  0
 30 33  1  0  0  0
 33 34  2  0  0  0
 33 35  1  0  0  0
 30 31  2  0  0  0
  5  6  2  0  0  0
 13  8  1  0  0  0
  6  1  1  0  0  0
 31 25  1  0  0  0
 17 18  1  0  0  0
 29 32  1  0  0  0
 35 36  1  0  0  0
M  END
> <score>
-0.481785

> <minimizedAffinity>
-9.69527

$$$$
HIPS6547


 36 38  0  0  0  0  0  0  0  0999 V2000
   67.6679   76.5960   89.3631 C   0  0  0  0  0  0  0  0  0  0  0  0
   66.6115   76.8176   88.4662 C   0  0  0  0  0  0  0  0  0  0  0  0
   66.3841   78.0950   87.9490 C   0  0  0  0  0  0  0  0  0  0  0  0
   67.2079   79.1598   88.3219 C   0  0  0  0  0  0  0  0  0  0  0  0
   68.2745   78.9520   89.2096 C   0  0  0  0  0  0  0  0  0  0  0  0
   68.5106   77.6629   89.7140 C   0  0  0  0  0  0  0  0  0  0  0  0
   66.7710   74.1267   87.9106 C   0  0  0  0  0  0  0  0  0  0  0  0
   67.4685   74.0718   89.2454 C   0  0  0  0  0  0  0  0  0  0  0  0
   67.6727   72.8204   89.8493 C   0  0  0  0  0  0  0  0  0  0  0  0
   68.3240   72.7219   91.0794 C   0  0  0  0  0  0  0  0  0  0  0  0
   68.7758   73.8722   91.7321 C   0  0  0  0  0  0  0  0  0  0  0  0
   68.5696   75.1276   91.1467 C   0  0  0  0  0  0  0  0  0  0  0  0
   67.9006   75.2435   89.9170 C   0  0  0  0  0  0  0  0  0  0  0  0
   69.5778   73.7281   93.2929 S   0  0  0  0  0  0  0  0  0  0  0  0
   70.2189   75.0328   93.6770 O   0  0  0  0  0  0  0  0  0  0  0  0
   70.6726   72.7095   93.1439 O   0  0  0  0  0  0  0  0  0  0  0  0
   68.4996   73.1880   94.5608 N   0  0  0  0  0  0  0  0  0  0  0  0
   69.0470   73.1151   95.4184 H   0  0  0  0  0  0  0  0  0  0  0  0
   67.3166   74.0382   94.8568 C   0  0  0  0  0  0  0  0  0  0  0  0
   66.8821   73.7426   96.3099 C   0  0  0  0  0  0  0  0  0  0  0  0
   67.6264   75.5473   94.7467 C   0  0  0  0  0  0  0  0  0  0  0  0
   66.1338   73.6708   93.9364 C   0  0  0  0  0  0  0  0  0  0  0  0
   69.1415   80.1106   89.6241 C   0  0  0  0  0  0  0  0  0  0  0  0
   68.4387   81.3433   89.4608 O   0  0  0  0  0  0  0  0  0  0  0  0
   68.8133   82.3824   88.5928 C   0  0  0  0  0  0  0  0  0  0  0  0
   67.9738   82.8540   87.5701 C   0  0  0  0  0  0  0  0  0  0  0  0
   68.4025   83.8754   86.7233 C   0  0  0  0  0  0  0  0  0  0  0  0
   69.6692   84.4518   86.8862 C   0  0  0  0  0  0  0  0  0  0  0  0
   70.0723   85.4710   86.0230 O   0  0  0  0  0  0  0  0  0  0  0  0
   70.5212   83.9986   87.9195 C   0  0  0  0  0  0  0  0  0  0  0  0
   70.0740   82.9646   88.7640 C   0  0  0  0  0  0  0  0  0  0  0  0
   69.4985   85.7625   85.3421 H   0  0  0  0  0  0  0  0  0  0  0  0
   71.8711   84.5793   88.1367 C   0  0  0  0  0  0  0  0  0  0  0  0
   72.1096   85.7857   87.8603 O   0  0  0  0  0  0  0  0  0  0  0  0
   72.8964   83.7902   88.6527 O   0  0  0  0  0  0  0  0  0  0  0  0
   72.7352   82.8915   88.8633 H   0  0  0  0  0  0  0  0  0  0  0  0
  7  8  1  0  0  0
  8  9  2  0  0  0
  9 10  1  0  0  0
 10 11  2  0  0  0
 11 14  1  0  0  0
 14 15  2  0  0  0
 14 16  2  0  0  0
 14 17  1  0  0  0
 17 19  1  0  0  0
 19 20  1  0  0  0
 19 21  1  0  0  0
 19 22  1  0  0  0
 11 12  1  0  0  0
 12 13  2  0  0  0
 13  1  1  0  0  0
  1  2  2  0  0  0
  2  3  1  0  0  0
  3  4  2  0  0  0
  4  5  1  0  0  0
  5 23  1  0  0  0
 23 24  1  0  0  0
 24 25  1  0  0  0
 25 26  2  0  0  0
 26 27  1  0  0  0
 27 28  2  0  0  0
 28 29  1  0  0  0
 28 30  1  0  0  0
 30 33  1  0  0  0
 33 34  2  0  0  0
 33 35  1  0  0  0
 30 31  2  0  0  0
  5  6  2  0  0  0
 13  8  1  0  0  0
  6  1  1  0  0  0
 31 25  1  0  0  0
 17 18  1  0  0  0
 29 32  1  0  0  0
 35 36  1  0  0  0
M  END
> <score>
-0.481785

> <minimizedAffinity>
-9.63199

$$$$
HIPS6563


 28 29  0  0  0  0  0  0  0  0999 V2000
   69.0284   77.2210   91.5536 C   0  0  0  0  0  0  0  0  0  0  0  0
   68.3739   76.4445   90.4406 C   0  0  0  0  0  0  0  0  0  0  0  0
   67.9864   77.0871   89.2555 C   0  0  0  0  0  0  0  0  0  0  0  0
   67.3925   76.3625   88.2097 C   0  0  0  0  0  0  0  0  0  0  0  0
   67.2104   74.9765   88.3541 C   0  0  0  0  0  0  0  0  0  0  0  0
   67.5516   74.3273   89.5528 C   0  0  0  0  0  0  0  0  0  0  0  0
   68.1478   75.0683   90.5861 C   0  0  0  0  0  0  0  0  0  0  0  0
   67.0588   77.0462   86.9070 C   0  0  0  0  0  0  0  0  0  0  0  0
   68.1066   77.8727   86.5464 F   0  0  0  0  0  0  0  0  0  0  0  0
   66.8515   76.1162   85.9029 F   0  0  0  0  0  0  0  0  0  0  0  0
   65.9088   77.8058   87.0357 F   0  0  0  0  0  0  0  0  0  0  0  0
   67.3822   72.8344   89.6865 C   0  0  0  0  0  0  0  0  0  0  0  0
   66.6042   72.5271   90.7894 F   0  0  0  0  0  0  0  0  0  0  0  0
   66.7670   72.3431   88.5502 F   0  0  0  0  0  0  0  0  0  0  0  0
   68.6103   72.2141   89.8384 F   0  0  0  0  0  0  0  0  0  0  0  0
   68.1605   77.3174   92.6842 O   0  0  0  0  0  0  0  0  0  0  0  0
   68.4562   74.2781   94.8622 C   0  0  0  0  0  0  0  0  0  0  0  0
   68.8094   75.3276   93.9925 C   0  0  0  0  0  0  0  0  0  0  0  0
   67.8524   76.2676   93.5657 C   0  0  0  0  0  0  0  0  0  0  0  0
   66.5399   76.1627   94.0301 C   0  0  0  0  0  0  0  0  0  0  0  0
   66.1749   75.1330   94.8968 C   0  0  0  0  0  0  0  0  0  0  0  0
   67.1199   74.1868   95.3155 C   0  0  0  0  0  0  0  0  0  0  0  0
   66.7261   73.1627   96.1771 O   0  0  0  0  0  0  0  0  0  0  0  0
   65.8376   73.1131   96.4704 H   0  0  0  0  0  0  0  0  0  0  0  0
   70.5217   73.1077   94.5698 O   0  0  0  0  0  0  0  0  0  0  0  0
   69.4942   73.2981   95.2745 C   0  0  0  0  0  0  0  0  0  0  0  0
   69.3426   72.5742   96.4549 O   0  0  0  0  0  0  0  0  0  0  0  0
   68.5845   72.7041   96.9901 H   0  0  0  0  0  0  0  0  0  0  0  0
 25 26  2  0  0  0
 26 27  1  0  0  0
 26 17  1  0  0  0
 17 18  2  0  0  0
 18 19  1  0  0  0
 19 16  1  0  0  0
 16  1  1  0  0  0
  1  2  1  0  0  0
  2  3  2  0  0  0
  3  4  1  0  0  0
  4  8  1  0  0  0
  8  9  1  0  0  0
  8 10  1  0  0  0
  8 11  1  0  0  0
  4  5  2  0  0  0
  5  6  1  0  0  0
  6 12  1  0  0  0
 12 13  1  0  0  0
 12 14  1  0  0  0
 12 15  1  0  0  0
  6  7  2  0  0  0
 19 20  2  0  0  0
 20 21  1  0  0  0
 21 22  2  0  0  0
 22 23  1  0  0  0
 22 17  1  0  0  0
  7  2  1  0  0  0
 27 28  1  0  0  0
 23 24  1  0  0  0
M  END
> <score>
-0.179564

> <minimizedAffinity>
-8.47199

$$$$
HIPS6563


 28 29  0  0  0  0  0  0  0  0999 V2000
   69.1425   77.2707   91.5197 C   0  0  0  0  0  0  0  0  0  0  0  0
   68.4890   76.4833   90.4137 C   0  0  0  0  0  0  0  0  0  0  0  0
   68.2786   75.1032   90.5500 C   0  0  0  0  0  0  0  0  0  0  0  0
   67.6536   74.3703   89.5282 C   0  0  0  0  0  0  0  0  0  0  0  0
   67.2187   75.0408   88.3723 C   0  0  0  0  0  0  0  0  0  0  0  0
   67.4636   76.4141   88.2024 C   0  0  0  0  0  0  0  0  0  0  0  0
   68.0867   77.1307   89.2369 C   0  0  0  0  0  0  0  0  0  0  0  0
   67.3543   72.9042   89.7205 C   0  0  0  0  0  0  0  0  0  0  0  0
   66.5247   72.4726   88.7025 F   0  0  0  0  0  0  0  0  0  0  0  0
   68.5200   72.1579   89.6998 F   0  0  0  0  0  0  0  0  0  0  0  0
   66.7264   72.6901   90.9353 F   0  0  0  0  0  0  0  0  0  0  0  0
   66.9646   77.1312   86.9727 C   0  0  0  0  0  0  0  0  0  0  0  0
   66.6721   76.2285   85.9648 F   0  0  0  0  0  0  0  0  0  0  0  0
   65.8198   77.8374   87.2913 F   0  0  0  0  0  0  0  0  0  0  0  0
   67.9208   78.0125   86.4983 F   0  0  0  0  0  0  0  0  0  0  0  0
   68.2774   77.3699   92.6521 O   0  0  0  0  0  0  0  0  0  0  0  0
   68.5198   74.2919   94.7819 C   0  0  0  0  0  0  0  0  0  0  0  0
   68.8893   75.3434   93.9214 C   0  0  0  0  0  0  0  0  0  0  0  0
   67.9532   76.3166   93.5236 C   0  0  0  0  0  0  0  0  0  0  0  0
   66.6456   76.2424   94.0077 C   0  0  0  0  0  0  0  0  0  0  0  0
   66.2649   75.2109   94.8655 C   0  0  0  0  0  0  0  0  0  0  0  0
   67.1889   74.2321   95.2554 C   0  0  0  0  0  0  0  0  0  0  0  0
   66.7794   73.2072   96.1087 O   0  0  0  0  0  0  0  0  0  0  0  0
   65.8946   73.1786   96.4156 H   0  0  0  0  0  0  0  0  0  0  0  0
   69.4281   72.6240   96.2362 O   0  0  0  0  0  0  0  0  0  0  0  0
   69.5357   73.2768   95.1634 C   0  0  0  0  0  0  0  0  0  0  0  0
   70.6263   73.0325   94.3319 O   0  0  0  0  0  0  0  0  0  0  0  0
   70.7208   73.5094   93.5309 H   0  0  0  0  0  0  0  0  0  0  0  0
 25 26  2  0  0  0
 26 27  1  0  0  0
 26 17  1  0  0  0
 17 18  2  0  0  0
 18 19  1  0  0  0
 19 16  1  0  0  0
 16  1  1  0  0  0
  1  2  1  0  0  0
  2  3  2  0  0  0
  3  4  1  0  0  0
  4  8  1  0  0  0
  8  9  1  0  0  0
  8 10  1  0  0  0
  8 11  1  0  0  0
  4  5  2  0  0  0
  5  6  1  0  0  0
  6 12  1  0  0  0
 12 13  1  0  0  0
 12 14  1  0  0  0
 12 15  1  0  0  0
  6  7  2  0  0  0
 19 20  2  0  0  0
 20 21  1  0  0  0
 21 22  2  0  0  0
 22 23  1  0  0  0
 22 17  1  0  0  0
  7  2  1  0  0  0
 27 28  1  0  0  0
 23 24  1  0  0  0
M  END
> <score>
-0.179564

> <minimizedAffinity>
-8.37561

$$$$
HIPS6563


 28 29  0  0  0  0  0  0  0  0999 V2000
   70.1901   76.4804   93.0189 C   0  0  0  0  0  0  0  0  0  0  0  0
   68.7532   76.5699   93.4635 C   0  0  0  0  0  0  0  0  0  0  0  0
   68.1776   75.5418   94.2246 C   0  0  0  0  0  0  0  0  0  0  0  0
   66.8441   75.6309   94.6553 C   0  0  0  0  0  0  0  0  0  0  0  0
   66.0959   76.7763   94.3340 C   0  0  0  0  0  0  0  0  0  0  0  0
   66.6448   77.7928   93.5339 C   0  0  0  0  0  0  0  0  0  0  0  0
   67.9812   77.6875   93.1157 C   0  0  0  0  0  0  0  0  0  0  0  0
   66.2615   74.5614   95.5454 C   0  0  0  0  0  0  0  0  0  0  0  0
   67.1735   73.5305   95.6736 F   0  0  0  0  0  0  0  0  0  0  0  0
   65.9750   75.0692   96.8009 F   0  0  0  0  0  0  0  0  0  0  0  0
   65.0894   74.0619   95.0043 F   0  0  0  0  0  0  0  0  0  0  0  0
   65.8447   79.0328   93.2212 C   0  0  0  0  0  0  0  0  0  0  0  0
   64.5593   78.9253   93.7236 F   0  0  0  0  0  0  0  0  0  0  0  0
   66.4622   80.1288   93.7941 F   0  0  0  0  0  0  0  0  0  0  0  0
   65.7584   79.2276   91.8535 F   0  0  0  0  0  0  0  0  0  0  0  0
   70.4102   75.2989   92.2468 O   0  0  0  0  0  0  0  0  0  0  0  0
   67.7692   74.7823   89.6338 C   0  0  0  0  0  0  0  0  0  0  0  0
   68.7176   75.4224   90.4545 C   0  0  0  0  0  0  0  0  0  0  0  0
   69.4684   74.6947   91.3970 C   0  0  0  0  0  0  0  0  0  0  0  0
   69.2781   73.3154   91.5013 C   0  0  0  0  0  0  0  0  0  0  0  0
   68.3473   72.6651   90.6917 C   0  0  0  0  0  0  0  0  0  0  0  0
   67.5879   73.3858   89.7603 C   0  0  0  0  0  0  0  0  0  0  0  0
   66.6585   72.7113   88.9681 O   0  0  0  0  0  0  0  0  0  0  0  0
   66.5477   71.7856   89.0614 H   0  0  0  0  0  0  0  0  0  0  0  0
   66.9294   75.2675   87.4472 O   0  0  0  0  0  0  0  0  0  0  0  0
   66.9866   75.5915   88.6639 C   0  0  0  0  0  0  0  0  0  0  0  0
   66.3007   76.7256   89.0926 O   0  0  0  0  0  0  0  0  0  0  0  0
   66.3331   76.9800   89.9938 H   0  0  0  0  0  0  0  0  0  0  0  0
 25 26  2  0  0  0
 26 27  1  0  0  0
 26 17  1  0  0  0
 17 18  2  0  0  0
 18 19  1  0  0  0
 19 16  1  0  0  0
 16  1  1  0  0  0
  1  2  1  0  0  0
  2  3  2  0  0  0
  3  4  1  0  0  0
  4  8  1  0  0  0
  8  9  1  0  0  0
  8 10  1  0  0  0
  8 11  1  0  0  0
  4  5  2  0  0  0
  5  6  1  0  0  0
  6 12  1  0  0  0
 12 13  1  0  0  0
 12 14  1  0  0  0
 12 15  1  0  0  0
  6  7  2  0  0  0
 19 20  2  0  0  0
 20 21  1  0  0  0
 21 22  2  0  0  0
 22 23  1  0  0  0
 22 17  1  0  0  0
  7  2  1  0  0  0
 27 28  1  0  0  0
 23 24  1  0  0  0
M  END
> <score>
-0.179564

> <minimizedAffinity>
-8.23987

$$$$
HIPS6566


 32 33  0  0  0  0  0  0  0  0999 V2000
   67.4491   76.4821   89.0391 C   0  0  0  0  0  0  0  0  0  0  0  0
   67.1075   76.4807   87.6752 C   0  0  0  0  0  0  0  0  0  0  0  0
   66.7458   77.6693   87.0366 C   0  0  0  0  0  0  0  0  0  0  0  0
   66.7125   78.8695   87.7508 C   0  0  0  0  0  0  0  0  0  0  0  0
   67.0330   78.8878   89.1153 C   0  0  0  0  0  0  0  0  0  0  0  0
   67.4142   77.6958   89.7513 C   0  0  0  0  0  0  0  0  0  0  0  0
   69.0079   74.0715   91.5390 C   0  0  0  0  0  0  0  0  0  0  0  0
   68.5466   72.8456   91.0367 C   0  0  0  0  0  0  0  0  0  0  0  0
   67.7587   72.8012   89.8851 C   0  0  0  0  0  0  0  0  0  0  0  0
   67.4111   73.9815   89.2263 C   0  0  0  0  0  0  0  0  0  0  0  0
   67.8441   75.2232   89.7193 C   0  0  0  0  0  0  0  0  0  0  0  0
   68.6436   75.2585   90.8765 C   0  0  0  0  0  0  0  0  0  0  0  0
   69.8046   74.0775   92.7384 N   0  0  0  0  0  0  0  0  0  0  0  0
   70.7805   73.9978   92.6355 H   0  0  0  0  0  0  0  0  0  0  0  0
   69.1771   74.2147   94.3550 S   0  0  0  0  0  0  0  0  0  0  0  0
   69.5569   72.9754   95.1163 O   0  0  0  0  0  0  0  0  0  0  0  0
   69.7832   75.3937   95.0634 O   0  0  0  0  0  0  0  0  0  0  0  0
   66.7747   73.8151   95.6305 C   0  0  0  0  0  0  0  0  0  0  0  0
   67.3874   74.3479   94.3347 C   0  0  0  0  0  0  0  0  0  0  0  0
   66.9686   75.8007   94.1009 C   0  0  0  0  0  0  0  0  0  0  0  0
   67.0280   80.1841   89.8719 C   0  0  0  0  0  0  0  0  0  0  0  0
   66.6067   81.2314   89.0086 O   0  0  0  0  0  0  0  0  0  0  0  0
   67.4192   82.3354   88.7532 C   0  0  0  0  0  0  0  0  0  0  0  0
   68.2923   82.2938   87.7438 C   0  0  0  0  0  0  0  0  0  0  0  0
   69.2122   83.4116   87.4063 C   0  0  0  0  0  0  0  0  0  0  0  0
   68.7161   84.4586   86.7209 C   0  0  0  0  0  0  0  0  0  0  0  0
   69.4579   85.6039   86.4226 O   0  0  0  0  0  0  0  0  0  0  0  0
   70.3494   85.6709   86.7032 H   0  0  0  0  0  0  0  0  0  0  0  0
   70.6309   83.3737   87.8224 C   0  0  0  0  0  0  0  0  0  0  0  0
   70.9594   82.7906   88.8902 O   0  0  0  0  0  0  0  0  0  0  0  0
   71.6132   83.9524   87.0231 O   0  0  0  0  0  0  0  0  0  0  0  0
   71.3743   84.3871   86.2282 H   0  0  0  0  0  0  0  0  0  0  0  0
 18 19  1  0  0  0
 19 20  1  0  0  0
 19 15  1  0  0  0
 15 16  2  0  0  0
 15 17  2  0  0  0
 15 13  1  0  0  0
 13  7  1  0  0  0
  7  8  2  0  0  0
  8  9  1  0  0  0
  9 10  2  0  0  0
 10 11  1  0  0  0
 11  1  1  0  0  0
  1  2  2  0  0  0
  2  3  1  0  0  0
  3  4  2  0  0  0
  4  5  1  0  0  0
  5 21  1  0  0  0
 21 22  1  0  0  0
 22 23  1  0  0  0
 23 24  2  0  0  0
 24 25  1  0  0  0
 25 26  2  0  0  0
 26 27  1  0  0  0
 25 29  1  0  0  0
 29 30  2  0  0  0
 29 31  1  0  0  0
  5  6  2  0  0  0
 11 12  2  0  0  0
 12  7  1  0  0  0
  6  1  1  0  0  0
 13 14  1  0  0  0
 27 28  1  0  0  0
 31 32  1  0  0  0
M  END
> <score>
-0.561558

> <minimizedAffinity>
-8.17441

$$$$
HIPS6566


 32 33  0  0  0  0  0  0  0  0999 V2000
   67.5038   76.5761   88.9634 C   0  0  0  0  0  0  0  0  0  0  0  0
   67.2503   76.5868   87.5805 C   0  0  0  0  0  0  0  0  0  0  0  0
   66.9268   77.7806   86.9311 C   0  0  0  0  0  0  0  0  0  0  0  0
   66.8443   78.9740   87.6529 C   0  0  0  0  0  0  0  0  0  0  0  0
   67.0767   78.9800   89.0352 C   0  0  0  0  0  0  0  0  0  0  0  0
   67.4199   77.7830   89.6832 C   0  0  0  0  0  0  0  0  0  0  0  0
   68.9940   74.1398   91.4802 C   0  0  0  0  0  0  0  0  0  0  0  0
   68.4839   72.9258   90.9966 C   0  0  0  0  0  0  0  0  0  0  0  0
   67.6853   72.8967   89.8519 C   0  0  0  0  0  0  0  0  0  0  0  0
   67.3756   74.0811   89.1815 C   0  0  0  0  0  0  0  0  0  0  0  0
   67.8580   75.3117   89.6558 C   0  0  0  0  0  0  0  0  0  0  0  0
   68.6680   75.3314   90.8062 C   0  0  0  0  0  0  0  0  0  0  0  0
   69.8004   74.1309   92.6731 N   0  0  0  0  0  0  0  0  0  0  0  0
   70.7778   74.0974   92.5600 H   0  0  0  0  0  0  0  0  0  0  0  0
   69.1820   74.1745   94.2985 S   0  0  0  0  0  0  0  0  0  0  0  0
   69.5471   72.8842   94.9779 O   0  0  0  0  0  0  0  0  0  0  0  0
   69.8084   75.2976   95.0767 O   0  0  0  0  0  0  0  0  0  0  0  0
   66.7879   73.8212   95.6027 C   0  0  0  0  0  0  0  0  0  0  0  0
   67.3944   74.3342   94.2961 C   0  0  0  0  0  0  0  0  0  0  0  0
   66.9947   75.7911   94.0547 C   0  0  0  0  0  0  0  0  0  0  0  0
   67.0195   80.2692   89.8019 C   0  0  0  0  0  0  0  0  0  0  0  0
   68.3307   80.6307   90.2133 O   0  0  0  0  0  0  0  0  0  0  0  0
   69.0913   81.5519   89.4942 C   0  0  0  0  0  0  0  0  0  0  0  0
   68.4890   82.3811   88.6383 C   0  0  0  0  0  0  0  0  0  0  0  0
   69.2160   83.3824   87.8146 C   0  0  0  0  0  0  0  0  0  0  0  0
   70.5588   83.3064   87.7597 C   0  0  0  0  0  0  0  0  0  0  0  0
   71.3438   84.1334   86.9532 O   0  0  0  0  0  0  0  0  0  0  0  0
   70.9383   84.7829   86.4131 H   0  0  0  0  0  0  0  0  0  0  0  0
   68.4786   84.4263   87.0704 C   0  0  0  0  0  0  0  0  0  0  0  0
   68.9830   85.5719   86.9247 O   0  0  0  0  0  0  0  0  0  0  0  0
   67.2406   84.1411   86.5006 O   0  0  0  0  0  0  0  0  0  0  0  0
   66.8611   83.2909   86.6060 H   0  0  0  0  0  0  0  0  0  0  0  0
 18 19  1  0  0  0
 19 20  1  0  0  0
 19 15  1  0  0  0
 15 16  2  0  0  0
 15 17  2  0  0  0
 15 13  1  0  0  0
 13  7  1  0  0  0
  7  8  2  0  0  0
  8  9  1  0  0  0
  9 10  2  0  0  0
 10 11  1  0  0  0
 11  1  1  0  0  0
  1  2  2  0  0  0
  2  3  1  0  0  0
  3  4  2  0  0  0
  4  5  1  0  0  0
  5 21  1  0  0  0
 21 22  1  0  0  0
 22 23  1  0  0  0
 23 24  2  0  0  0
 24 25  1  0  0  0
 25 26  2  0  0  0
 26 27  1  0  0  0
 25 29  1  0  0  0
 29 30  2  0  0  0
 29 31  1  0  0  0
  5  6  2  0  0  0
 11 12  2  0  0  0
 12  7  1  0  0  0
  6  1  1  0  0  0
 13 14  1  0  0  0
 27 28  1  0  0  0
 31 32  1  0  0  0
M  END
> <score>
-0.561558

> <minimizedAffinity>
-8.06522

$$$$
HIPS6566


 32 33  0  0  0  0  0  0  0  0999 V2000
   68.4875   77.4469   90.2439 C   0  0  0  0  0  0  0  0  0  0  0  0
   67.3040   78.1523   89.9636 C   0  0  0  0  0  0  0  0  0  0  0  0
   67.3404   79.5298   89.7342 C   0  0  0  0  0  0  0  0  0  0  0  0
   68.5536   80.2203   89.7898 C   0  0  0  0  0  0  0  0  0  0  0  0
   69.7415   79.5371   90.0849 C   0  0  0  0  0  0  0  0  0  0  0  0
   69.7060   78.1498   90.2967 C   0  0  0  0  0  0  0  0  0  0  0  0
   69.0042   74.0439   91.8697 C   0  0  0  0  0  0  0  0  0  0  0  0
   68.3469   73.2156   90.9478 C   0  0  0  0  0  0  0  0  0  0  0  0
   67.7640   73.7538   89.7991 C   0  0  0  0  0  0  0  0  0  0  0  0
   67.8195   75.1280   89.5615 C   0  0  0  0  0  0  0  0  0  0  0  0
   68.4550   75.9814   90.4780 C   0  0  0  0  0  0  0  0  0  0  0  0
   69.0460   75.4299   91.6297 C   0  0  0  0  0  0  0  0  0  0  0  0
   69.5787   73.4535   93.0506 N   0  0  0  0  0  0  0  0  0  0  0  0
   70.2705   72.7648   92.9232 H   0  0  0  0  0  0  0  0  0  0  0  0
   69.1455   73.8626   94.6850 S   0  0  0  0  0  0  0  0  0  0  0  0
   69.6642   72.7846   95.5954 O   0  0  0  0  0  0  0  0  0  0  0  0
   69.7843   75.1594   95.0967 O   0  0  0  0  0  0  0  0  0  0  0  0
   66.9290   73.6043   96.2906 C   0  0  0  0  0  0  0  0  0  0  0  0
   67.3625   73.9565   94.8672 C   0  0  0  0  0  0  0  0  0  0  0  0
   66.8654   75.3520   94.4848 C   0  0  0  0  0  0  0  0  0  0  0  0
   71.0476   80.2761   90.1114 C   0  0  0  0  0  0  0  0  0  0  0  0
   70.8237   81.6125   90.5394 O   0  0  0  0  0  0  0  0  0  0  0  0
   71.1716   82.7009   89.7402 C   0  0  0  0  0  0  0  0  0  0  0  0
   70.3937   83.0387   88.7089 C   0  0  0  0  0  0  0  0  0  0  0  0
   70.6913   84.1691   87.7906 C   0  0  0  0  0  0  0  0  0  0  0  0
   69.8789   84.3616   86.7348 C   0  0  0  0  0  0  0  0  0  0  0  0
   70.0042   85.4383   85.8540 O   0  0  0  0  0  0  0  0  0  0  0  0
   70.6810   86.0732   85.9834 H   0  0  0  0  0  0  0  0  0  0  0  0
   71.8449   85.0604   88.0398 C   0  0  0  0  0  0  0  0  0  0  0  0
   71.6538   86.2589   88.3791 O   0  0  0  0  0  0  0  0  0  0  0  0
   73.1450   84.5737   87.9324 O   0  0  0  0  0  0  0  0  0  0  0  0
   73.2926   83.6834   87.6805 H   0  0  0  0  0  0  0  0  0  0  0  0
 18 19  1  0  0  0
 19 20  1  0  0  0
 19 15  1  0  0  0
 15 16  2  0  0  0
 15 17  2  0  0  0
 15 13  1  0  0  0
 13  7  1  0  0  0
  7  8  2  0  0  0
  8  9  1  0  0  0
  9 10  2  0  0  0
 10 11  1  0  0  0
 11  1  1  0  0  0
  1  2  2  0  0  0
  2  3  1  0  0  0
  3  4  2  0  0  0
  4  5  1  0  0  0
  5 21  1  0  0  0
 21 22  1  0  0  0
 22 23  1  0  0  0
 23 24  2  0  0  0
 24 25  1  0  0  0
 25 26  2  0  0  0
 26 27  1  0  0  0
 25 29  1  0  0  0
 29 30  2  0  0  0
 29 31  1  0  0  0
  5  6  2  0  0  0
 11 12  2  0  0  0
 12  7  1  0  0  0
  6  1  1  0  0  0
 13 14  1  0  0  0
 27 28  1  0  0  0
 31 32  1  0  0  0
M  END
> <score>
-0.561558

> <minimizedAffinity>
-7.84194

$$$$
HIPS6568


 20 21  0  0  0  0  0  0  0  0999 V2000
   68.3272   74.3232   94.7211 C   0  0  0  0  0  0  0  0  0  0  0  0
   68.5319   75.3921   93.8302 C   0  0  0  0  0  0  0  0  0  0  0  0
   67.4862   76.2505   93.4751 C   0  0  0  0  0  0  0  0  0  0  0  0
   66.2086   76.0355   94.0188 C   0  0  0  0  0  0  0  0  0  0  0  0
   65.9957   74.9922   94.9201 C   0  0  0  0  0  0  0  0  0  0  0  0
   67.0439   74.1459   95.2962 C   0  0  0  0  0  0  0  0  0  0  0  0
   66.7774   73.1724   96.2616 O   0  0  0  0  0  0  0  0  0  0  0  0
   65.9143   73.0885   96.6165 H   0  0  0  0  0  0  0  0  0  0  0  0
   69.4877   72.7122   96.0414 O   0  0  0  0  0  0  0  0  0  0  0  0
   69.4600   73.4110   94.9932 C   0  0  0  0  0  0  0  0  0  0  0  0
   70.4793   73.2732   94.0546 O   0  0  0  0  0  0  0  0  0  0  0  0
   70.4681   73.7881   93.2719 H   0  0  0  0  0  0  0  0  0  0  0  0
   67.7610   77.2947   92.5765 O   0  0  0  0  0  0  0  0  0  0  0  0
   68.6820   77.2248   91.4879 C   0  0  0  0  0  0  0  0  0  0  0  0
   68.0533   76.5633   90.3009 C   0  0  0  0  0  0  0  0  0  0  0  0
   67.8551   75.1982   90.1386 C   0  0  0  0  0  0  0  0  0  0  0  0
   67.1993   74.8803   88.9436 C   0  0  0  0  0  0  0  0  0  0  0  0
   66.7888   73.0909   88.4270 Br  0  0  0  0  0  0  0  0  0  0  0  0
   66.8678   75.9861   88.1710 C   0  0  0  0  0  0  0  0  0  0  0  0
   67.3920   77.3650   88.9789 S   0  0  0  0  0  0  0  0  0  0  0  0
  9 10  2  0  0  0
 10 11  1  0  0  0
 10  1  1  0  0  0
  1  2  2  0  0  0
  2  3  1  0  0  0
  3 13  1  0  0  0
 13 14  1  0  0  0
 14 15  1  0  0  0
 15 16  2  0  0  0
 16 17  1  0  0  0
 17 18  1  0  0  0
 17 19  2  0  0  0
 19 20  1  0  0  0
  3  4  2  0  0  0
  4  5  1  0  0  0
  5  6  2  0  0  0
  6  7  1  0  0  0
  6  1  1  0  0  0
 20 15  1  0  0  0
 11 12  1  0  0  0
  7  8  1  0  0  0
M  END
> <score>
0.108263

> <minimizedAffinity>
-6.39414

$$$$
HIPS6568


 20 21  0  0  0  0  0  0  0  0999 V2000
   68.1648   74.1347   94.4962 C   0  0  0  0  0  0  0  0  0  0  0  0
   68.0585   75.0045   93.3961 C   0  0  0  0  0  0  0  0  0  0  0  0
   66.8680   75.6862   93.1232 C   0  0  0  0  0  0  0  0  0  0  0  0
   65.7596   75.4932   93.9647 C   0  0  0  0  0  0  0  0  0  0  0  0
   65.8569   74.6498   95.0717 C   0  0  0  0  0  0  0  0  0  0  0  0
   67.0527   73.9846   95.3619 C   0  0  0  0  0  0  0  0  0  0  0  0
   67.1023   73.2186   96.5288 O   0  0  0  0  0  0  0  0  0  0  0  0
   66.3437   73.1454   97.0738 H   0  0  0  0  0  0  0  0  0  0  0  0
   69.6393   72.7246   95.7304 O   0  0  0  0  0  0  0  0  0  0  0  0
   69.4299   73.3898   94.6809 C   0  0  0  0  0  0  0  0  0  0  0  0
   70.3773   73.3698   93.6606 O   0  0  0  0  0  0  0  0  0  0  0  0
   70.2313   73.8610   92.8760 H   0  0  0  0  0  0  0  0  0  0  0  0
   66.8313   76.5358   92.0051 O   0  0  0  0  0  0  0  0  0  0  0  0
   67.9741   77.0861   91.3498 C   0  0  0  0  0  0  0  0  0  0  0  0
   67.6297   77.5278   89.9613 C   0  0  0  0  0  0  0  0  0  0  0  0
   67.6438   76.7293   88.8249 C   0  0  0  0  0  0  0  0  0  0  0  0
   67.2281   77.4097   87.6745 C   0  0  0  0  0  0  0  0  0  0  0  0
   67.1457   76.5902   85.9544 Br  0  0  0  0  0  0  0  0  0  0  0  0
   66.8737   78.7339   87.8999 C   0  0  0  0  0  0  0  0  0  0  0  0
   67.0778   79.0587   89.5376 S   0  0  0  0  0  0  0  0  0  0  0  0
  9 10  2  0  0  0
 10 11  1  0  0  0
 10  1  1  0  0  0
  1  2  2  0  0  0
  2  3  1  0  0  0
  3 13  1  0  0  0
 13 14  1  0  0  0
 14 15  1  0  0  0
 15 16  2  0  0  0
 16 17  1  0  0  0
 17 18  1  0  0  0
 17 19  2  0  0  0
 19 20  1  0  0  0
  3  4  2  0  0  0
  4  5  1  0  0  0
  5  6  2  0  0  0
  6  7  1  0  0  0
  6  1  1  0  0  0
 20 15  1  0  0  0
 11 12  1  0  0  0
  7  8  1  0  0  0
M  END
> <score>
0.108263

> <minimizedAffinity>
-6.27063

$$$$
HIPS6568


 20 21  0  0  0  0  0  0  0  0999 V2000
   68.1647   74.3113   94.6102 C   0  0  0  0  0  0  0  0  0  0  0  0
   68.0542   75.3804   93.7031 C   0  0  0  0  0  0  0  0  0  0  0  0
   66.8800   76.1348   93.6110 C   0  0  0  0  0  0  0  0  0  0  0  0
   65.7922   75.8134   94.4401 C   0  0  0  0  0  0  0  0  0  0  0  0
   65.8948   74.7691   95.3595 C   0  0  0  0  0  0  0  0  0  0  0  0
   67.0754   74.0273   95.4715 C   0  0  0  0  0  0  0  0  0  0  0  0
   67.1349   73.0487   96.4663 O   0  0  0  0  0  0  0  0  0  0  0  0
   66.3915   72.8924   97.0147 H   0  0  0  0  0  0  0  0  0  0  0  0
   70.2816   73.6848   93.7092 O   0  0  0  0  0  0  0  0  0  0  0  0
   69.4085   73.5099   94.6008 C   0  0  0  0  0  0  0  0  0  0  0  0
   69.6500   72.5938   95.6213 O   0  0  0  0  0  0  0  0  0  0  0  0
   69.0073   72.4562   96.2891 H   0  0  0  0  0  0  0  0  0  0  0  0
   66.8378   77.1856   92.6796 O   0  0  0  0  0  0  0  0  0  0  0  0
   67.0714   77.0544   91.2773 C   0  0  0  0  0  0  0  0  0  0  0  0
   68.3203   77.7762   90.8763 C   0  0  0  0  0  0  0  0  0  0  0  0
   69.5997   77.2364   90.8457 C   0  0  0  0  0  0  0  0  0  0  0  0
   70.5626   78.1405   90.3826 C   0  0  0  0  0  0  0  0  0  0  0  0
   72.4128   77.7027   90.2321 Br  0  0  0  0  0  0  0  0  0  0  0  0
   70.0482   79.3833   90.0353 C   0  0  0  0  0  0  0  0  0  0  0  0
   68.3882   79.3563   90.3049 S   0  0  0  0  0  0  0  0  0  0  0  0
  9 10  2  0  0  0
 10 11  1  0  0  0
 10  1  1  0  0  0
  1  2  2  0  0  0
  2  3  1  0  0  0
  3 13  1  0  0  0
 13 14  1  0  0  0
 14 15  1  0  0  0
 15 16  2  0  0  0
 16 17  1  0  0  0
 17 18  1  0  0  0
 17 19  2  0  0  0
 19 20  1  0  0  0
  3  4  2  0  0  0
  4  5  1  0  0  0
  5  6  2  0  0  0
  6  7  1  0  0  0
  6  1  1  0  0  0
 20 15  1  0  0  0
 11 12  1  0  0  0
  7  8  1  0  0  0
M  END
> <score>
0.108263

> <minimizedAffinity>
-6.13712

$$$$
HIPS6569


 20 21  0  0  0  0  0  0  0  0999 V2000
   69.1552   73.1446   91.8181 C   0  0  0  0  0  0  0  0  0  0  0  0
   68.2264   72.5165   90.9687 C   0  0  0  0  0  0  0  0  0  0  0  0
   67.5777   73.2361   89.9476 C   0  0  0  0  0  0  0  0  0  0  0  0
   67.8745   74.5894   89.7750 C   0  0  0  0  0  0  0  0  0  0  0  0
   68.7814   75.2295   90.6195 C   0  0  0  0  0  0  0  0  0  0  0  0
   69.4088   74.5297   91.6553 C   0  0  0  0  0  0  0  0  0  0  0  0
   70.2428   75.2502   92.5133 O   0  0  0  0  0  0  0  0  0  0  0  0
   70.3840   76.1653   92.3702 H   0  0  0  0  0  0  0  0  0  0  0  0
   70.7879   72.7969   93.5208 O   0  0  0  0  0  0  0  0  0  0  0  0
   69.8498   72.3175   92.8296 C   0  0  0  0  0  0  0  0  0  0  0  0
   69.5074   70.9762   92.9806 O   0  0  0  0  0  0  0  0  0  0  0  0
   68.8113   70.6102   92.4713 H   0  0  0  0  0  0  0  0  0  0  0  0
   66.6400   72.6478   89.0825 O   0  0  0  0  0  0  0  0  0  0  0  0
   66.4699   72.9750   87.7034 C   0  0  0  0  0  0  0  0  0  0  0  0
   67.0624   71.9112   86.8322 C   0  0  0  0  0  0  0  0  0  0  0  0
   67.7266   70.7733   87.2708 C   0  0  0  0  0  0  0  0  0  0  0  0
   68.1786   69.9664   86.2203 C   0  0  0  0  0  0  0  0  0  0  0  0
   69.1164   68.3290   86.4967 Br  0  0  0  0  0  0  0  0  0  0  0  0
   67.8827   70.4655   84.9581 C   0  0  0  0  0  0  0  0  0  0  0  0
   67.0535   71.9164   85.1503 S   0  0  0  0  0  0  0  0  0  0  0  0
  9 10  2  0  0  0
 10 11  1  0  0  0
 10  1  1  0  0  0
  1  2  2  0  0  0
  2  3  1  0  0  0
  3 13  1  0  0  0
 13 14  1  0  0  0
 14 15  1  0  0  0
 15 16  2  0  0  0
 16 17  1  0  0  0
 17 18  1  0  0  0
 17 19  2  0  0  0
 19 20  1  0  0  0
  3  4  2  0  0  0
  4  5  1  0  0  0
  5  6  2  0  0  0
  6  7  1  0  0  0
  6  1  1  0  0  0
 20 15  1  0  0  0
 11 12  1  0  0  0
  7  8  1  0  0  0
M  END
> <score>
0.67348

> <minimizedAffinity>
-6.56311

$$$$
HIPS6569


 20 21  0  0  0  0  0  0  0  0999 V2000
   68.1855   74.3141   94.6105 C   0  0  0  0  0  0  0  0  0  0  0  0
   68.3130   75.3202   93.6356 C   0  0  0  0  0  0  0  0  0  0  0  0
   67.2644   76.2262   93.3895 C   0  0  0  0  0  0  0  0  0  0  0  0
   66.0887   76.1252   94.1357 C   0  0  0  0  0  0  0  0  0  0  0  0
   65.9418   75.1231   95.0947 C   0  0  0  0  0  0  0  0  0  0  0  0
   66.9670   74.2001   95.3257 C   0  0  0  0  0  0  0  0  0  0  0  0
   66.7226   73.1742   96.2413 O   0  0  0  0  0  0  0  0  0  0  0  0
   65.9028   73.1352   96.6935 H   0  0  0  0  0  0  0  0  0  0  0  0
   69.4321   72.7697   95.9320 O   0  0  0  0  0  0  0  0  0  0  0  0
   69.3480   73.4347   94.8651 C   0  0  0  0  0  0  0  0  0  0  0  0
   70.3928   73.3848   93.9458 O   0  0  0  0  0  0  0  0  0  0  0  0
   70.3400   73.8756   93.1495 H   0  0  0  0  0  0  0  0  0  0  0  0
   67.3496   77.2408   92.4213 O   0  0  0  0  0  0  0  0  0  0  0  0
   68.3224   77.3074   91.3786 C   0  0  0  0  0  0  0  0  0  0  0  0
   67.8151   76.6353   90.1406 C   0  0  0  0  0  0  0  0  0  0  0  0
   67.5775   75.2755   89.9892 C   0  0  0  0  0  0  0  0  0  0  0  0
   67.1138   74.9416   88.7114 C   0  0  0  0  0  0  0  0  0  0  0  0
   66.6859   73.1565   88.1947 Br  0  0  0  0  0  0  0  0  0  0  0  0
   66.9934   76.0275   87.8536 C   0  0  0  0  0  0  0  0  0  0  0  0
   67.4643   77.4094   88.6892 S   0  0  0  0  0  0  0  0  0  0  0  0
  9 10  2  0  0  0
 10 11  1  0  0  0
 10  1  1  0  0  0
  1  2  2  0  0  0
  2  3  1  0  0  0
  3 13  1  0  0  0
 13 14  1  0  0  0
 14 15  1  0  0  0
 15 16  2  0  0  0
 16 17  1  0  0  0
 17 18  1  0  0  0
 17 19  2  0  0  0
 19 20  1  0  0  0
  3  4  2  0  0  0
  4  5  1  0  0  0
  5  6  2  0  0  0
  6  7  1  0  0  0
  6  1  1  0  0  0
 20 15  1  0  0  0
 11 12  1  0  0  0
  7  8  1  0  0  0
M  END
> <score>
0.67348

> <minimizedAffinity>
-6.28455

$$$$
HIPS6569


 20 21  0  0  0  0  0  0  0  0999 V2000
   68.1056   74.1949   94.4281 C   0  0  0  0  0  0  0  0  0  0  0  0
   68.0464   75.0439   93.3081 C   0  0  0  0  0  0  0  0  0  0  0  0
   66.9146   75.8450   93.0664 C   0  0  0  0  0  0  0  0  0  0  0  0
   65.8445   75.7988   93.9620 C   0  0  0  0  0  0  0  0  0  0  0  0
   65.8823   74.9502   95.0683 C   0  0  0  0  0  0  0  0  0  0  0  0
   66.9904   74.1289   95.3006 C   0  0  0  0  0  0  0  0  0  0  0  0
   66.9281   73.2450   96.3802 O   0  0  0  0  0  0  0  0  0  0  0  0
   66.1718   73.2333   96.9331 H   0  0  0  0  0  0  0  0  0  0  0  0
   69.5441   72.8296   95.7518 O   0  0  0  0  0  0  0  0  0  0  0  0
   69.3493   73.4274   94.6599 C   0  0  0  0  0  0  0  0  0  0  0  0
   70.3453   73.4130   93.6869 O   0  0  0  0  0  0  0  0  0  0  0  0
   70.2103   73.8546   92.8716 H   0  0  0  0  0  0  0  0  0  0  0  0
   66.8137   76.7012   91.9570 O   0  0  0  0  0  0  0  0  0  0  0  0
   67.9160   77.2636   91.2451 C   0  0  0  0  0  0  0  0  0  0  0  0
   67.5116   77.6292   89.8507 C   0  0  0  0  0  0  0  0  0  0  0  0
   67.6124   76.8136   88.7313 C   0  0  0  0  0  0  0  0  0  0  0  0
   67.1628   77.4355   87.5608 C   0  0  0  0  0  0  0  0  0  0  0  0
   67.1619   76.5729   85.8600 Br  0  0  0  0  0  0  0  0  0  0  0  0
   66.7174   78.7377   87.7494 C   0  0  0  0  0  0  0  0  0  0  0  0
   66.8821   79.1162   89.3801 S   0  0  0  0  0  0  0  0  0  0  0  0
  9 10  2  0  0  0
 10 11  1  0  0  0
 10  1  1  0  0  0
  1  2  2  0  0  0
  2  3  1  0  0  0
  3 13  1  0  0  0
 13 14  1  0  0  0
 14 15  1  0  0  0
 15 16  2  0  0  0
 16 17  1  0  0  0
 17 18  1  0  0  0
 17 19  2  0  0  0
 19 20  1  0  0  0
  3  4  2  0  0  0
  4  5  1  0  0  0
  5  6  2  0  0  0
  6  7  1  0  0  0
  6  1  1  0  0  0
 20 15  1  0  0  0
 11 12  1  0  0  0
  7  8  1  0  0  0
M  END
> <score>
0.67348

> <minimizedAffinity>
-6.28296

$$$$
HIPS6701


 31 33  0  0  0  0  0  0  0  0999 V2000
   71.0845   78.0942   90.9063 C   0  0  0  0  0  0  0  0  0  0  0  0
   71.8334   77.6125   91.9163 N   0  0  0  0  0  0  0  0  0  0  0  0
   71.2412   76.4952   92.3081 N   0  0  0  0  0  0  0  0  0  0  0  0
   70.1568   76.3400   91.5208 C   0  0  0  0  0  0  0  0  0  0  0  0
   70.0565   77.3220   90.6553 O   0  0  0  0  0  0  0  0  0  0  0  0
   69.2074   75.2138   91.6182 C   0  0  0  0  0  0  0  0  0  0  0  0
   68.6911   74.6117   90.4596 C   0  0  0  0  0  0  0  0  0  0  0  0
   67.7931   73.5470   90.5605 C   0  0  0  0  0  0  0  0  0  0  0  0
   67.4012   73.0729   91.8146 C   0  0  0  0  0  0  0  0  0  0  0  0
   67.9091   73.6657   92.9866 C   0  0  0  0  0  0  0  0  0  0  0  0
   68.8101   74.7329   92.8770 C   0  0  0  0  0  0  0  0  0  0  0  0
   67.5499   73.2321   94.2733 O   0  0  0  0  0  0  0  0  0  0  0  0
   66.6061   73.8759   95.1264 C   0  0  0  0  0  0  0  0  0  0  0  0
   66.5288   73.2131   96.3383 F   0  0  0  0  0  0  0  0  0  0  0  0
   65.3637   73.8466   94.5230 F   0  0  0  0  0  0  0  0  0  0  0  0
   66.9709   75.1944   95.3320 F   0  0  0  0  0  0  0  0  0  0  0  0
   69.3325   80.3521   90.6282 O   0  0  0  0  0  0  0  0  0  0  0  0
   70.5074   80.4472   90.1785 C   0  0  0  0  0  0  0  0  0  0  0  0
   71.3693   79.2958   90.1793 N   0  0  0  0  0  0  0  0  0  0  0  0
   72.1997   79.3353   89.6519 H   0  0  0  0  0  0  0  0  0  0  0  0
   70.9682   81.7451   89.6272 C   0  0  0  0  0  0  0  0  0  0  0  0
   72.2462   82.2325   89.9513 C   0  0  0  0  0  0  0  0  0  0  0  0
   72.6914   83.4504   89.4337 C   0  0  0  0  0  0  0  0  0  0  0  0
   71.8732   84.1942   88.5816 C   0  0  0  0  0  0  0  0  0  0  0  0
   70.5954   83.7180   88.2335 C   0  0  0  0  0  0  0  0  0  0  0  0
   70.1548   82.4955   88.7573 C   0  0  0  0  0  0  0  0  0  0  0  0
   69.7339   84.4180   87.3731 O   0  0  0  0  0  0  0  0  0  0  0  0
   68.9079   85.5179   87.7491 C   0  0  0  0  0  0  0  0  0  0  0  0
   67.5939   85.2705   87.3943 F   0  0  0  0  0  0  0  0  0  0  0  0
   68.9758   85.6815   89.1190 F   0  0  0  0  0  0  0  0  0  0  0  0
   69.3512   86.6777   87.1390 F   0  0  0  0  0  0  0  0  0  0  0  0
 17 18  2  0  0  0
 18 19  1  0  0  0
 19  1  1  0  0  0
  1  2  2  0  0  0
  2  3  1  0  0  0
  3  4  2  0  0  0
  4  6  1  0  0  0
  6  7  2  0  0  0
  7  8  1  0  0  0
  8  9  2  0  0  0
  9 10  1  0  0  0
 10 12  1  0  0  0
 12 13  1  0  0  0
 13 14  1  0  0  0
 13 15  1  0  0  0
 13 16  1  0  0  0
 10 11  2  0  0  0
  4  5  1  0  0  0
 18 21  1  0  0  0
 21 22  2  0  0  0
 22 23  1  0  0  0
 23 24  2  0  0  0
 24 25  1  0  0  0
 25 27  1  0  0  0
 27 28  1  0  0  0
 28 29  1  0  0  0
 28 30  1  0  0  0
 28 31  1  0  0  0
 25 26  2  0  0  0
  5  1  1  0  0  0
 26 21  1  0  0  0
 11  6  1  0  0  0
 19 20  1  0  0  0
M  END
> <score>
-0.247372

> <minimizedAffinity>
-9.29463

$$$$
HIPS6701


 31 33  0  0  0  0  0  0  0  0999 V2000
   70.3758   77.9076   90.6309 C   0  0  0  0  0  0  0  0  0  0  0  0
   71.4675   77.6309   91.3689 N   0  0  0  0  0  0  0  0  0  0  0  0
   71.2295   76.4646   91.9482 N   0  0  0  0  0  0  0  0  0  0  0  0
   70.0040   76.0767   91.5392 C   0  0  0  0  0  0  0  0  0  0  0  0
   69.4745   76.9618   90.7271 O   0  0  0  0  0  0  0  0  0  0  0  0
   69.3443   74.8215   91.9497 C   0  0  0  0  0  0  0  0  0  0  0  0
   69.0146   73.8428   90.9984 C   0  0  0  0  0  0  0  0  0  0  0  0
   68.3903   72.6582   91.3950 C   0  0  0  0  0  0  0  0  0  0  0  0
   68.0885   72.4379   92.7409 C   0  0  0  0  0  0  0  0  0  0  0  0
   68.4118   73.4093   93.7078 C   0  0  0  0  0  0  0  0  0  0  0  0
   69.0387   74.5946   93.3020 C   0  0  0  0  0  0  0  0  0  0  0  0
   68.1314   73.2428   95.0738 O   0  0  0  0  0  0  0  0  0  0  0  0
   67.0245   73.8185   95.7642 C   0  0  0  0  0  0  0  0  0  0  0  0
   67.2608   75.1592   96.0102 F   0  0  0  0  0  0  0  0  0  0  0  0
   66.8608   73.1665   96.9710 F   0  0  0  0  0  0  0  0  0  0  0  0
   65.8688   73.6721   95.0180 F   0  0  0  0  0  0  0  0  0  0  0  0
   68.2324   79.8067   90.8417 O   0  0  0  0  0  0  0  0  0  0  0  0
   69.1872   80.0661   90.0590 C   0  0  0  0  0  0  0  0  0  0  0  0
   70.2097   79.0817   89.8264 N   0  0  0  0  0  0  0  0  0  0  0  0
   70.8288   79.2221   89.0739 H   0  0  0  0  0  0  0  0  0  0  0  0
   69.2196   81.3782   89.3673 C   0  0  0  0  0  0  0  0  0  0  0  0
   68.2057   81.7168   88.4545 C   0  0  0  0  0  0  0  0  0  0  0  0
   68.2241   82.9510   87.8020 C   0  0  0  0  0  0  0  0  0  0  0  0
   69.2474   83.8660   88.0556 C   0  0  0  0  0  0  0  0  0  0  0  0
   70.2649   83.5526   88.9760 C   0  0  0  0  0  0  0  0  0  0  0  0
   70.2407   82.3118   89.6264 C   0  0  0  0  0  0  0  0  0  0  0  0
   71.3129   84.4374   89.2781 O   0  0  0  0  0  0  0  0  0  0  0  0
   72.5753   84.4771   88.6162 C   0  0  0  0  0  0  0  0  0  0  0  0
   73.0462   85.7768   88.5652 F   0  0  0  0  0  0  0  0  0  0  0  0
   73.4763   83.7045   89.3228 F   0  0  0  0  0  0  0  0  0  0  0  0
   72.4585   83.9669   87.3355 F   0  0  0  0  0  0  0  0  0  0  0  0
 17 18  2  0  0  0
 18 19  1  0  0  0
 19  1  1  0  0  0
  1  2  2  0  0  0
  2  3  1  0  0  0
  3  4  2  0  0  0
  4  6  1  0  0  0
  6  7  2  0  0  0
  7  8  1  0  0  0
  8  9  2  0  0  0
  9 10  1  0  0  0
 10 12  1  0  0  0
 12 13  1  0  0  0
 13 14  1  0  0  0
 13 15  1  0  0  0
 13 16  1  0  0  0
 10 11  2  0  0  0
  4  5  1  0  0  0
 18 21  1  0  0  0
 21 22  2  0  0  0
 22 23  1  0  0  0
 23 24  2  0  0  0
 24 25  1  0  0  0
 25 27  1  0  0  0
 27 28  1  0  0  0
 28 29  1  0  0  0
 28 30  1  0  0  0
 28 31  1  0  0  0
 25 26  2  0  0  0
  5  1  1  0  0  0
 26 21  1  0  0  0
 11  6  1  0  0  0
 19 20  1  0  0  0
M  END
> <score>
-0.247372

> <minimizedAffinity>
-8.87094

$$$$
HIPS6701


 31 33  0  0  0  0  0  0  0  0999 V2000
   67.3356   79.2312   89.0346 C   0  0  0  0  0  0  0  0  0  0  0  0
   66.3043   79.4625   88.2003 N   0  0  0  0  0  0  0  0  0  0  0  0
   66.5207   80.6590   87.6768 N   0  0  0  0  0  0  0  0  0  0  0  0
   67.6750   81.1080   88.2112 C   0  0  0  0  0  0  0  0  0  0  0  0
   68.1811   80.2317   89.0476 O   0  0  0  0  0  0  0  0  0  0  0  0
   68.2898   82.4128   87.8971 C   0  0  0  0  0  0  0  0  0  0  0  0
   67.7375   83.2442   86.9096 C   0  0  0  0  0  0  0  0  0  0  0  0
   68.3255   84.4770   86.6183 C   0  0  0  0  0  0  0  0  0  0  0  0
   69.4677   84.8925   87.3067 C   0  0  0  0  0  0  0  0  0  0  0  0
   70.0347   84.0706   88.2996 C   0  0  0  0  0  0  0  0  0  0  0  0
   69.4385   82.8357   88.5866 C   0  0  0  0  0  0  0  0  0  0  0  0
   71.1822   84.4356   89.0225 O   0  0  0  0  0  0  0  0  0  0  0  0
   72.4930   84.5663   88.4769 C   0  0  0  0  0  0  0  0  0  0  0  0
   72.5797   83.8857   87.2756 F   0  0  0  0  0  0  0  0  0  0  0  0
   73.4033   84.0233   89.3629 F   0  0  0  0  0  0  0  0  0  0  0  0
   72.7990   85.9018   88.2859 F   0  0  0  0  0  0  0  0  0  0  0  0
   67.5135   76.5579   88.0019 O   0  0  0  0  0  0  0  0  0  0  0  0
   67.7173   76.7385   89.2338 C   0  0  0  0  0  0  0  0  0  0  0  0
   67.5066   78.0389   89.8109 N   0  0  0  0  0  0  0  0  0  0  0  0
   67.4783   78.1140   90.7921 H   0  0  0  0  0  0  0  0  0  0  0  0
   68.1437   75.5913   90.0723 C   0  0  0  0  0  0  0  0  0  0  0  0
   67.8562   74.2772   89.6644 C   0  0  0  0  0  0  0  0  0  0  0  0
   68.2574   73.1905   90.4438 C   0  0  0  0  0  0  0  0  0  0  0  0
   68.9560   73.3981   91.6345 C   0  0  0  0  0  0  0  0  0  0  0  0
   69.2659   74.7051   92.0545 C   0  0  0  0  0  0  0  0  0  0  0  0
   68.8594   75.7909   91.2679 C   0  0  0  0  0  0  0  0  0  0  0  0
   69.9747   74.9735   93.2369 O   0  0  0  0  0  0  0  0  0  0  0  0
   69.3870   75.2236   94.5118 C   0  0  0  0  0  0  0  0  0  0  0  0
   69.7590   74.2393   95.4097 F   0  0  0  0  0  0  0  0  0  0  0  0
   69.8334   76.4444   94.9792 F   0  0  0  0  0  0  0  0  0  0  0  0
   68.0086   75.2654   94.4016 F   0  0  0  0  0  0  0  0  0  0  0  0
 17 18  2  0  0  0
 18 19  1  0  0  0
 19  1  1  0  0  0
  1  2  2  0  0  0
  2  3  1  0  0  0
  3  4  2  0  0  0
  4  6  1  0  0  0
  6  7  2  0  0  0
  7  8  1  0  0  0
  8  9  2  0  0  0
  9 10  1  0  0  0
 10 12  1  0  0  0
 12 13  1  0  0  0
 13 14  1  0  0  0
 13 15  1  0  0  0
 13 16  1  0  0  0
 10 11  2  0  0  0
  4  5  1  0  0  0
 18 21  1  0  0  0
 21 22  2  0  0  0
 22 23  1  0  0  0
 23 24  2  0  0  0
 24 25  1  0  0  0
 25 27  1  0  0  0
 27 28  1  0  0  0
 28 29  1  0  0  0
 28 30  1  0  0  0
 28 31  1  0  0  0
 25 26  2  0  0  0
  5  1  1  0  0  0
 26 21  1  0  0  0
 11  6  1  0  0  0
 19 20  1  0  0  0
M  END
> <score>
-0.247372

> <minimizedAffinity>
-8.68251

$$$$
HIPS6705


 26 27  0  0  0  0  0  0  0  0999 V2000
   70.0888   77.8480   89.9294 O   0  0  0  0  0  0  0  0  0  0  0  0
   70.9452   78.1442   90.8056 C   0  0  0  0  0  0  0  0  0  0  0  0
   71.4654   79.4810   90.8978 N   0  0  0  0  0  0  0  0  0  0  0  0
   72.0452   79.7038   91.6616 H   0  0  0  0  0  0  0  0  0  0  0  0
   71.1899   80.4885   89.9541 N   0  0  0  0  0  0  0  0  0  0  0  0
   71.4372   81.7475   90.1539 C   0  0  0  0  0  0  0  0  0  0  0  0
   71.1457   82.7648   89.1193 C   0  0  0  0  0  0  0  0  0  0  0  0
   69.8747   82.7713   88.5198 C   0  0  0  0  0  0  0  0  0  0  0  0
   69.5557   83.7146   87.5392 C   0  0  0  0  0  0  0  0  0  0  0  0
   70.4997   84.6651   87.1437 C   0  0  0  0  0  0  0  0  0  0  0  0
   70.1675   85.5992   86.1650 O   0  0  0  0  0  0  0  0  0  0  0  0
   71.7693   84.6699   87.7343 C   0  0  0  0  0  0  0  0  0  0  0  0
   72.0963   83.7286   88.7166 C   0  0  0  0  0  0  0  0  0  0  0  0
   73.3364   83.7687   89.2665 F   0  0  0  0  0  0  0  0  0  0  0  0
   69.3151   85.5873   85.7762 H   0  0  0  0  0  0  0  0  0  0  0  0
   71.4126   77.0852   91.7596 C   0  0  0  0  0  0  0  0  0  0  0  0
   70.6512   75.8882   91.5996 O   0  0  0  0  0  0  0  0  0  0  0  0
   69.6852   75.4137   92.5023 C   0  0  0  0  0  0  0  0  0  0  0  0
   69.3993   76.0601   93.7194 C   0  0  0  0  0  0  0  0  0  0  0  0
   68.4255   75.5457   94.5807 C   0  0  0  0  0  0  0  0  0  0  0  0
   67.7206   74.3769   94.2461 C   0  0  0  0  0  0  0  0  0  0  0  0
   68.0121   73.7328   93.0304 C   0  0  0  0  0  0  0  0  0  0  0  0
   68.9858   74.2486   92.1706 C   0  0  0  0  0  0  0  0  0  0  0  0
   66.7186   73.8506   95.1353 N   0  0  0  0  0  0  0  0  0  0  0  0
   65.5068   73.9208   94.8424 O   0  0  0  0  0  0  0  0  0  0  0  0
   67.0797   73.2608   96.3251 O   0  0  0  0  0  0  0  0  0  0  0  0
  1  2  2  0  0  0
  2 16  1  0  0  0
 16 17  1  0  0  0
 17 18  1  0  0  0
 18 19  2  0  0  0
 19 20  1  0  0  0
 20 21  2  0  0  0
 21 24  1  0  0  0
 24 25  2  0  0  0
 24 26  1  0  0  0
 21 22  1  0  0  0
 22 23  2  0  0  0
  2  3  1  0  0  0
  3  5  1  0  0  0
  5  6  2  0  0  0
  6  7  1  0  0  0
  7  8  2  0  0  0
  8  9  1  0  0  0
  9 10  2  0  0  0
 10 11  1  0  0  0
 10 12  1  0  0  0
 12 13  2  0  0  0
 13 14  1  0  0  0
 23 18  1  0  0  0
 13  7  1  0  0  0
  3  4  1  0  0  0
 11 15  1  0  0  0
M  CHG 1  24   1
M  CHG 1  26  -1
M  END
> <score>
0.467977

> <minimizedAffinity>
-7.27784

$$$$
HIPS6705


 26 27  0  0  0  0  0  0  0  0999 V2000
   67.7633   77.4441   87.2679 O   0  0  0  0  0  0  0  0  0  0  0  0
   67.0663   77.6829   88.2906 C   0  0  0  0  0  0  0  0  0  0  0  0
   66.8456   79.0348   88.7264 N   0  0  0  0  0  0  0  0  0  0  0  0
   66.2066   79.1899   89.4591 H   0  0  0  0  0  0  0  0  0  0  0  0
   67.4946   80.1488   88.1611 N   0  0  0  0  0  0  0  0  0  0  0  0
   67.5324   81.3195   88.7216 C   0  0  0  0  0  0  0  0  0  0  0  0
   68.2461   82.4532   88.0931 C   0  0  0  0  0  0  0  0  0  0  0  0
   67.5404   83.2868   87.2087 C   0  0  0  0  0  0  0  0  0  0  0  0
   68.1743   84.3698   86.5935 C   0  0  0  0  0  0  0  0  0  0  0  0
   69.5206   84.6368   86.8524 C   0  0  0  0  0  0  0  0  0  0  0  0
   70.1392   85.7198   86.2317 O   0  0  0  0  0  0  0  0  0  0  0  0
   70.2346   83.8144   87.7325 C   0  0  0  0  0  0  0  0  0  0  0  0
   69.6070   82.7282   88.3523 C   0  0  0  0  0  0  0  0  0  0  0  0
   70.3330   81.9571   89.2010 F   0  0  0  0  0  0  0  0  0  0  0  0
   69.6524   86.2639   85.6445 H   0  0  0  0  0  0  0  0  0  0  0  0
   66.4611   76.5379   89.0476 C   0  0  0  0  0  0  0  0  0  0  0  0
   67.2090   75.3402   88.8366 O   0  0  0  0  0  0  0  0  0  0  0  0
   67.9600   74.6690   89.8157 C   0  0  0  0  0  0  0  0  0  0  0  0
   68.8141   75.3395   90.7112 C   0  0  0  0  0  0  0  0  0  0  0  0
   69.5374   74.6221   91.6686 C   0  0  0  0  0  0  0  0  0  0  0  0
   69.4246   73.2236   91.7499 C   0  0  0  0  0  0  0  0  0  0  0  0
   68.5724   72.5579   90.8509 C   0  0  0  0  0  0  0  0  0  0  0  0
   67.8499   73.2768   89.8945 C   0  0  0  0  0  0  0  0  0  0  0  0
   70.1706   72.4885   92.7373 N   0  0  0  0  0  0  0  0  0  0  0  0
   70.4778   71.2937   92.5443 O   0  0  0  0  0  0  0  0  0  0  0  0
   70.5582   73.0909   93.9124 O   0  0  0  0  0  0  0  0  0  0  0  0
  1  2  2  0  0  0
  2 16  1  0  0  0
 16 17  1  0  0  0
 17 18  1  0  0  0
 18 19  2  0  0  0
 19 20  1  0  0  0
 20 21  2  0  0  0
 21 24  1  0  0  0
 24 25  2  0  0  0
 24 26  1  0  0  0
 21 22  1  0  0  0
 22 23  2  0  0  0
  2  3  1  0  0  0
  3  5  1  0  0  0
  5  6  2  0  0  0
  6  7  1  0  0  0
  7  8  2  0  0  0
  8  9  1  0  0  0
  9 10  2  0  0  0
 10 11  1  0  0  0
 10 12  1  0  0  0
 12 13  2  0  0  0
 13 14  1  0  0  0
 23 18  1  0  0  0
 13  7  1  0  0  0
  3  4  1  0  0  0
 11 15  1  0  0  0
M  CHG 1  24   1
M  CHG 1  26  -1
M  END
> <score>
0.467977

> <minimizedAffinity>
-7.17757

$$$$
HIPS6705


 26 27  0  0  0  0  0  0  0  0999 V2000
   72.5949   77.8864   89.9110 O   0  0  0  0  0  0  0  0  0  0  0  0
   71.5120   77.7912   90.5491 C   0  0  0  0  0  0  0  0  0  0  0  0
   70.5262   78.8349   90.4775 N   0  0  0  0  0  0  0  0  0  0  0  0
   69.6492   78.6771   90.8960 H   0  0  0  0  0  0  0  0  0  0  0  0
   70.7481   80.0705   89.8408 N   0  0  0  0  0  0  0  0  0  0  0  0
   71.3144   81.0858   90.4193 C   0  0  0  0  0  0  0  0  0  0  0  0
   71.5417   82.3574   89.6972 C   0  0  0  0  0  0  0  0  0  0  0  0
   72.8195   82.9405   89.7453 C   0  0  0  0  0  0  0  0  0  0  0  0
   73.0793   84.1403   89.0772 C   0  0  0  0  0  0  0  0  0  0  0  0
   72.0685   84.7746   88.3513 C   0  0  0  0  0  0  0  0  0  0  0  0
   72.3421   85.9700   87.6905 O   0  0  0  0  0  0  0  0  0  0  0  0
   70.7914   84.2031   88.2947 C   0  0  0  0  0  0  0  0  0  0  0  0
   70.5235   83.0022   88.9609 C   0  0  0  0  0  0  0  0  0  0  0  0
   69.2737   82.4794   88.8790 F   0  0  0  0  0  0  0  0  0  0  0  0
   73.2001   86.3440   87.7348 H   0  0  0  0  0  0  0  0  0  0  0  0
   71.2582   76.5695   91.3818 C   0  0  0  0  0  0  0  0  0  0  0  0
   70.5621   76.9101   92.5809 O   0  0  0  0  0  0  0  0  0  0  0  0
   69.5271   76.1578   93.1604 C   0  0  0  0  0  0  0  0  0  0  0  0
   68.6221   75.3958   92.3980 C   0  0  0  0  0  0  0  0  0  0  0  0
   67.6110   74.6630   93.0267 C   0  0  0  0  0  0  0  0  0  0  0  0
   67.4820   74.6776   94.4260 C   0  0  0  0  0  0  0  0  0  0  0  0
   68.3866   75.4430   95.1833 C   0  0  0  0  0  0  0  0  0  0  0  0
   69.3969   76.1749   94.5530 C   0  0  0  0  0  0  0  0  0  0  0  0
   66.4399   73.9216   95.0697 N   0  0  0  0  0  0  0  0  0  0  0  0
   65.2777   73.9220   94.6132 O   0  0  0  0  0  0  0  0  0  0  0  0
   66.7072   73.1847   96.2009 O   0  0  0  0  0  0  0  0  0  0  0  0
  1  2  2  0  0  0
  2 16  1  0  0  0
 16 17  1  0  0  0
 17 18  1  0  0  0
 18 19  2  0  0  0
 19 20  1  0  0  0
 20 21  2  0  0  0
 21 24  1  0  0  0
 24 25  2  0  0  0
 24 26  1  0  0  0
 21 22  1  0  0  0
 22 23  2  0  0  0
  2  3  1  0  0  0
  3  5  1  0  0  0
  5  6  2  0  0  0
  6  7  1  0  0  0
  7  8  2  0  0  0
  8  9  1  0  0  0
  9 10  2  0  0  0
 10 11  1  0  0  0
 10 12  1  0  0  0
 12 13  2  0  0  0
 13 14  1  0  0  0
 23 18  1  0  0  0
 13  7  1  0  0  0
  3  4  1  0  0  0
 11 15  1  0  0  0
M  CHG 1  24   1
M  CHG 1  26  -1
M  END
> <score>
0.467977

> <minimizedAffinity>
-7.13676

$$$$
HIPS6706


 25 27  0  0  0  0  0  0  0  0999 V2000
   66.8045   81.3984   87.2385 N   0  0  0  0  0  0  0  0  0  0  0  0
   66.4991   80.3220   87.9050 C   0  0  0  0  0  0  0  0  0  0  0  0
   67.4288   79.5951   88.7922 C   0  0  0  0  0  0  0  0  0  0  0  0
   68.4131   80.1893   89.5555 C   0  0  0  0  0  0  0  0  0  0  0  0
   69.0244   79.1662   90.2490 C   0  0  0  0  0  0  0  0  0  0  0  0
   68.3684   78.0053   89.8694 C   0  0  0  0  0  0  0  0  0  0  0  0
   67.4220   78.3007   89.0071 O   0  0  0  0  0  0  0  0  0  0  0  0
   68.6499   76.6252   90.3267 C   0  0  0  0  0  0  0  0  0  0  0  0
   69.6254   76.3578   91.3059 C   0  0  0  0  0  0  0  0  0  0  0  0
   69.8725   75.0443   91.7176 C   0  0  0  0  0  0  0  0  0  0  0  0
   69.1518   73.9852   91.1586 C   0  0  0  0  0  0  0  0  0  0  0  0
   69.4650   72.3389   91.6769 Cl  0  0  0  0  0  0  0  0  0  0  0  0
   68.1812   74.2401   90.1859 C   0  0  0  0  0  0  0  0  0  0  0  0
   67.9304   75.5515   89.7717 C   0  0  0  0  0  0  0  0  0  0  0  0
   66.9876   84.0914   86.6917 O   0  0  0  0  0  0  0  0  0  0  0  0
   68.0232   83.5289   87.1411 C   0  0  0  0  0  0  0  0  0  0  0  0
   68.0096   82.1128   87.3608 N   0  0  0  0  0  0  0  0  0  0  0  0
   68.8413   81.6417   87.5965 H   0  0  0  0  0  0  0  0  0  0  0  0
   69.2391   84.3396   87.3980 C   0  0  0  0  0  0  0  0  0  0  0  0
   69.1154   85.7024   87.7268 C   0  0  0  0  0  0  0  0  0  0  0  0
   70.2515   86.4808   87.9680 C   0  0  0  0  0  0  0  0  0  0  0  0
   71.5235   85.9077   87.8922 C   0  0  0  0  0  0  0  0  0  0  0  0
   73.0739   86.9727   88.2227 Br  0  0  0  0  0  0  0  0  0  0  0  0
   71.6589   84.5524   87.5807 C   0  0  0  0  0  0  0  0  0  0  0  0
   70.5256   83.7698   87.3382 C   0  0  0  0  0  0  0  0  0  0  0  0
 15 16  2  0  0  0
 16 17  1  0  0  0
 17  1  1  0  0  0
  1  2  2  0  0  0
  2  3  1  0  0  0
  3  4  2  0  0  0
  4  5  1  0  0  0
  5  6  2  0  0  0
  6  8  1  0  0  0
  8  9  2  0  0  0
  9 10  1  0  0  0
 10 11  2  0  0  0
 11 12  1  0  0  0
 11 13  1  0  0  0
 13 14  2  0  0  0
  6  7  1  0  0  0
 16 19  1  0  0  0
 19 20  2  0  0  0
 20 21  1  0  0  0
 21 22  2  0  0  0
 22 23  1  0  0  0
 22 24  1  0  0  0
 24 25  2  0  0  0
  7  3  1  0  0  0
 25 19  1  0  0  0
 14  8  1  0  0  0
 17 18  1  0  0  0
M  END
> <score>
0.172474

> <minimizedAffinity>
-7.88311

$$$$
HIPS6706


 25 27  0  0  0  0  0  0  0  0999 V2000
   66.2324   79.7858   87.8593 N   0  0  0  0  0  0  0  0  0  0  0  0
   66.7507   80.9414   87.5560 C   0  0  0  0  0  0  0  0  0  0  0  0
   67.9357   81.5257   88.2148 C   0  0  0  0  0  0  0  0  0  0  0  0
   68.5714   80.9839   89.3133 C   0  0  0  0  0  0  0  0  0  0  0  0
   69.6353   81.8179   89.5853 C   0  0  0  0  0  0  0  0  0  0  0  0
   69.5872   82.8191   88.6275 C   0  0  0  0  0  0  0  0  0  0  0  0
   68.5672   82.6085   87.8265 O   0  0  0  0  0  0  0  0  0  0  0  0
   70.5090   83.9693   88.4849 C   0  0  0  0  0  0  0  0  0  0  0  0
   70.0421   85.2479   88.1254 C   0  0  0  0  0  0  0  0  0  0  0  0
   70.9353   86.3161   87.9954 C   0  0  0  0  0  0  0  0  0  0  0  0
   72.3009   86.1219   88.2215 C   0  0  0  0  0  0  0  0  0  0  0  0
   73.4184   87.4639   88.0569 Cl  0  0  0  0  0  0  0  0  0  0  0  0
   72.7745   84.8565   88.5789 C   0  0  0  0  0  0  0  0  0  0  0  0
   71.8852   83.7860   88.7106 C   0  0  0  0  0  0  0  0  0  0  0  0
   66.2096   77.0735   87.3816 O   0  0  0  0  0  0  0  0  0  0  0  0
   66.8209   77.4660   88.4126 C   0  0  0  0  0  0  0  0  0  0  0  0
   66.7908   78.8571   88.7556 N   0  0  0  0  0  0  0  0  0  0  0  0
   67.1598   79.1616   89.6160 H   0  0  0  0  0  0  0  0  0  0  0  0
   67.5260   76.4751   89.2627 C   0  0  0  0  0  0  0  0  0  0  0  0
   68.4336   76.9145   90.2445 C   0  0  0  0  0  0  0  0  0  0  0  0
   69.1087   75.9932   91.0508 C   0  0  0  0  0  0  0  0  0  0  0  0
   68.8809   74.6238   90.8932 C   0  0  0  0  0  0  0  0  0  0  0  0
   69.8039   73.3672   91.9962 Br  0  0  0  0  0  0  0  0  0  0  0  0
   67.9717   74.1755   89.9316 C   0  0  0  0  0  0  0  0  0  0  0  0
   67.2942   75.0931   89.1225 C   0  0  0  0  0  0  0  0  0  0  0  0
 15 16  2  0  0  0
 16 17  1  0  0  0
 17  1  1  0  0  0
  1  2  2  0  0  0
  2  3  1  0  0  0
  3  4  2  0  0  0
  4  5  1  0  0  0
  5  6  2  0  0  0
  6  8  1  0  0  0
  8  9  2  0  0  0
  9 10  1  0  0  0
 10 11  2  0  0  0
 11 12  1  0  0  0
 11 13  1  0  0  0
 13 14  2  0  0  0
  6  7  1  0  0  0
 16 19  1  0  0  0
 19 20  2  0  0  0
 20 21  1  0  0  0
 21 22  2  0  0  0
 22 23  1  0  0  0
 22 24  1  0  0  0
 24 25  2  0  0  0
  7  3  1  0  0  0
 25 19  1  0  0  0
 14  8  1  0  0  0
 17 18  1  0  0  0
M  END
> <score>
0.172474

> <minimizedAffinity>
-7.54050

$$$$
HIPS6706


 25 27  0  0  0  0  0  0  0  0999 V2000
   66.2017   76.9302   88.2557 N   0  0  0  0  0  0  0  0  0  0  0  0
   66.2871   78.2080   88.0196 C   0  0  0  0  0  0  0  0  0  0  0  0
   66.9980   79.1726   88.8822 C   0  0  0  0  0  0  0  0  0  0  0  0
   66.6220   79.5025   90.1684 C   0  0  0  0  0  0  0  0  0  0  0  0
   67.5626   80.4047   90.6187 C   0  0  0  0  0  0  0  0  0  0  0  0
   68.4629   80.5662   89.5768 C   0  0  0  0  0  0  0  0  0  0  0  0
   68.0981   79.8132   88.5638 O   0  0  0  0  0  0  0  0  0  0  0  0
   69.6596   81.4381   89.5523 C   0  0  0  0  0  0  0  0  0  0  0  0
   70.8506   81.0737   90.2085 C   0  0  0  0  0  0  0  0  0  0  0  0
   71.9653   81.9175   90.1711 C   0  0  0  0  0  0  0  0  0  0  0  0
   71.9049   83.1315   89.4810 C   0  0  0  0  0  0  0  0  0  0  0  0
   73.3047   84.1877   89.4368 Cl  0  0  0  0  0  0  0  0  0  0  0  0
   70.7273   83.5024   88.8262 C   0  0  0  0  0  0  0  0  0  0  0  0
   69.6108   82.6618   88.8604 C   0  0  0  0  0  0  0  0  0  0  0  0
   66.8510   74.2596   88.0771 O   0  0  0  0  0  0  0  0  0  0  0  0
   67.2619   74.8798   89.0956 C   0  0  0  0  0  0  0  0  0  0  0  0
   66.8798   76.2483   89.2818 N   0  0  0  0  0  0  0  0  0  0  0  0
   67.0913   76.7097   90.1253 H   0  0  0  0  0  0  0  0  0  0  0  0
   68.1006   74.1687   90.0919 C   0  0  0  0  0  0  0  0  0  0  0  0
   68.9207   74.9032   90.9687 C   0  0  0  0  0  0  0  0  0  0  0  0
   69.7197   74.2479   91.9105 C   0  0  0  0  0  0  0  0  0  0  0  0
   69.7043   72.8533   91.9945 C   0  0  0  0  0  0  0  0  0  0  0  0
   70.7961   71.9604   93.2821 Br  0  0  0  0  0  0  0  0  0  0  0  0
   68.8837   72.1134   91.1392 C   0  0  0  0  0  0  0  0  0  0  0  0
   68.0830   72.7643   90.1953 C   0  0  0  0  0  0  0  0  0  0  0  0
 15 16  2  0  0  0
 16 17  1  0  0  0
 17  1  1  0  0  0
  1  2  2  0  0  0
  2  3  1  0  0  0
  3  4  2  0  0  0
  4  5  1  0  0  0
  5  6  2  0  0  0
  6  8  1  0  0  0
  8  9  2  0  0  0
  9 10  1  0  0  0
 10 11  2  0  0  0
 11 12  1  0  0  0
 11 13  1  0  0  0
 13 14  2  0  0  0
  6  7  1  0  0  0
 16 19  1  0  0  0
 19 20  2  0  0  0
 20 21  1  0  0  0
 21 22  2  0  0  0
 22 23  1  0  0  0
 22 24  1  0  0  0
 24 25  2  0  0  0
  7  3  1  0  0  0
 25 19  1  0  0  0
 14  8  1  0  0  0
 17 18  1  0  0  0
M  END
> <score>
0.172474

> <minimizedAffinity>
-7.49128

$$$$
HIPS6707


 26 28  0  0  0  0  0  0  0  0999 V2000
   69.7580   73.5218   95.3437 N   0  0  0  0  0  0  0  0  0  0  0  0
   70.1680   72.6642   94.4546 C   0  0  0  0  0  0  0  0  0  0  0  0
   69.7091   72.6320   93.0537 C   0  0  0  0  0  0  0  0  0  0  0  0
   69.6469   71.5312   92.2185 C   0  0  0  0  0  0  0  0  0  0  0  0
   69.1043   71.9857   91.0360 C   0  0  0  0  0  0  0  0  0  0  0  0
   68.8564   73.3366   91.2241 C   0  0  0  0  0  0  0  0  0  0  0  0
   69.2221   73.6841   92.4385 O   0  0  0  0  0  0  0  0  0  0  0  0
   68.2676   74.2818   90.2469 C   0  0  0  0  0  0  0  0  0  0  0  0
   68.6014   75.6464   90.3139 C   0  0  0  0  0  0  0  0  0  0  0  0
   68.0586   76.5557   89.4012 C   0  0  0  0  0  0  0  0  0  0  0  0
   67.1770   76.1141   88.4109 C   0  0  0  0  0  0  0  0  0  0  0  0
   66.4987   77.2564   87.2654 Cl  0  0  0  0  0  0  0  0  0  0  0  0
   66.8378   74.7604   88.3341 C   0  0  0  0  0  0  0  0  0  0  0  0
   67.3781   73.8473   89.2453 C   0  0  0  0  0  0  0  0  0  0  0  0
   67.2102   73.1672   96.3654 O   0  0  0  0  0  0  0  0  0  0  0  0
   67.4168   74.1908   95.6577 C   0  0  0  0  0  0  0  0  0  0  0  0
   68.7222   74.4503   95.1428 N   0  0  0  0  0  0  0  0  0  0  0  0
   68.8976   75.2817   94.6456 H   0  0  0  0  0  0  0  0  0  0  0  0
   66.3778   75.0844   95.3756 O   0  0  0  0  0  0  0  0  0  0  0  0
   65.9054   75.3453   94.0555 C   0  0  0  0  0  0  0  0  0  0  0  0
   66.0345   76.8087   93.7313 C   0  0  0  0  0  0  0  0  0  0  0  0
   67.0553   77.2673   92.8816 C   0  0  0  0  0  0  0  0  0  0  0  0
   67.1779   78.6322   92.6023 C   0  0  0  0  0  0  0  0  0  0  0  0
   66.2867   79.5467   93.1706 C   0  0  0  0  0  0  0  0  0  0  0  0
   65.2720   79.0979   94.0205 C   0  0  0  0  0  0  0  0  0  0  0  0
   65.1462   77.7340   94.3028 C   0  0  0  0  0  0  0  0  0  0  0  0
 15 16  2  0  0  0
 16 17  1  0  0  0
 17  1  1  0  0  0
  1  2  2  0  0  0
  2  3  1  0  0  0
  3  4  2  0  0  0
  4  5  1  0  0  0
  5  6  2  0  0  0
  6  8  1  0  0  0
  8  9  2  0  0  0
  9 10  1  0  0  0
 10 11  2  0  0  0
 11 12  1  0  0  0
 11 13  1  0  0  0
 13 14  2  0  0  0
  6  7  1  0  0  0
 16 19  1  0  0  0
 19 20  1  0  0  0
 20 21  1  0  0  0
 21 22  2  0  0  0
 22 23  1  0  0  0
 23 24  2  0  0  0
 24 25  1  0  0  0
 25 26  2  0  0  0
  7  3  1  0  0  0
 26 21  1  0  0  0
 14  8  1  0  0  0
 17 18  1  0  0  0
M  END
> <score>
0.552979

> <minimizedAffinity>
-8.15539

$$$$
HIPS6707


 26 28  0  0  0  0  0  0  0  0999 V2000
   65.7857   74.0921   94.5908 N   0  0  0  0  0  0  0  0  0  0  0  0
   65.8291   75.3686   94.8415 C   0  0  0  0  0  0  0  0  0  0  0  0
   66.4432   76.3721   93.9528 C   0  0  0  0  0  0  0  0  0  0  0  0
   65.9566   77.6308   93.6493 C   0  0  0  0  0  0  0  0  0  0  0  0
   66.8994   78.2118   92.8291 C   0  0  0  0  0  0  0  0  0  0  0  0
   67.9128   77.2759   92.6900 C   0  0  0  0  0  0  0  0  0  0  0  0
   67.6101   76.1971   93.3782 O   0  0  0  0  0  0  0  0  0  0  0  0
   69.1625   77.4214   91.9076 C   0  0  0  0  0  0  0  0  0  0  0  0
   69.1657   78.2154   90.7467 C   0  0  0  0  0  0  0  0  0  0  0  0
   70.3338   78.3677   89.9940 C   0  0  0  0  0  0  0  0  0  0  0  0
   71.5124   77.7301   90.3910 C   0  0  0  0  0  0  0  0  0  0  0  0
   72.9776   77.9243   89.4462 Cl  0  0  0  0  0  0  0  0  0  0  0  0
   71.5217   76.9386   91.5428 C   0  0  0  0  0  0  0  0  0  0  0  0
   70.3553   76.7831   92.2987 C   0  0  0  0  0  0  0  0  0  0  0  0
   68.3810   73.1436   94.7510 O   0  0  0  0  0  0  0  0  0  0  0  0
   67.7889   73.0361   93.6423 C   0  0  0  0  0  0  0  0  0  0  0  0
   66.4340   73.4651   93.5128 N   0  0  0  0  0  0  0  0  0  0  0  0
   65.9522   73.3215   92.6664 H   0  0  0  0  0  0  0  0  0  0  0  0
   68.4450   72.4915   92.5330 O   0  0  0  0  0  0  0  0  0  0  0  0
   69.1451   73.2790   91.5721 C   0  0  0  0  0  0  0  0  0  0  0  0
   68.2591   73.5800   90.3940 C   0  0  0  0  0  0  0  0  0  0  0  0
   67.6465   72.5406   89.6739 C   0  0  0  0  0  0  0  0  0  0  0  0
   66.8403   72.8306   88.5685 C   0  0  0  0  0  0  0  0  0  0  0  0
   66.6433   74.1568   88.1735 C   0  0  0  0  0  0  0  0  0  0  0  0
   67.2536   75.1953   88.8824 C   0  0  0  0  0  0  0  0  0  0  0  0
   68.0609   74.9095   89.9879 C   0  0  0  0  0  0  0  0  0  0  0  0
 15 16  2  0  0  0
 16 17  1  0  0  0
 17  1  1  0  0  0
  1  2  2  0  0  0
  2  3  1  0  0  0
  3  4  2  0  0  0
  4  5  1  0  0  0
  5  6  2  0  0  0
  6  8  1  0  0  0
  8  9  2  0  0  0
  9 10  1  0  0  0
 10 11  2  0  0  0
 11 12  1  0  0  0
 11 13  1  0  0  0
 13 14  2  0  0  0
  6  7  1  0  0  0
 16 19  1  0  0  0
 19 20  1  0  0  0
 20 21  1  0  0  0
 21 22  2  0  0  0
 22 23  1  0  0  0
 23 24  2  0  0  0
 24 25  1  0  0  0
 25 26  2  0  0  0
  7  3  1  0  0  0
 26 21  1  0  0  0
 14  8  1  0  0  0
 17 18  1  0  0  0
M  END
> <score>
0.552979

> <minimizedAffinity>
-8.08360

$$$$
HIPS6707


 26 28  0  0  0  0  0  0  0  0999 V2000
   69.6048   72.5291   94.8562 N   0  0  0  0  0  0  0  0  0  0  0  0
   69.0915   73.5023   95.5516 C   0  0  0  0  0  0  0  0  0  0  0  0
   67.9104   74.2853   95.1441 C   0  0  0  0  0  0  0  0  0  0  0  0
   66.5840   74.0014   95.4147 C   0  0  0  0  0  0  0  0  0  0  0  0
   65.8587   75.0442   94.8800 C   0  0  0  0  0  0  0  0  0  0  0  0
   66.7880   75.9098   94.3242 C   0  0  0  0  0  0  0  0  0  0  0  0
   67.9983   75.4293   94.5068 O   0  0  0  0  0  0  0  0  0  0  0  0
   66.5138   77.1897   93.6299 C   0  0  0  0  0  0  0  0  0  0  0  0
   67.3456   77.5967   92.5714 C   0  0  0  0  0  0  0  0  0  0  0  0
   67.1046   78.7998   91.9015 C   0  0  0  0  0  0  0  0  0  0  0  0
   66.0309   79.6105   92.2795 C   0  0  0  0  0  0  0  0  0  0  0  0
   65.7291   81.1188   91.4361 Cl  0  0  0  0  0  0  0  0  0  0  0  0
   65.1972   79.2167   93.3299 C   0  0  0  0  0  0  0  0  0  0  0  0
   65.4348   78.0140   94.0031 C   0  0  0  0  0  0  0  0  0  0  0  0
   70.5895   73.7691   92.5860 O   0  0  0  0  0  0  0  0  0  0  0  0
   69.7107   72.8778   92.4284 C   0  0  0  0  0  0  0  0  0  0  0  0
   69.2002   72.1718   93.5585 N   0  0  0  0  0  0  0  0  0  0  0  0
   68.5630   71.4326   93.4289 H   0  0  0  0  0  0  0  0  0  0  0  0
   69.2328   72.5655   91.1510 O   0  0  0  0  0  0  0  0  0  0  0  0
   67.8468   72.5473   90.8157 C   0  0  0  0  0  0  0  0  0  0  0  0
   67.5293   73.6438   89.8357 C   0  0  0  0  0  0  0  0  0  0  0  0
   66.9360   73.3482   88.5968 C   0  0  0  0  0  0  0  0  0  0  0  0
   66.6628   74.3731   87.6853 C   0  0  0  0  0  0  0  0  0  0  0  0
   66.9822   75.6964   88.0022 C   0  0  0  0  0  0  0  0  0  0  0  0
   67.5769   75.9969   89.2308 C   0  0  0  0  0  0  0  0  0  0  0  0
   67.8522   74.9750   90.1448 C   0  0  0  0  0  0  0  0  0  0  0  0
 15 16  2  0  0  0
 16 17  1  0  0  0
 17  1  1  0  0  0
  1  2  2  0  0  0
  2  3  1  0  0  0
  3  4  2  0  0  0
  4  5  1  0  0  0
  5  6  2  0  0  0
  6  8  1  0  0  0
  8  9  2  0  0  0
  9 10  1  0  0  0
 10 11  2  0  0  0
 11 12  1  0  0  0
 11 13  1  0  0  0
 13 14  2  0  0  0
  6  7  1  0  0  0
 16 19  1  0  0  0
 19 20  1  0  0  0
 20 21  1  0  0  0
 21 22  2  0  0  0
 22 23  1  0  0  0
 23 24  2  0  0  0
 24 25  1  0  0  0
 25 26  2  0  0  0
  7  3  1  0  0  0
 26 21  1  0  0  0
 14  8  1  0  0  0
 17 18  1  0  0  0
M  END
> <score>
0.552979

> <minimizedAffinity>
-7.77403

$$$$
HIPS6708


 22 23  0  0  0  0  0  0  0  0999 V2000
   68.3611   73.8369   91.2810 C   0  0  0  0  0  0  0  0  0  0  0  0
   67.9572   72.9720   90.2932 C   0  0  0  0  0  0  0  0  0  0  0  0
   67.3486   73.3603   89.1181 C   0  0  0  0  0  0  0  0  0  0  0  0
   67.1440   74.7184   88.9504 C   0  0  0  0  0  0  0  0  0  0  0  0
   67.5340   75.6168   89.9161 C   0  0  0  0  0  0  0  0  0  0  0  0
   68.1390   75.1774   91.0745 C   0  0  0  0  0  0  0  0  0  0  0  0
   68.5284   76.0864   92.0409 O   0  0  0  0  0  0  0  0  0  0  0  0
   68.3812   77.0024   91.9089 H   0  0  0  0  0  0  0  0  0  0  0  0
   68.4478   72.4138   93.1567 O   0  0  0  0  0  0  0  0  0  0  0  0
   68.9885   73.3029   92.4678 C   0  0  0  0  0  0  0  0  0  0  0  0
   70.2255   73.7837   92.8620 O   0  0  0  0  0  0  0  0  0  0  0  0
   70.6503   74.4513   92.3602 H   0  0  0  0  0  0  0  0  0  0  0  0
   66.9475   72.3889   88.1162 C   0  0  0  0  0  0  0  0  0  0  0  0
   66.6416   72.7337   86.9201 N   0  0  0  0  0  0  0  0  0  0  0  0
   66.2534   71.7675   85.9610 N   0  0  0  0  0  0  0  0  0  0  0  0
   66.9258   71.6014   84.7360 C   0  0  0  0  0  0  0  0  0  0  0  0
   67.9113   72.3377   84.4783 O   0  0  0  0  0  0  0  0  0  0  0  0
   65.4821   71.1887   86.1589 H   0  0  0  0  0  0  0  0  0  0  0  0
   66.5277   70.5960   83.7294 C   0  0  0  0  0  0  0  0  0  0  0  0
   65.7703   69.4028   84.2973 C   0  0  0  0  0  0  0  0  0  0  0  0
   64.9132   69.4483   83.0487 C   0  0  0  0  0  0  0  0  0  0  0  0
   65.2776   70.9242   82.9404 C   0  0  0  0  0  0  0  0  0  0  0  0
  9 10  2  0  0  0
 10 11  1  0  0  0
 10  1  1  0  0  0
  1  2  2  0  0  0
  2  3  1  0  0  0
  3 13  1  0  0  0
 13 14  2  0  0  0
 14 15  1  0  0  0
 15 16  1  0  0  0
 16 17  2  0  0  0
 16 19  1  0  0  0
 19 20  1  0  0  0
 20 21  1  0  0  0
 21 22  1  0  0  0
  3  4  2  0  0  0
  4  5  1  0  0  0
  5  6  2  0  0  0
  6  7  1  0  0  0
  6  1  1  0  0  0
 22 19  1  0  0  0
 11 12  1  0  0  0
 15 18  1  0  0  0
  7  8  1  0  0  0
M  END
> <score>
0.273774

> <minimizedAffinity>
-7.16905

$$$$
HIPS6708


 22 23  0  0  0  0  0  0  0  0999 V2000
   68.2315   74.0408   94.5904 C   0  0  0  0  0  0  0  0  0  0  0  0
   68.1479   74.8239   93.4649 C   0  0  0  0  0  0  0  0  0  0  0  0
   67.0389   75.5632   93.1103 C   0  0  0  0  0  0  0  0  0  0  0  0
   65.9528   75.4918   93.9644 C   0  0  0  0  0  0  0  0  0  0  0  0
   65.9968   74.7190   95.1013 C   0  0  0  0  0  0  0  0  0  0  0  0
   67.1303   73.9980   95.4116 C   0  0  0  0  0  0  0  0  0  0  0  0
   67.1673   73.2233   96.5563 O   0  0  0  0  0  0  0  0  0  0  0  0
   66.4213   73.1879   97.1223 H   0  0  0  0  0  0  0  0  0  0  0  0
   69.6440   72.7081   95.9243 O   0  0  0  0  0  0  0  0  0  0  0  0
   69.4525   73.3135   94.8500 C   0  0  0  0  0  0  0  0  0  0  0  0
   70.4459   73.2799   93.8862 O   0  0  0  0  0  0  0  0  0  0  0  0
   70.3241   73.7271   93.0720 H   0  0  0  0  0  0  0  0  0  0  0  0
   67.0212   76.3702   91.9034 C   0  0  0  0  0  0  0  0  0  0  0  0
   67.1799   75.8559   90.7400 N   0  0  0  0  0  0  0  0  0  0  0  0
   67.1585   76.6641   89.5779 N   0  0  0  0  0  0  0  0  0  0  0  0
   67.0211   76.1289   88.2837 C   0  0  0  0  0  0  0  0  0  0  0  0
   66.9123   74.8840   88.1486 O   0  0  0  0  0  0  0  0  0  0  0  0
   67.2432   77.6397   89.6793 H   0  0  0  0  0  0  0  0  0  0  0  0
   66.9979   76.9645   87.0657 C   0  0  0  0  0  0  0  0  0  0  0  0
   68.3291   77.6242   86.7298 C   0  0  0  0  0  0  0  0  0  0  0  0
   68.0114   77.3507   85.2737 C   0  0  0  0  0  0  0  0  0  0  0  0
   67.1211   76.2121   85.7574 C   0  0  0  0  0  0  0  0  0  0  0  0
  9 10  2  0  0  0
 10 11  1  0  0  0
 10  1  1  0  0  0
  1  2  2  0  0  0
  2  3  1  0  0  0
  3 13  1  0  0  0
 13 14  2  0  0  0
 14 15  1  0  0  0
 15 16  1  0  0  0
 16 17  2  0  0  0
 16 19  1  0  0  0
 19 20  1  0  0  0
 20 21  1  0  0  0
 21 22  1  0  0  0
  3  4  2  0  0  0
  4  5  1  0  0  0
  5  6  2  0  0  0
  6  7  1  0  0  0
  6  1  1  0  0  0
 22 19  1  0  0  0
 11 12  1  0  0  0
 15 18  1  0  0  0
  7  8  1  0  0  0
M  END
> <score>
0.273774

> <minimizedAffinity>
-7.06342

$$$$
HIPS6708


 22 23  0  0  0  0  0  0  0  0999 V2000
   67.7687   75.2076   89.9325 C   0  0  0  0  0  0  0  0  0  0  0  0
   67.1494   74.6916   88.8202 C   0  0  0  0  0  0  0  0  0  0  0  0
   67.0179   73.3445   88.5556 C   0  0  0  0  0  0  0  0  0  0  0  0
   67.5554   72.4782   89.4911 C   0  0  0  0  0  0  0  0  0  0  0  0
   68.1835   72.9551   90.6179 C   0  0  0  0  0  0  0  0  0  0  0  0
   68.2889   74.3124   90.8364 C   0  0  0  0  0  0  0  0  0  0  0  0
   68.9217   74.7845   91.9715 O   0  0  0  0  0  0  0  0  0  0  0  0
   69.2794   74.1819   92.5935 H   0  0  0  0  0  0  0  0  0  0  0  0
   66.8355   77.3704   89.9727 O   0  0  0  0  0  0  0  0  0  0  0  0
   67.8410   76.6414   90.0937 C   0  0  0  0  0  0  0  0  0  0  0  0
   69.0558   77.2352   90.3914 O   0  0  0  0  0  0  0  0  0  0  0  0
   69.8242   76.7076   90.4870 H   0  0  0  0  0  0  0  0  0  0  0  0
   66.3496   72.8699   87.3571 C   0  0  0  0  0  0  0  0  0  0  0  0
   66.7506   71.8312   86.7220 N   0  0  0  0  0  0  0  0  0  0  0  0
   66.0820   71.3883   85.5555 N   0  0  0  0  0  0  0  0  0  0  0  0
   66.7507   70.7541   84.4920 C   0  0  0  0  0  0  0  0  0  0  0  0
   67.9914   70.5711   84.5762 O   0  0  0  0  0  0  0  0  0  0  0  0
   65.1102   71.5295   85.4855 H   0  0  0  0  0  0  0  0  0  0  0  0
   66.0612   70.2888   83.2711 C   0  0  0  0  0  0  0  0  0  0  0  0
   64.8221   69.4423   83.5322 C   0  0  0  0  0  0  0  0  0  0  0  0
   64.1842   70.1471   82.3523 C   0  0  0  0  0  0  0  0  0  0  0  0
   65.1453   71.3005   82.6149 C   0  0  0  0  0  0  0  0  0  0  0  0
  9 10  2  0  0  0
 10 11  1  0  0  0
 10  1  1  0  0  0
  1  2  2  0  0  0
  2  3  1  0  0  0
  3 13  1  0  0  0
 13 14  2  0  0  0
 14 15  1  0  0  0
 15 16  1  0  0  0
 16 17  2  0  0  0
 16 19  1  0  0  0
 19 20  1  0  0  0
 20 21  1  0  0  0
 21 22  1  0  0  0
  3  4  2  0  0  0
  4  5  1  0  0  0
  5  6  2  0  0  0
  6  7  1  0  0  0
  6  1  1  0  0  0
 22 19  1  0  0  0
 11 12  1  0  0  0
 15 18  1  0  0  0
  7  8  1  0  0  0
M  END
> <score>
0.273774

> <minimizedAffinity>
-7.01091

$$$$
HIPS6709


 20 21  0  0  0  0  0  0  0  0999 V2000
   69.3412   72.9751   91.7433 C   0  0  0  0  0  0  0  0  0  0  0  0
   68.4833   72.3243   90.8377 C   0  0  0  0  0  0  0  0  0  0  0  0
   67.7366   73.0563   89.8955 C   0  0  0  0  0  0  0  0  0  0  0  0
   67.8651   74.4461   89.8567 C   0  0  0  0  0  0  0  0  0  0  0  0
   68.7293   75.1029   90.7324 C   0  0  0  0  0  0  0  0  0  0  0  0
   69.4855   74.3829   91.6630 C   0  0  0  0  0  0  0  0  0  0  0  0
   70.3865   75.0958   92.4574 O   0  0  0  0  0  0  0  0  0  0  0  0
   70.4507   76.0268   92.3728 H   0  0  0  0  0  0  0  0  0  0  0  0
   70.0062   70.8989   92.7094 O   0  0  0  0  0  0  0  0  0  0  0  0
   70.0321   72.1574   92.7653 C   0  0  0  0  0  0  0  0  0  0  0  0
   70.7730   72.7803   93.7662 O   0  0  0  0  0  0  0  0  0  0  0  0
   70.7990   73.7156   93.8167 H   0  0  0  0  0  0  0  0  0  0  0  0
   66.8554   72.4476   88.9862 O   0  0  0  0  0  0  0  0  0  0  0  0
   66.6178   72.8831   87.6473 C   0  0  0  0  0  0  0  0  0  0  0  0
   66.8393   71.7628   86.6772 C   0  0  0  0  0  0  0  0  0  0  0  0
   67.7278   70.7171   86.9159 C   0  0  0  0  0  0  0  0  0  0  0  0
   67.6725   69.6851   85.5895 S   0  0  0  0  0  0  0  0  0  0  0  0
   66.5237   70.6053   84.7810 C   0  0  0  0  0  0  0  0  0  0  0  0
   65.8023   70.1811   83.0696 Br  0  0  0  0  0  0  0  0  0  0  0  0
   66.1697   71.6945   85.4945 N   0  0  0  0  0  0  0  0  0  0  0  0
  9 10  2  0  0  0
 10 11  1  0  0  0
 10  1  1  0  0  0
  1  2  2  0  0  0
  2  3  1  0  0  0
  3 13  1  0  0  0
 13 14  1  0  0  0
 14 15  1  0  0  0
 15 16  2  0  0  0
 16 17  1  0  0  0
 17 18  1  0  0  0
 18 19  1  0  0  0
 18 20  2  0  0  0
  3  4  2  0  0  0
  4  5  1  0  0  0
  5  6  2  0  0  0
  6  7  1  0  0  0
  6  1  1  0  0  0
 20 15  2  0  0  0
 11 12  1  0  0  0
  7  8  1  0  0  0
M  END
> <score>
0.454141

> <minimizedAffinity>
-6.87562

$$$$
HIPS6709


 20 21  0  0  0  0  0  0  0  0999 V2000
   68.7625   75.2651   90.7199 C   0  0  0  0  0  0  0  0  0  0  0  0
   67.8781   74.6151   89.8396 C   0  0  0  0  0  0  0  0  0  0  0  0
   67.7804   73.2111   89.8187 C   0  0  0  0  0  0  0  0  0  0  0  0
   68.5656   72.4610   90.6964 C   0  0  0  0  0  0  0  0  0  0  0  0
   69.4295   73.0924   91.5908 C   0  0  0  0  0  0  0  0  0  0  0  0
   69.5236   74.4874   91.6284 C   0  0  0  0  0  0  0  0  0  0  0  0
   70.3512   75.0559   92.5993 O   0  0  0  0  0  0  0  0  0  0  0  0
   70.8378   74.5054   93.1808 H   0  0  0  0  0  0  0  0  0  0  0  0
   67.8548   77.4649   90.5683 O   0  0  0  0  0  0  0  0  0  0  0  0
   68.8818   76.7377   90.6329 C   0  0  0  0  0  0  0  0  0  0  0  0
   70.1382   77.3355   90.6860 O   0  0  0  0  0  0  0  0  0  0  0  0
   70.9083   76.8039   90.7342 H   0  0  0  0  0  0  0  0  0  0  0  0
   66.9241   72.5222   88.9433 O   0  0  0  0  0  0  0  0  0  0  0  0
   66.6184   72.9161   87.6053 C   0  0  0  0  0  0  0  0  0  0  0  0
   66.8317   71.7777   86.6547 C   0  0  0  0  0  0  0  0  0  0  0  0
   67.7011   70.7220   86.9184 C   0  0  0  0  0  0  0  0  0  0  0  0
   67.6426   69.6707   85.6073 S   0  0  0  0  0  0  0  0  0  0  0  0
   66.5166   70.5962   84.7733 C   0  0  0  0  0  0  0  0  0  0  0  0
   65.8056   70.1570   83.0613 Br  0  0  0  0  0  0  0  0  0  0  0  0
   66.1729   71.7016   85.4664 N   0  0  0  0  0  0  0  0  0  0  0  0
  9 10  2  0  0  0
 10 11  1  0  0  0
 10  1  1  0  0  0
  1  2  2  0  0  0
  2  3  1  0  0  0
  3 13  1  0  0  0
 13 14  1  0  0  0
 14 15  1  0  0  0
 15 16  2  0  0  0
 16 17  1  0  0  0
 17 18  1  0  0  0
 18 19  1  0  0  0
 18 20  2  0  0  0
  3  4  2  0  0  0
  4  5  1  0  0  0
  5  6  2  0  0  0
  6  7  1  0  0  0
  6  1  1  0  0  0
 20 15  2  0  0  0
 11 12  1  0  0  0
  7  8  1  0  0  0
M  END
> <score>
0.454141

> <minimizedAffinity>
-6.51347

$$$$
HIPS6709


 20 21  0  0  0  0  0  0  0  0999 V2000
   68.1910   74.3294   94.6600 C   0  0  0  0  0  0  0  0  0  0  0  0
   68.2761   75.3952   93.7454 C   0  0  0  0  0  0  0  0  0  0  0  0
   67.1517   76.1905   93.4550 C   0  0  0  0  0  0  0  0  0  0  0  0
   65.9423   75.9199   94.0981 C   0  0  0  0  0  0  0  0  0  0  0  0
   65.8488   74.8816   95.0246 C   0  0  0  0  0  0  0  0  0  0  0  0
   66.9640   74.0945   95.3297 C   0  0  0  0  0  0  0  0  0  0  0  0
   66.8195   73.1216   96.3214 O   0  0  0  0  0  0  0  0  0  0  0  0
   65.9902   72.9984   96.7397 H   0  0  0  0  0  0  0  0  0  0  0  0
   69.5039   72.7619   95.8869 O   0  0  0  0  0  0  0  0  0  0  0  0
   69.3852   73.4776   94.8567 C   0  0  0  0  0  0  0  0  0  0  0  0
   70.3621   73.4144   93.8664 O   0  0  0  0  0  0  0  0  0  0  0  0
   70.2834   73.9424   93.0964 H   0  0  0  0  0  0  0  0  0  0  0  0
   67.1891   77.2519   92.5353 O   0  0  0  0  0  0  0  0  0  0  0  0
   68.1710   77.4261   91.5133 C   0  0  0  0  0  0  0  0  0  0  0  0
   67.7118   76.8129   90.2255 C   0  0  0  0  0  0  0  0  0  0  0  0
   67.4566   77.5600   89.0781 C   0  0  0  0  0  0  0  0  0  0  0  0
   66.9690   76.4951   87.8715 S   0  0  0  0  0  0  0  0  0  0  0  0
   67.1106   75.1412   88.8548 C   0  0  0  0  0  0  0  0  0  0  0  0
   66.7363   73.3563   88.3040 Br  0  0  0  0  0  0  0  0  0  0  0  0
   67.5237   75.4714   90.0962 N   0  0  0  0  0  0  0  0  0  0  0  0
  9 10  2  0  0  0
 10 11  1  0  0  0
 10  1  1  0  0  0
  1  2  2  0  0  0
  2  3  1  0  0  0
  3 13  1  0  0  0
 13 14  1  0  0  0
 14 15  1  0  0  0
 15 16  2  0  0  0
 16 17  1  0  0  0
 17 18  1  0  0  0
 18 19  1  0  0  0
 18 20  2  0  0  0
  3  4  2  0  0  0
  4  5  1  0  0  0
  5  6  2  0  0  0
  6  7  1  0  0  0
  6  1  1  0  0  0
 20 15  2  0  0  0
 11 12  1  0  0  0
  7  8  1  0  0  0
M  END
> <score>
0.454141

> <minimizedAffinity>
-6.19292

$$$$
HIPS6710


 34 37  0  0  0  0  0  0  0  0999 V2000
   68.3387   79.5800   89.7549 C   0  0  0  0  0  0  0  0  0  0  0  0
   67.5924   79.5484   88.5805 C   0  0  0  0  0  0  0  0  0  0  0  0
   67.2590   77.9387   88.2348 S   0  0  0  0  0  0  0  0  0  0  0  0
   68.0847   77.3472   89.5807 C   0  0  0  0  0  0  0  0  0  0  0  0
   68.6165   78.3632   90.2976 N   0  0  0  0  0  0  0  0  0  0  0  0
   68.2246   75.9218   89.9569 C   0  0  0  0  0  0  0  0  0  0  0  0
   69.0627   75.5323   91.0161 C   0  0  0  0  0  0  0  0  0  0  0  0
   69.1874   74.1843   91.3588 C   0  0  0  0  0  0  0  0  0  0  0  0
   68.4794   73.2098   90.6532 C   0  0  0  0  0  0  0  0  0  0  0  0
   67.6319   73.5800   89.5927 C   0  0  0  0  0  0  0  0  0  0  0  0
   67.5150   74.9331   89.2513 C   0  0  0  0  0  0  0  0  0  0  0  0
   66.8922   72.6435   88.8522 O   0  0  0  0  0  0  0  0  0  0  0  0
   66.4850   72.8022   87.4926 C   0  0  0  0  0  0  0  0  0  0  0  0
   66.9134   71.6203   86.6634 C   0  0  0  0  0  0  0  0  0  0  0  0
   67.8730   70.7169   87.1498 C   0  0  0  0  0  0  0  0  0  0  0  0
   68.2722   69.6268   86.3707 C   0  0  0  0  0  0  0  0  0  0  0  0
   67.7248   69.4354   85.0992 C   0  0  0  0  0  0  0  0  0  0  0  0
   66.7785   70.3372   84.6017 C   0  0  0  0  0  0  0  0  0  0  0  0
   66.0960   70.0998   83.0034 Cl  0  0  0  0  0  0  0  0  0  0  0  0
   66.3772   71.4297   85.3789 C   0  0  0  0  0  0  0  0  0  0  0  0
   68.8401   80.8515   90.3705 C   0  0  0  0  0  0  0  0  0  0  0  0
   70.2155   81.0609   90.0488 O   0  0  0  0  0  0  0  0  0  0  0  0
   70.5484   84.1958   88.0195 C   0  0  0  0  0  0  0  0  0  0  0  0
   69.9861   83.0413   88.5942 C   0  0  0  0  0  0  0  0  0  0  0  0
   70.7416   82.2184   89.4507 C   0  0  0  0  0  0  0  0  0  0  0  0
   72.0694   82.5543   89.7212 C   0  0  0  0  0  0  0  0  0  0  0  0
   72.6352   83.7048   89.1719 C   0  0  0  0  0  0  0  0  0  0  0  0
   71.8841   84.5438   88.3422 C   0  0  0  0  0  0  0  0  0  0  0  0
   72.4871   85.7207   87.8925 O   0  0  0  0  0  0  0  0  0  0  0  0
   73.3731   85.9132   88.1290 H   0  0  0  0  0  0  0  0  0  0  0  0
   68.5583   85.3477   87.3883 O   0  0  0  0  0  0  0  0  0  0  0  0
   69.7227   84.9816   87.0758 C   0  0  0  0  0  0  0  0  0  0  0  0
   70.2562   85.3756   85.8513 O   0  0  0  0  0  0  0  0  0  0  0  0
   71.1212   85.1087   85.6095 H   0  0  0  0  0  0  0  0  0  0  0  0
 31 32  2  0  0  0
 32 33  1  0  0  0
 32 23  1  0  0  0
 23 24  2  0  0  0
 24 25  1  0  0  0
 25 22  1  0  0  0
 22 21  1  0  0  0
 21  1  1  0  0  0
  1  2  2  0  0  0
  2  3  1  0  0  0
  3  4  1  0  0  0
  4  6  1  0  0  0
  6  7  2  0  0  0
  7  8  1  0  0  0
  8  9  2  0  0  0
  9 10  1  0  0  0
 10 12  1  0  0  0
 12 13  1  0  0  0
 13 14  1  0  0  0
 14 15  2  0  0  0
 15 16  1  0  0  0
 16 17  2  0  0  0
 17 18  1  0  0  0
 18 19  1  0  0  0
 18 20  2  0  0  0
 10 11  2  0  0  0
  4  5  2  0  0  0
 25 26  2  0  0  0
 26 27  1  0  0  0
 27 28  2  0  0  0
 28 29  1  0  0  0
 28 23  1  0  0  0
  5  1  2  0  0  0
 11  6  1  0  0  0
 20 14  1  0  0  0
 33 34  1  0  0  0
 29 30  1  0  0  0
M  END
> <score>
-0.465219

> <minimizedAffinity>
-9.10808

$$$$
HIPS6710


 34 37  0  0  0  0  0  0  0  0999 V2000
   67.8013   74.3110   93.0301 C   0  0  0  0  0  0  0  0  0  0  0  0
   66.7346   75.1609   93.3073 C   0  0  0  0  0  0  0  0  0  0  0  0
   67.1388   76.6865   92.7317 S   0  0  0  0  0  0  0  0  0  0  0  0
   68.6542   76.2101   92.1661 C   0  0  0  0  0  0  0  0  0  0  0  0
   68.8620   74.8961   92.4097 N   0  0  0  0  0  0  0  0  0  0  0  0
   69.6423   77.0813   91.4896 C   0  0  0  0  0  0  0  0  0  0  0  0
   71.0005   76.7238   91.4300 C   0  0  0  0  0  0  0  0  0  0  0  0
   71.9222   77.5559   90.7911 C   0  0  0  0  0  0  0  0  0  0  0  0
   71.5032   78.7511   90.2038 C   0  0  0  0  0  0  0  0  0  0  0  0
   70.1473   79.1243   90.2490 C   0  0  0  0  0  0  0  0  0  0  0  0
   69.2290   78.2875   90.8952 C   0  0  0  0  0  0  0  0  0  0  0  0
   69.6690   80.3117   89.6711 O   0  0  0  0  0  0  0  0  0  0  0  0
   69.7107   81.6021   90.2815 C   0  0  0  0  0  0  0  0  0  0  0  0
   70.6913   82.4988   89.5728 C   0  0  0  0  0  0  0  0  0  0  0  0
   72.0167   82.6068   90.0257 C   0  0  0  0  0  0  0  0  0  0  0  0
   72.9190   83.4481   89.3679 C   0  0  0  0  0  0  0  0  0  0  0  0
   72.5041   84.1934   88.2610 C   0  0  0  0  0  0  0  0  0  0  0  0
   71.1829   84.1019   87.8112 C   0  0  0  0  0  0  0  0  0  0  0  0
   70.6610   85.0419   86.4252 Cl  0  0  0  0  0  0  0  0  0  0  0  0
   70.2771   83.2611   88.4678 C   0  0  0  0  0  0  0  0  0  0  0  0
   67.8128   72.8621   93.4138 C   0  0  0  0  0  0  0  0  0  0  0  0
   69.1203   72.4572   93.8208 O   0  0  0  0  0  0  0  0  0  0  0  0
   72.0935   70.4460   92.7384 C   0  0  0  0  0  0  0  0  0  0  0  0
   71.2959   71.3471   93.4671 C   0  0  0  0  0  0  0  0  0  0  0  0
   69.9513   71.5704   93.1155 C   0  0  0  0  0  0  0  0  0  0  0  0
   69.4119   70.8914   92.0214 C   0  0  0  0  0  0  0  0  0  0  0  0
   70.1858   69.9826   91.2998 C   0  0  0  0  0  0  0  0  0  0  0  0
   71.5144   69.7330   91.6587 C   0  0  0  0  0  0  0  0  0  0  0  0
   72.2063   68.7522   90.9445 O   0  0  0  0  0  0  0  0  0  0  0  0
   71.7863   68.3040   90.2369 H   0  0  0  0  0  0  0  0  0  0  0  0
   73.9638   69.2112   93.5528 O   0  0  0  0  0  0  0  0  0  0  0  0
   73.5170   70.3060   93.1176 C   0  0  0  0  0  0  0  0  0  0  0  0
   74.3904   71.3754   92.9362 O   0  0  0  0  0  0  0  0  0  0  0  0
   74.0682   72.1938   92.6131 H   0  0  0  0  0  0  0  0  0  0  0  0
 31 32  2  0  0  0
 32 33  1  0  0  0
 32 23  1  0  0  0
 23 24  2  0  0  0
 24 25  1  0  0  0
 25 22  1  0  0  0
 22 21  1  0  0  0
 21  1  1  0  0  0
  1  2  2  0  0  0
  2  3  1  0  0  0
  3  4  1  0  0  0
  4  6  1  0  0  0
  6  7  2  0  0  0
  7  8  1  0  0  0
  8  9  2  0  0  0
  9 10  1  0  0  0
 10 12  1  0  0  0
 12 13  1  0  0  0
 13 14  1  0  0  0
 14 15  2  0  0  0
 15 16  1  0  0  0
 16 17  2  0  0  0
 17 18  1  0  0  0
 18 19  1  0  0  0
 18 20  2  0  0  0
 10 11  2  0  0  0
  4  5  2  0  0  0
 25 26  2  0  0  0
 26 27  1  0  0  0
 27 28  2  0  0  0
 28 29  1  0  0  0
 28 23  1  0  0  0
  5  1  2  0  0  0
 11  6  1  0  0  0
 20 14  1  0  0  0
 33 34  1  0  0  0
 29 30  1  0  0  0
M  END
> <score>
-0.465219

> <minimizedAffinity>
-9.00892

$$$$
HIPS6710


 34 37  0  0  0  0  0  0  0  0999 V2000
   67.9921   78.8981   90.6557 C   0  0  0  0  0  0  0  0  0  0  0  0
   66.8747   79.6363   90.2771 C   0  0  0  0  0  0  0  0  0  0  0  0
   67.4158   81.1261   89.7206 S   0  0  0  0  0  0  0  0  0  0  0  0
   69.0431   80.7790   89.9939 C   0  0  0  0  0  0  0  0  0  0  0  0
   69.1852   79.5359   90.5073 N   0  0  0  0  0  0  0  0  0  0  0  0
   70.1825   81.6839   89.7187 C   0  0  0  0  0  0  0  0  0  0  0  0
   71.3576   81.6217   90.4877 C   0  0  0  0  0  0  0  0  0  0  0  0
   72.4237   82.4827   90.2190 C   0  0  0  0  0  0  0  0  0  0  0  0
   72.3334   83.4132   89.1823 C   0  0  0  0  0  0  0  0  0  0  0  0
   71.1674   83.4880   88.3983 C   0  0  0  0  0  0  0  0  0  0  0  0
   70.1002   82.6248   88.6761 C   0  0  0  0  0  0  0  0  0  0  0  0
   71.0234   84.4004   87.3403 O   0  0  0  0  0  0  0  0  0  0  0  0
   70.1141   85.5013   87.3175 C   0  0  0  0  0  0  0  0  0  0  0  0
   70.7001   86.6952   88.0239 C   0  0  0  0  0  0  0  0  0  0  0  0
   69.8671   87.6167   88.6801 C   0  0  0  0  0  0  0  0  0  0  0  0
   70.4177   88.7275   89.3263 C   0  0  0  0  0  0  0  0  0  0  0  0
   71.8001   88.9317   89.3150 C   0  0  0  0  0  0  0  0  0  0  0  0
   72.6358   88.0264   88.6531 C   0  0  0  0  0  0  0  0  0  0  0  0
   74.3705   88.2862   88.6342 Cl  0  0  0  0  0  0  0  0  0  0  0  0
   72.0877   86.9138   88.0047 C   0  0  0  0  0  0  0  0  0  0  0  0
   67.9030   77.5134   91.2228 C   0  0  0  0  0  0  0  0  0  0  0  0
   67.6346   77.5575   92.6246 O   0  0  0  0  0  0  0  0  0  0  0  0
   68.2769   74.4513   94.6235 C   0  0  0  0  0  0  0  0  0  0  0  0
   68.5008   75.5606   93.7877 C   0  0  0  0  0  0  0  0  0  0  0  0
   67.4511   76.4361   93.4511 C   0  0  0  0  0  0  0  0  0  0  0  0
   66.1712   76.1880   93.9502 C   0  0  0  0  0  0  0  0  0  0  0  0
   65.9377   75.1017   94.7935 C   0  0  0  0  0  0  0  0  0  0  0  0
   66.9800   74.2424   95.1562 C   0  0  0  0  0  0  0  0  0  0  0  0
   66.6936   73.2234   96.0675 O   0  0  0  0  0  0  0  0  0  0  0  0
   65.8221   73.1196   96.3956 H   0  0  0  0  0  0  0  0  0  0  0  0
   69.4518   72.8508   95.9441 O   0  0  0  0  0  0  0  0  0  0  0  0
   69.4069   73.5324   94.8854 C   0  0  0  0  0  0  0  0  0  0  0  0
   70.4036   73.3698   93.9266 O   0  0  0  0  0  0  0  0  0  0  0  0
   70.3794   73.8719   93.1358 H   0  0  0  0  0  0  0  0  0  0  0  0
 31 32  2  0  0  0
 32 33  1  0  0  0
 32 23  1  0  0  0
 23 24  2  0  0  0
 24 25  1  0  0  0
 25 22  1  0  0  0
 22 21  1  0  0  0
 21  1  1  0  0  0
  1  2  2  0  0  0
  2  3  1  0  0  0
  3  4  1  0  0  0
  4  6  1  0  0  0
  6  7  2  0  0  0
  7  8  1  0  0  0
  8  9  2  0  0  0
  9 10  1  0  0  0
 10 12  1  0  0  0
 12 13  1  0  0  0
 13 14  1  0  0  0
 14 15  2  0  0  0
 15 16  1  0  0  0
 16 17  2  0  0  0
 17 18  1  0  0  0
 18 19  1  0  0  0
 18 20  2  0  0  0
 10 11  2  0  0  0
  4  5  2  0  0  0
 25 26  2  0  0  0
 26 27  1  0  0  0
 27 28  2  0  0  0
 28 29  1  0  0  0
 28 23  1  0  0  0
  5  1  2  0  0  0
 11  6  1  0  0  0
 20 14  1  0  0  0
 33 34  1  0  0  0
 29 30  1  0  0  0
M  END
> <score>
-0.465219

> <minimizedAffinity>
-8.98364

$$$$
HIPS6774


 35 38  0  0  0  0  0  0  0  0999 V2000
   69.8528   79.0142   90.2395 C   0  0  0  0  0  0  0  0  0  0  0  0
   68.6368   79.7098   90.2413 C   0  0  0  0  0  0  0  0  0  0  0  0
   67.4400   79.0008   90.3505 C   0  0  0  0  0  0  0  0  0  0  0  0
   67.4556   77.6452   90.4431 N   0  0  0  0  0  0  0  0  0  0  0  0
   68.6149   76.9299   90.4180 C   0  0  0  0  0  0  0  0  0  0  0  0
   69.8395   77.6138   90.3098 C   0  0  0  0  0  0  0  0  0  0  0  0
   68.5661   75.4526   90.5521 C   0  0  0  0  0  0  0  0  0  0  0  0
   69.3673   74.8063   91.5087 C   0  0  0  0  0  0  0  0  0  0  0  0
   69.3634   73.4132   91.6091 C   0  0  0  0  0  0  0  0  0  0  0  0
   68.5665   72.6497   90.7537 C   0  0  0  0  0  0  0  0  0  0  0  0
   67.7518   73.2702   89.8013 C   0  0  0  0  0  0  0  0  0  0  0  0
   67.7345   74.6758   89.7241 C   0  0  0  0  0  0  0  0  0  0  0  0
   66.9857   72.4575   88.9488 O   0  0  0  0  0  0  0  0  0  0  0  0
   66.5647   72.8106   87.6292 C   0  0  0  0  0  0  0  0  0  0  0  0
   66.8748   71.7111   86.6452 C   0  0  0  0  0  0  0  0  0  0  0  0
   67.7801   70.6924   86.9847 C   0  0  0  0  0  0  0  0  0  0  0  0
   68.0690   69.6738   86.0713 C   0  0  0  0  0  0  0  0  0  0  0  0
   67.4509   69.6596   84.8180 C   0  0  0  0  0  0  0  0  0  0  0  0
   66.5415   70.6648   84.4746 C   0  0  0  0  0  0  0  0  0  0  0  0
   65.7655   70.6472   82.9017 Cl  0  0  0  0  0  0  0  0  0  0  0  0
   66.2479   71.6836   85.3875 C   0  0  0  0  0  0  0  0  0  0  0  0
   71.1588   79.7597   90.1358 C   0  0  0  0  0  0  0  0  0  0  0  0
   71.0194   81.1072   90.5904 O   0  0  0  0  0  0  0  0  0  0  0  0
   70.8219   83.9937   88.2724 C   0  0  0  0  0  0  0  0  0  0  0  0
   70.4870   82.8544   89.0252 C   0  0  0  0  0  0  0  0  0  0  0  0
   71.4174   82.2487   89.8755 C   0  0  0  0  0  0  0  0  0  0  0  0
   72.7054   82.7982   89.9855 C   0  0  0  0  0  0  0  0  0  0  0  0
   73.0566   83.9194   89.2333 C   0  0  0  0  0  0  0  0  0  0  0  0
   72.1381   84.5117   88.3602 C   0  0  0  0  0  0  0  0  0  0  0  0
   72.5812   85.5821   87.5799 O   0  0  0  0  0  0  0  0  0  0  0  0
   73.4601   85.8944   87.6688 H   0  0  0  0  0  0  0  0  0  0  0  0
   69.9996   84.9280   86.2394 O   0  0  0  0  0  0  0  0  0  0  0  0
   69.7710   84.6171   87.4388 C   0  0  0  0  0  0  0  0  0  0  0  0
   68.5323   84.9188   87.9980 O   0  0  0  0  0  0  0  0  0  0  0  0
   68.3527   84.6916   88.8891 H   0  0  0  0  0  0  0  0  0  0  0  0
 32 33  2  0  0  0
 33 34  1  0  0  0
 33 24  1  0  0  0
 24 25  2  0  0  0
 25 26  1  0  0  0
 26 23  1  0  0  0
 23 22  1  0  0  0
 22  1  1  0  0  0
  1  2  2  0  0  0
  2  3  1  0  0  0
  3  4  2  0  0  0
  4  5  2  0  0  0
  5  7  1  0  0  0
  7  8  2  0  0  0
  8  9  1  0  0  0
  9 10  2  0  0  0
 10 11  1  0  0  0
 11 13  1  0  0  0
 13 14  1  0  0  0
 14 15  1  0  0  0
 15 16  2  0  0  0
 16 17  1  0  0  0
 17 18  2  0  0  0
 18 19  1  0  0  0
 19 20  1  0  0  0
 19 21  2  0  0  0
 11 12  2  0  0  0
  5  6  2  0  0  0
 26 27  2  0  0  0
 27 28  1  0  0  0
 28 29  2  0  0  0
 29 30  1  0  0  0
 29 24  1  0  0  0
  6  1  1  0  0  0
 12  7  1  0  0  0
 21 15  1  0  0  0
 34 35  1  0  0  0
 30 31  1  0  0  0
M  END
> <score>
-0.431007

> <minimizedAffinity>
-9.45563

$$$$
HIPS6774


 35 38  0  0  0  0  0  0  0  0999 V2000
   68.8723   79.1009   89.6524 C   0  0  0  0  0  0  0  0  0  0  0  0
   67.7345   79.8333   89.2896 C   0  0  0  0  0  0  0  0  0  0  0  0
   66.5717   79.1571   88.9187 C   0  0  0  0  0  0  0  0  0  0  0  0
   66.5486   77.7986   88.8995 N   0  0  0  0  0  0  0  0  0  0  0  0
   67.6413   77.0501   89.2194 C   0  0  0  0  0  0  0  0  0  0  0  0
   68.8296   77.7004   89.5988 C   0  0  0  0  0  0  0  0  0  0  0  0
   67.5428   75.5693   89.2067 C   0  0  0  0  0  0  0  0  0  0  0  0
   66.7732   74.9240   88.2237 C   0  0  0  0  0  0  0  0  0  0  0  0
   66.6361   73.5340   88.2332 C   0  0  0  0  0  0  0  0  0  0  0  0
   67.2587   72.7736   89.2250 C   0  0  0  0  0  0  0  0  0  0  0  0
   68.0393   73.3917   90.2072 C   0  0  0  0  0  0  0  0  0  0  0  0
   68.2010   74.7898   90.1761 C   0  0  0  0  0  0  0  0  0  0  0  0
   68.6264   72.5853   91.1967 O   0  0  0  0  0  0  0  0  0  0  0  0
   67.9608   72.0902   92.3608 C   0  0  0  0  0  0  0  0  0  0  0  0
   67.6190   73.2097   93.3112 C   0  0  0  0  0  0  0  0  0  0  0  0
   66.3029   73.3663   93.7759 C   0  0  0  0  0  0  0  0  0  0  0  0
   65.9858   74.4057   94.6559 C   0  0  0  0  0  0  0  0  0  0  0  0
   66.9798   75.2895   95.0847 C   0  0  0  0  0  0  0  0  0  0  0  0
   68.2947   75.1360   94.6342 C   0  0  0  0  0  0  0  0  0  0  0  0
   69.5425   76.2451   95.1722 Cl  0  0  0  0  0  0  0  0  0  0  0  0
   68.6158   74.0951   93.7562 C   0  0  0  0  0  0  0  0  0  0  0  0
   70.1357   79.8095   90.0693 C   0  0  0  0  0  0  0  0  0  0  0  0
   69.8921   81.1969   90.3093 O   0  0  0  0  0  0  0  0  0  0  0  0
   70.4330   84.0691   88.0285 C   0  0  0  0  0  0  0  0  0  0  0  0
   69.8344   83.0002   88.7184 C   0  0  0  0  0  0  0  0  0  0  0  0
   70.5483   82.2582   89.6646 C   0  0  0  0  0  0  0  0  0  0  0  0
   71.8841   82.5972   89.9363 C   0  0  0  0  0  0  0  0  0  0  0  0
   72.4957   83.6456   89.2486 C   0  0  0  0  0  0  0  0  0  0  0  0
   71.7942   84.3724   88.2810 C   0  0  0  0  0  0  0  0  0  0  0  0
   72.4913   85.3560   87.5757 O   0  0  0  0  0  0  0  0  0  0  0  0
   73.3912   85.5256   87.7738 H   0  0  0  0  0  0  0  0  0  0  0  0
   68.3797   85.0484   87.3164 O   0  0  0  0  0  0  0  0  0  0  0  0
   69.6018   84.8477   87.0847 C   0  0  0  0  0  0  0  0  0  0  0  0
   70.1574   85.3165   85.8975 O   0  0  0  0  0  0  0  0  0  0  0  0
   71.0653   85.1722   85.7160 H   0  0  0  0  0  0  0  0  0  0  0  0
 32 33  2  0  0  0
 33 34  1  0  0  0
 33 24  1  0  0  0
 24 25  2  0  0  0
 25 26  1  0  0  0
 26 23  1  0  0  0
 23 22  1  0  0  0
 22  1  1  0  0  0
  1  2  2  0  0  0
  2  3  1  0  0  0
  3  4  2  0  0  0
  4  5  2  0  0  0
  5  7  1  0  0  0
  7  8  2  0  0  0
  8  9  1  0  0  0
  9 10  2  0  0  0
 10 11  1  0  0  0
 11 13  1  0  0  0
 13 14  1  0  0  0
 14 15  1  0  0  0
 15 16  2  0  0  0
 16 17  1  0  0  0
 17 18  2  0  0  0
 18 19  1  0  0  0
 19 20  1  0  0  0
 19 21  2  0  0  0
 11 12  2  0  0  0
  5  6  2  0  0  0
 26 27  2  0  0  0
 27 28  1  0  0  0
 28 29  2  0  0  0
 29 30  1  0  0  0
 29 24  1  0  0  0
  6  1  1  0  0  0
 12  7  1  0  0  0
 21 15  1  0  0  0
 34 35  1  0  0  0
 30 31  1  0  0  0
M  END
> <score>
-0.431007

> <minimizedAffinity>
-9.30266

$$$$
HIPS6774


 35 38  0  0  0  0  0  0  0  0999 V2000
   70.1899   78.7155   90.5865 C   0  0  0  0  0  0  0  0  0  0  0  0
   68.7976   78.8616   90.6360 C   0  0  0  0  0  0  0  0  0  0  0  0
   68.2218   80.0818   90.2803 C   0  0  0  0  0  0  0  0  0  0  0  0
   69.0082   81.1227   89.8999 N   0  0  0  0  0  0  0  0  0  0  0  0
   70.3671   81.0297   89.8642 C   0  0  0  0  0  0  0  0  0  0  0  0
   70.9798   79.8131   90.2158 C   0  0  0  0  0  0  0  0  0  0  0  0
   71.1684   82.1942   89.4120 C   0  0  0  0  0  0  0  0  0  0  0  0
   72.4282   82.4450   89.9819 C   0  0  0  0  0  0  0  0  0  0  0  0
   73.1678   83.5656   89.5968 C   0  0  0  0  0  0  0  0  0  0  0  0
   72.6574   84.4506   88.6450 C   0  0  0  0  0  0  0  0  0  0  0  0
   71.4113   84.2163   88.0550 C   0  0  0  0  0  0  0  0  0  0  0  0
   70.6827   83.0691   88.4225 C   0  0  0  0  0  0  0  0  0  0  0  0
   70.9313   85.1482   87.1194 O   0  0  0  0  0  0  0  0  0  0  0  0
   69.6722   85.8207   87.1948 C   0  0  0  0  0  0  0  0  0  0  0  0
   69.5457   86.5990   88.4800 C   0  0  0  0  0  0  0  0  0  0  0  0
   70.1048   87.8829   88.5876 C   0  0  0  0  0  0  0  0  0  0  0  0
   69.9889   88.6038   89.7802 C   0  0  0  0  0  0  0  0  0  0  0  0
   69.3078   88.0531   90.8691 C   0  0  0  0  0  0  0  0  0  0  0  0
   68.7403   86.7790   90.7683 C   0  0  0  0  0  0  0  0  0  0  0  0
   67.8854   86.0877   92.1349 Cl  0  0  0  0  0  0  0  0  0  0  0  0
   68.8518   86.0566   89.5753 C   0  0  0  0  0  0  0  0  0  0  0  0
   70.8334   77.4027   90.9535 C   0  0  0  0  0  0  0  0  0  0  0  0
   69.8560   76.3681   91.0793 O   0  0  0  0  0  0  0  0  0  0  0  0
   69.5306   73.3325   93.1825 C   0  0  0  0  0  0  0  0  0  0  0  0
   69.7291   74.1856   92.0826 C   0  0  0  0  0  0  0  0  0  0  0  0
   69.6577   75.5753   92.2215 C   0  0  0  0  0  0  0  0  0  0  0  0
   69.3939   76.1254   93.4867 C   0  0  0  0  0  0  0  0  0  0  0  0
   69.1798   75.2909   94.5839 C   0  0  0  0  0  0  0  0  0  0  0  0
   69.2223   73.8997   94.4441 C   0  0  0  0  0  0  0  0  0  0  0  0
   68.9207   73.1247   95.5663 O   0  0  0  0  0  0  0  0  0  0  0  0
   68.7222   73.5397   96.3826 H   0  0  0  0  0  0  0  0  0  0  0  0
   70.0727   71.1283   93.9104 O   0  0  0  0  0  0  0  0  0  0  0  0
   69.6789   71.8754   92.9754 C   0  0  0  0  0  0  0  0  0  0  0  0
   69.4380   71.3269   91.7187 O   0  0  0  0  0  0  0  0  0  0  0  0
   69.1449   71.8743   91.0170 H   0  0  0  0  0  0  0  0  0  0  0  0
 32 33  2  0  0  0
 33 34  1  0  0  0
 33 24  1  0  0  0
 24 25  2  0  0  0
 25 26  1  0  0  0
 26 23  1  0  0  0
 23 22  1  0  0  0
 22  1  1  0  0  0
  1  2  2  0  0  0
  2  3  1  0  0  0
  3  4  2  0  0  0
  4  5  2  0  0  0
  5  7  1  0  0  0
  7  8  2  0  0  0
  8  9  1  0  0  0
  9 10  2  0  0  0
 10 11  1  0  0  0
 11 13  1  0  0  0
 13 14  1  0  0  0
 14 15  1  0  0  0
 15 16  2  0  0  0
 16 17  1  0  0  0
 17 18  2  0  0  0
 18 19  1  0  0  0
 19 20  1  0  0  0
 19 21  2  0  0  0
 11 12  2  0  0  0
  5  6  2  0  0  0
 26 27  2  0  0  0
 27 28  1  0  0  0
 28 29  2  0  0  0
 29 30  1  0  0  0
 29 24  1  0  0  0
  6  1  1  0  0  0
 12  7  1  0  0  0
 21 15  1  0  0  0
 34 35  1  0  0  0
 30 31  1  0  0  0
M  END
> <score>
-0.431007

> <minimizedAffinity>
-9.18708

$$$$
HIPS6785


 23 23  0  0  0  0  0  0  0  0999 V2000
   66.9832   73.5927   88.5585 C   0  0  0  0  0  0  0  0  0  0  0  0
   67.7378   73.2656   89.6915 C   0  0  0  0  0  0  0  0  0  0  0  0
   68.3206   74.2689   90.4650 C   0  0  0  0  0  0  0  0  0  0  0  0
   68.1603   75.6182   90.1219 C   0  0  0  0  0  0  0  0  0  0  0  0
   68.7556   76.5987   90.9154 O   0  0  0  0  0  0  0  0  0  0  0  0
   67.4018   75.9703   88.9823 C   0  0  0  0  0  0  0  0  0  0  0  0
   66.8186   74.9454   88.2100 C   0  0  0  0  0  0  0  0  0  0  0  0
   69.2560   76.3521   91.6682 H   0  0  0  0  0  0  0  0  0  0  0  0
   67.2067   77.3892   88.5836 C   0  0  0  0  0  0  0  0  0  0  0  0
   67.4491   77.7553   87.4014 O   0  0  0  0  0  0  0  0  0  0  0  0
   66.7560   78.3349   89.5006 O   0  0  0  0  0  0  0  0  0  0  0  0
   66.5710   78.0806   90.3833 H   0  0  0  0  0  0  0  0  0  0  0  0
   66.6153   72.4020   86.4855 N   0  0  0  0  0  0  0  0  0  0  0  0
   66.3763   72.5094   87.7579 C   0  0  0  0  0  0  0  0  0  0  0  0
   66.7850   70.7074   84.6482 C   0  0  0  0  0  0  0  0  0  0  0  0
   68.0417   70.7883   84.5919 O   0  0  0  0  0  0  0  0  0  0  0  0
   66.0529   71.4015   85.6709 N   0  0  0  0  0  0  0  0  0  0  0  0
   65.1074   71.1646   85.8094 H   0  0  0  0  0  0  0  0  0  0  0  0
   66.0559   69.8789   83.6374 C   0  0  0  0  0  0  0  0  0  0  0  0
   65.3140   72.2034   82.0269 C   0  0  0  0  0  0  0  0  0  0  0  0
   64.6993   70.8056   82.9418 S   0  0  0  0  0  0  0  0  0  0  0  0
   63.7973   71.2880   84.0428 O   0  0  0  0  0  0  0  0  0  0  0  0
   63.9180   69.9156   82.0171 O   0  0  0  0  0  0  0  0  0  0  0  0
 20 21  1  0  0  0
 21 22  2  0  0  0
 21 23  2  0  0  0
 21 19  1  0  0  0
 19 15  1  0  0  0
 15 16  2  0  0  0
 15 17  1  0  0  0
 17 13  1  0  0  0
 13 14  2  0  0  0
 14  1  1  0  0  0
  1  2  2  0  0  0
  2  3  1  0  0  0
  3  4  2  0  0  0
  4  5  1  0  0  0
  4  6  1  0  0  0
  6  9  1  0  0  0
  9 10  2  0  0  0
  9 11  1  0  0  0
  6  7  2  0  0  0
  7  1  1  0  0  0
 17 18  1  0  0  0
  5  8  1  0  0  0
 11 12  1  0  0  0
M  END
> <score>
0.176673

> <minimizedAffinity>
-6.93305

$$$$
HIPS6785


 23 23  0  0  0  0  0  0  0  0999 V2000
   67.4288   73.4544   89.5446 C   0  0  0  0  0  0  0  0  0  0  0  0
   66.9926   72.4998   90.4711 C   0  0  0  0  0  0  0  0  0  0  0  0
   67.3886   72.5793   91.8059 C   0  0  0  0  0  0  0  0  0  0  0  0
   68.2274   73.6143   92.2407 C   0  0  0  0  0  0  0  0  0  0  0  0
   68.6061   73.6668   93.5820 O   0  0  0  0  0  0  0  0  0  0  0  0
   68.6787   74.5890   91.3218 C   0  0  0  0  0  0  0  0  0  0  0  0
   68.2703   74.4957   89.9758 C   0  0  0  0  0  0  0  0  0  0  0  0
   68.3000   73.0146   94.1811 H   0  0  0  0  0  0  0  0  0  0  0  0
   69.5689   75.7033   91.7416 C   0  0  0  0  0  0  0  0  0  0  0  0
   70.5329   75.4849   92.5248 O   0  0  0  0  0  0  0  0  0  0  0  0
   69.3573   77.0004   91.2820 O   0  0  0  0  0  0  0  0  0  0  0  0
   68.6458   77.1808   90.6996 H   0  0  0  0  0  0  0  0  0  0  0  0
   66.5675   72.2188   87.6520 N   0  0  0  0  0  0  0  0  0  0  0  0
   66.9930   73.3463   88.1371 C   0  0  0  0  0  0  0  0  0  0  0  0
   66.7395   71.0952   85.4195 C   0  0  0  0  0  0  0  0  0  0  0  0
   67.4892   70.1811   85.8569 O   0  0  0  0  0  0  0  0  0  0  0  0
   66.1555   72.0534   86.3164 N   0  0  0  0  0  0  0  0  0  0  0  0
   65.4283   72.6248   85.9789 H   0  0  0  0  0  0  0  0  0  0  0  0
   66.4596   71.1767   83.9516 C   0  0  0  0  0  0  0  0  0  0  0  0
   64.2703   71.1744   82.0141 C   0  0  0  0  0  0  0  0  0  0  0  0
   64.8141   70.5827   83.6026 S   0  0  0  0  0  0  0  0  0  0  0  0
   63.8655   71.0630   84.6649 O   0  0  0  0  0  0  0  0  0  0  0  0
   64.8247   69.0803   83.5922 O   0  0  0  0  0  0  0  0  0  0  0  0
 20 21  1  0  0  0
 21 22  2  0  0  0
 21 23  2  0  0  0
 21 19  1  0  0  0
 19 15  1  0  0  0
 15 16  2  0  0  0
 15 17  1  0  0  0
 17 13  1  0  0  0
 13 14  2  0  0  0
 14  1  1  0  0  0
  1  2  2  0  0  0
  2  3  1  0  0  0
  3  4  2  0  0  0
  4  5  1  0  0  0
  4  6  1  0  0  0
  6  9  1  0  0  0
  9 10  2  0  0  0
  9 11  1  0  0  0
  6  7  2  0  0  0
  7  1  1  0  0  0
 17 18  1  0  0  0
  5  8  1  0  0  0
 11 12  1  0  0  0
M  END
> <score>
0.176673

> <minimizedAffinity>
-6.50101

$$$$
HIPS6785


 23 23  0  0  0  0  0  0  0  0999 V2000
   67.2481   73.7600   89.1510 C   0  0  0  0  0  0  0  0  0  0  0  0
   67.4096   75.1460   89.2658 C   0  0  0  0  0  0  0  0  0  0  0  0
   67.8665   75.7069   90.4580 C   0  0  0  0  0  0  0  0  0  0  0  0
   68.1713   74.8941   91.5581 C   0  0  0  0  0  0  0  0  0  0  0  0
   68.6261   75.4848   92.7368 O   0  0  0  0  0  0  0  0  0  0  0  0
   68.0160   73.4923   91.4633 C   0  0  0  0  0  0  0  0  0  0  0  0
   67.5533   72.9395   90.2519 C   0  0  0  0  0  0  0  0  0  0  0  0
   68.7248   76.4153   92.7868 H   0  0  0  0  0  0  0  0  0  0  0  0
   68.3286   72.5942   92.6062 C   0  0  0  0  0  0  0  0  0  0  0  0
   69.0147   71.5517   92.4249 O   0  0  0  0  0  0  0  0  0  0  0  0
   67.8733   72.8841   93.8895 O   0  0  0  0  0  0  0  0  0  0  0  0
   67.3622   73.6545   94.0425 H   0  0  0  0  0  0  0  0  0  0  0  0
   66.9026   71.9291   87.6086 N   0  0  0  0  0  0  0  0  0  0  0  0
   66.7633   73.1928   87.8759 C   0  0  0  0  0  0  0  0  0  0  0  0
   67.1537   70.2380   85.7775 C   0  0  0  0  0  0  0  0  0  0  0  0
   68.0319   69.5848   86.4031 O   0  0  0  0  0  0  0  0  0  0  0  0
   66.4752   71.3376   86.4051 N   0  0  0  0  0  0  0  0  0  0  0  0
   65.6682   71.6967   85.9703 H   0  0  0  0  0  0  0  0  0  0  0  0
   66.8202   69.8586   84.3688 C   0  0  0  0  0  0  0  0  0  0  0  0
   65.2291   70.5515   82.0160 C   0  0  0  0  0  0  0  0  0  0  0  0
   65.7223   71.0656   83.6474 S   0  0  0  0  0  0  0  0  0  0  0  0
   66.4166   72.3959   83.5623 O   0  0  0  0  0  0  0  0  0  0  0  0
   64.5013   71.1999   84.5126 O   0  0  0  0  0  0  0  0  0  0  0  0
 20 21  1  0  0  0
 21 22  2  0  0  0
 21 23  2  0  0  0
 21 19  1  0  0  0
 19 15  1  0  0  0
 15 16  2  0  0  0
 15 17  1  0  0  0
 17 13  1  0  0  0
 13 14  2  0  0  0
 14  1  1  0  0  0
  1  2  2  0  0  0
  2  3  1  0  0  0
  3  4  2  0  0  0
  4  5  1  0  0  0
  4  6  1  0  0  0
  6  9  1  0  0  0
  9 10  2  0  0  0
  9 11  1  0  0  0
  6  7  2  0  0  0
  7  1  1  0  0  0
 17 18  1  0  0  0
  5  8  1  0  0  0
 11 12  1  0  0  0
M  END
> <score>
0.176673

> <minimizedAffinity>
-6.45027

$$$$
HIPS6786


 21 21  0  0  0  0  0  0  0  0999 V2000
   66.4579   72.7216   86.7832 N   0  0  0  0  0  0  0  0  0  0  0  0
   66.7651   72.5051   88.0244 C   0  0  0  0  0  0  0  0  0  0  0  0
   67.2548   73.5970   88.8887 C   0  0  0  0  0  0  0  0  0  0  0  0
   66.9861   74.9289   88.5455 C   0  0  0  0  0  0  0  0  0  0  0  0
   67.4437   75.9688   89.3564 C   0  0  0  0  0  0  0  0  0  0  0  0
   68.1729   75.6705   90.5149 C   0  0  0  0  0  0  0  0  0  0  0  0
   68.4252   74.3708   90.8325 N   0  0  0  0  0  0  0  0  0  0  0  0
   67.9899   73.3409   90.0586 C   0  0  0  0  0  0  0  0  0  0  0  0
   68.6745   76.7731   91.4008 C   0  0  0  0  0  0  0  0  0  0  0  0
   70.0513   76.6950   91.5054 F   0  0  0  0  0  0  0  0  0  0  0  0
   68.3274   77.9978   90.8603 F   0  0  0  0  0  0  0  0  0  0  0  0
   68.1226   76.6701   92.6661 F   0  0  0  0  0  0  0  0  0  0  0  0
   66.8116   71.2036   84.8847 C   0  0  0  0  0  0  0  0  0  0  0  0
   67.9567   71.6945   84.6927 O   0  0  0  0  0  0  0  0  0  0  0  0
   65.9910   71.6953   85.9473 N   0  0  0  0  0  0  0  0  0  0  0  0
   65.0956   71.3128   86.0930 H   0  0  0  0  0  0  0  0  0  0  0  0
   66.3011   70.1351   83.9692 C   0  0  0  0  0  0  0  0  0  0  0  0
   65.3256   72.0780   82.0141 C   0  0  0  0  0  0  0  0  0  0  0  0
   64.8752   70.7155   83.0672 S   0  0  0  0  0  0  0  0  0  0  0  0
   64.3394   69.5955   82.2209 O   0  0  0  0  0  0  0  0  0  0  0  0
   63.8104   71.1598   84.0302 O   0  0  0  0  0  0  0  0  0  0  0  0
 18 19  1  0  0  0
 19 20  2  0  0  0
 19 21  2  0  0  0
 19 17  1  0  0  0
 17 13  1  0  0  0
 13 14  2  0  0  0
 13 15  1  0  0  0
 15  1  1  0  0  0
  1  2  2  0  0  0
  2  3  1  0  0  0
  3  4  2  0  0  0
  4  5  1  0  0  0
  5  6  2  0  0  0
  6  9  1  0  0  0
  9 10  1  0  0  0
  9 11  1  0  0  0
  9 12  1  0  0  0
  6  7  2  0  0  0
  7  8  2  0  0  0
  8  3  1  0  0  0
 15 16  1  0  0  0
M  END
> <score>
0.98272

> <minimizedAffinity>
-6.83860

$$$$
HIPS6786


 21 21  0  0  0  0  0  0  0  0999 V2000
   68.2173   73.2377   93.6164 N   0  0  0  0  0  0  0  0  0  0  0  0
   67.5791   73.9187   92.7161 C   0  0  0  0  0  0  0  0  0  0  0  0
   67.0338   75.2567   93.0188 C   0  0  0  0  0  0  0  0  0  0  0  0
   66.0487   75.3989   94.0053 C   0  0  0  0  0  0  0  0  0  0  0  0
   65.5271   76.6597   94.2999 C   0  0  0  0  0  0  0  0  0  0  0  0
   65.9958   77.7805   93.6021 C   0  0  0  0  0  0  0  0  0  0  0  0
   66.9527   77.6235   92.6463 N   0  0  0  0  0  0  0  0  0  0  0  0
   67.4761   76.4060   92.3418 C   0  0  0  0  0  0  0  0  0  0  0  0
   65.4487   79.1451   93.9028 C   0  0  0  0  0  0  0  0  0  0  0  0
   64.7423   79.1109   95.0913 F   0  0  0  0  0  0  0  0  0  0  0  0
   66.4896   80.0483   94.0175 F   0  0  0  0  0  0  0  0  0  0  0  0
   64.6024   79.5642   92.8907 F   0  0  0  0  0  0  0  0  0  0  0  0
   70.1463   71.7946   93.1366 C   0  0  0  0  0  0  0  0  0  0  0  0
   70.9173   72.7906   93.1898 O   0  0  0  0  0  0  0  0  0  0  0  0
   68.7422   71.9643   93.3460 N   0  0  0  0  0  0  0  0  0  0  0  0
   68.1417   71.1856   93.3004 H   0  0  0  0  0  0  0  0  0  0  0  0
   70.7033   70.4438   92.8116 C   0  0  0  0  0  0  0  0  0  0  0  0
   72.4922   68.7535   94.3899 C   0  0  0  0  0  0  0  0  0  0  0  0
   70.8623   69.4620   94.2929 S   0  0  0  0  0  0  0  0  0  0  0  0
   70.6349   70.3396   95.4911 O   0  0  0  0  0  0  0  0  0  0  0  0
   69.8392   68.3611   94.2858 O   0  0  0  0  0  0  0  0  0  0  0  0
 18 19  1  0  0  0
 19 20  2  0  0  0
 19 21  2  0  0  0
 19 17  1  0  0  0
 17 13  1  0  0  0
 13 14  2  0  0  0
 13 15  1  0  0  0
 15  1  1  0  0  0
  1  2  2  0  0  0
  2  3  1  0  0  0
  3  4  2  0  0  0
  4  5  1  0  0  0
  5  6  2  0  0  0
  6  9  1  0  0  0
  9 10  1  0  0  0
  9 11  1  0  0  0
  9 12  1  0  0  0
  6  7  2  0  0  0
  7  8  2  0  0  0
  8  3  1  0  0  0
 15 16  1  0  0  0
M  END
> <score>
0.98272

> <minimizedAffinity>
-6.33374

$$$$
HIPS6786


 21 21  0  0  0  0  0  0  0  0999 V2000
   69.8581   74.0999   93.0592 N   0  0  0  0  0  0  0  0  0  0  0  0
   68.5710   74.1736   92.9205 C   0  0  0  0  0  0  0  0  0  0  0  0
   67.8596   75.4560   93.0889 C   0  0  0  0  0  0  0  0  0  0  0  0
   66.5932   75.4750   93.6886 C   0  0  0  0  0  0  0  0  0  0  0  0
   65.9124   76.6824   93.8535 C   0  0  0  0  0  0  0  0  0  0  0  0
   66.5050   77.8738   93.4151 C   0  0  0  0  0  0  0  0  0  0  0  0
   67.7357   77.8365   92.8340 N   0  0  0  0  0  0  0  0  0  0  0  0
   68.4182   76.6730   92.6626 C   0  0  0  0  0  0  0  0  0  0  0  0
   65.7906   79.1830   93.5824 C   0  0  0  0  0  0  0  0  0  0  0  0
   66.5932   80.0636   94.2845 F   0  0  0  0  0  0  0  0  0  0  0  0
   65.5049   79.7186   92.3399 F   0  0  0  0  0  0  0  0  0  0  0  0
   64.6061   79.0060   94.2764 F   0  0  0  0  0  0  0  0  0  0  0  0
   70.6564   71.9743   93.9966 C   0  0  0  0  0  0  0  0  0  0  0  0
   70.1312   72.2555   95.1076 O   0  0  0  0  0  0  0  0  0  0  0  0
   70.5505   72.8890   92.9029 N   0  0  0  0  0  0  0  0  0  0  0  0
   70.9646   72.6688   92.0372 H   0  0  0  0  0  0  0  0  0  0  0  0
   71.4258   70.6996   93.8429 C   0  0  0  0  0  0  0  0  0  0  0  0
   71.5111   69.0594   91.4240 C   0  0  0  0  0  0  0  0  0  0  0  0
   70.5242   69.5462   92.8229 S   0  0  0  0  0  0  0  0  0  0  0  0
   70.1890   68.3282   93.6364 O   0  0  0  0  0  0  0  0  0  0  0  0
   69.2515   70.1823   92.3387 O   0  0  0  0  0  0  0  0  0  0  0  0
 18 19  1  0  0  0
 19 20  2  0  0  0
 19 21  2  0  0  0
 19 17  1  0  0  0
 17 13  1  0  0  0
 13 14  2  0  0  0
 13 15  1  0  0  0
 15  1  1  0  0  0
  1  2  2  0  0  0
  2  3  1  0  0  0
  3  4  2  0  0  0
  4  5  1  0  0  0
  5  6  2  0  0  0
  6  9  1  0  0  0
  9 10  1  0  0  0
  9 11  1  0  0  0
  9 12  1  0  0  0
  6  7  2  0  0  0
  7  8  2  0  0  0
  8  3  1  0  0  0
 15 16  1  0  0  0
M  END
> <score>
0.98272

> <minimizedAffinity>
-6.13172

$$$$
HIPS6787


 21 22  0  0  0  0  0  0  0  0999 V2000
   71.0833   76.2071   91.6907 N   0  0  0  0  0  0  0  0  0  0  0  0
   71.9160   75.7155   91.5062 H   0  0  0  0  0  0  0  0  0  0  0  0
   69.7152   75.3837   92.3492 S   0  0  0  0  0  0  0  0  0  0  0  0
   70.1868   74.2998   93.2778 O   0  0  0  0  0  0  0  0  0  0  0  0
   68.8650   76.3515   93.1230 O   0  0  0  0  0  0  0  0  0  0  0  0
   66.4256   72.9070   87.8866 C   0  0  0  0  0  0  0  0  0  0  0  0
   67.2189   73.5209   89.0019 C   0  0  0  0  0  0  0  0  0  0  0  0
   67.3120   74.9163   89.1189 C   0  0  0  0  0  0  0  0  0  0  0  0
   68.0781   75.4889   90.1388 C   0  0  0  0  0  0  0  0  0  0  0  0
   68.7750   74.6724   91.0404 C   0  0  0  0  0  0  0  0  0  0  0  0
   68.6930   73.2790   90.9174 C   0  0  0  0  0  0  0  0  0  0  0  0
   67.9257   72.7056   89.8991 C   0  0  0  0  0  0  0  0  0  0  0  0
   70.9997   77.5805   91.4207 N   0  0  0  0  0  0  0  0  0  0  0  0
   70.3817   78.0386   90.3779 C   0  0  0  0  0  0  0  0  0  0  0  0
   70.3031   79.4896   90.1231 C   0  0  0  0  0  0  0  0  0  0  0  0
   71.4326   80.3194   90.1922 C   0  0  0  0  0  0  0  0  0  0  0  0
   71.3135   81.6508   89.9525 N   0  0  0  0  0  0  0  0  0  0  0  0
   70.1129   82.2014   89.6329 C   0  0  0  0  0  0  0  0  0  0  0  0
   70.0013   83.6727   89.4109 C   0  0  0  0  0  0  0  0  0  0  0  0
   69.0032   81.4187   89.5753 N   0  0  0  0  0  0  0  0  0  0  0  0
   69.0751   80.0825   89.8077 C   0  0  0  0  0  0  0  0  0  0  0  0
  6  7  1  0  0  0
  7  8  2  0  0  0
  8  9  1  0  0  0
  9 10  2  0  0  0
 10  3  1  0  0  0
  3  4  2  0  0  0
  3  5  2  0  0  0
  3  1  1  0  0  0
  1 13  1  0  0  0
 13 14  2  0  0  0
 14 15  1  0  0  0
 15 16  2  0  0  0
 16 17  2  0  0  0
 17 18  2  0  0  0
 18 19  1  0  0  0
 18 20  2  0  0  0
 20 21  2  0  0  0
 10 11  1  0  0  0
 11 12  2  0  0  0
 12  7  1  0  0  0
 21 15  1  0  0  0
  1  2  1  0  0  0
M  END
> <score>
1.007412

> <minimizedAffinity>
-6.95288

$$$$
HIPS6787


 21 22  0  0  0  0  0  0  0  0999 V2000
   70.1998   78.8620   90.4532 N   0  0  0  0  0  0  0  0  0  0  0  0
   70.9188   78.3721   90.9140 H   0  0  0  0  0  0  0  0  0  0  0  0
   68.6179   78.1784   90.3371 S   0  0  0  0  0  0  0  0  0  0  0  0
   67.7339   78.7893   91.3881 O   0  0  0  0  0  0  0  0  0  0  0  0
   68.0372   78.4715   88.9824 O   0  0  0  0  0  0  0  0  0  0  0  0
   68.9789   72.1684   91.1250 C   0  0  0  0  0  0  0  0  0  0  0  0
   68.9082   73.6522   90.9161 C   0  0  0  0  0  0  0  0  0  0  0  0
   69.6945   74.5145   91.6956 C   0  0  0  0  0  0  0  0  0  0  0  0
   69.6048   75.8992   91.5238 C   0  0  0  0  0  0  0  0  0  0  0  0
   68.7137   76.4370   90.5849 C   0  0  0  0  0  0  0  0  0  0  0  0
   67.9188   75.5778   89.8144 C   0  0  0  0  0  0  0  0  0  0  0  0
   68.0093   74.1931   89.9840 C   0  0  0  0  0  0  0  0  0  0  0  0
   70.4531   80.1194   89.8867 N   0  0  0  0  0  0  0  0  0  0  0  0
   71.4243   80.8735   90.2960 C   0  0  0  0  0  0  0  0  0  0  0  0
   71.6722   82.1890   89.6760 C   0  0  0  0  0  0  0  0  0  0  0  0
   72.8990   82.8565   89.8124 C   0  0  0  0  0  0  0  0  0  0  0  0
   73.0825   84.0679   89.2265 N   0  0  0  0  0  0  0  0  0  0  0  0
   72.0967   84.6491   88.4937 C   0  0  0  0  0  0  0  0  0  0  0  0
   72.3101   85.9975   87.8912 C   0  0  0  0  0  0  0  0  0  0  0  0
   70.8955   84.0272   88.3612 N   0  0  0  0  0  0  0  0  0  0  0  0
   70.6671   82.8152   88.9298 C   0  0  0  0  0  0  0  0  0  0  0  0
  6  7  1  0  0  0
  7  8  2  0  0  0
  8  9  1  0  0  0
  9 10  2  0  0  0
 10  3  1  0  0  0
  3  4  2  0  0  0
  3  5  2  0  0  0
  3  1  1  0  0  0
  1 13  1  0  0  0
 13 14  2  0  0  0
 14 15  1  0  0  0
 15 16  2  0  0  0
 16 17  2  0  0  0
 17 18  2  0  0  0
 18 19  1  0  0  0
 18 20  2  0  0  0
 20 21  2  0  0  0
 10 11  1  0  0  0
 11 12  2  0  0  0
 12  7  1  0  0  0
 21 15  1  0  0  0
  1  2  1  0  0  0
M  END
> <score>
1.007412

> <minimizedAffinity>
-6.64673

$$$$
HIPS6787


 21 22  0  0  0  0  0  0  0  0999 V2000
   69.9029   78.8524   90.5240 N   0  0  0  0  0  0  0  0  0  0  0  0
   70.5004   78.4528   91.1967 H   0  0  0  0  0  0  0  0  0  0  0  0
   68.4600   78.0321   90.0460 S   0  0  0  0  0  0  0  0  0  0  0  0
   67.2974   78.5735   90.8298 O   0  0  0  0  0  0  0  0  0  0  0  0
   68.2085   78.2602   88.5821 O   0  0  0  0  0  0  0  0  0  0  0  0
   69.0357   72.0999   91.2070 C   0  0  0  0  0  0  0  0  0  0  0  0
   68.8759   73.5664   90.9355 C   0  0  0  0  0  0  0  0  0  0  0  0
   67.9381   74.0129   89.9917 C   0  0  0  0  0  0  0  0  0  0  0  0
   67.8116   75.3775   89.7144 C   0  0  0  0  0  0  0  0  0  0  0  0
   68.6349   76.3082   90.3632 C   0  0  0  0  0  0  0  0  0  0  0  0
   69.5803   75.8629   91.2968 C   0  0  0  0  0  0  0  0  0  0  0  0
   69.7061   74.4989   91.5762 C   0  0  0  0  0  0  0  0  0  0  0  0
   70.2174   80.0913   89.9476 N   0  0  0  0  0  0  0  0  0  0  0  0
   71.2160   80.8066   90.3604 C   0  0  0  0  0  0  0  0  0  0  0  0
   71.5282   82.1033   89.7298 C   0  0  0  0  0  0  0  0  0  0  0  0
   72.7855   82.7120   89.8634 C   0  0  0  0  0  0  0  0  0  0  0  0
   73.0284   83.9080   89.2676 N   0  0  0  0  0  0  0  0  0  0  0  0
   72.0732   84.5297   88.5275 C   0  0  0  0  0  0  0  0  0  0  0  0
   72.3526   85.8610   87.9140 C   0  0  0  0  0  0  0  0  0  0  0  0
   70.8437   83.9653   88.3975 N   0  0  0  0  0  0  0  0  0  0  0  0
   70.5561   82.7707   88.9759 C   0  0  0  0  0  0  0  0  0  0  0  0
  6  7  1  0  0  0
  7  8  2  0  0  0
  8  9  1  0  0  0
  9 10  2  0  0  0
 10  3  1  0  0  0
  3  4  2  0  0  0
  3  5  2  0  0  0
  3  1  1  0  0  0
  1 13  1  0  0  0
 13 14  2  0  0  0
 14 15  1  0  0  0
 15 16  2  0  0  0
 16 17  2  0  0  0
 17 18  2  0  0  0
 18 19  1  0  0  0
 18 20  2  0  0  0
 20 21  2  0  0  0
 10 11  1  0  0  0
 11 12  2  0  0  0
 12  7  1  0  0  0
 21 15  1  0  0  0
  1  2  1  0  0  0
M  END
> <score>
1.007412

> <minimizedAffinity>
-6.63698

$$$$
HIPS6788


 22 23  0  0  0  0  0  0  0  0999 V2000
   70.1507   78.4843   90.4980 N   0  0  0  0  0  0  0  0  0  0  0  0
   70.6660   77.3645   90.9010 C   0  0  0  0  0  0  0  0  0  0  0  0
   69.8078   76.2266   91.2854 C   0  0  0  0  0  0  0  0  0  0  0  0
   68.8076   75.7833   90.4095 C   0  0  0  0  0  0  0  0  0  0  0  0
   67.9907   74.7082   90.7633 C   0  0  0  0  0  0  0  0  0  0  0  0
   68.1785   74.0765   91.9998 C   0  0  0  0  0  0  0  0  0  0  0  0
   69.1551   74.5206   92.8381 N   0  0  0  0  0  0  0  0  0  0  0  0
   69.9631   75.5656   92.5159 C   0  0  0  0  0  0  0  0  0  0  0  0
   67.3114   72.9190   92.4000 C   0  0  0  0  0  0  0  0  0  0  0  0
   66.3562   73.3447   93.3049 F   0  0  0  0  0  0  0  0  0  0  0  0
   66.6816   72.4020   91.2825 F   0  0  0  0  0  0  0  0  0  0  0  0
   68.0711   71.9220   92.9869 F   0  0  0  0  0  0  0  0  0  0  0  0
   69.1549   81.0450   90.3197 O   0  0  0  0  0  0  0  0  0  0  0  0
   70.3768   80.8879   90.0524 C   0  0  0  0  0  0  0  0  0  0  0  0
   70.9502   79.5776   90.1283 N   0  0  0  0  0  0  0  0  0  0  0  0
   71.9034   79.4438   89.9215 H   0  0  0  0  0  0  0  0  0  0  0  0
   71.1823   82.0630   89.6679 C   0  0  0  0  0  0  0  0  0  0  0  0
   72.4790   82.3696   90.0818 C   0  0  0  0  0  0  0  0  0  0  0  0
   72.9684   83.5628   89.5358 C   0  0  0  0  0  0  0  0  0  0  0  0
   72.0623   84.1921   88.6968 C   0  0  0  0  0  0  0  0  0  0  0  0
   72.3316   85.6971   87.8435 Cl  0  0  0  0  0  0  0  0  0  0  0  0
   70.6556   83.2792   88.6259 S   0  0  0  0  0  0  0  0  0  0  0  0
 13 14  2  0  0  0
 14 15  1  0  0  0
 15  1  1  0  0  0
  1  2  2  0  0  0
  2  3  1  0  0  0
  3  4  2  0  0  0
  4  5  1  0  0  0
  5  6  2  0  0  0
  6  9  1  0  0  0
  9 10  1  0  0  0
  9 11  1  0  0  0
  9 12  1  0  0  0
  6  7  2  0  0  0
  7  8  2  0  0  0
 14 17  1  0  0  0
 17 18  2  0  0  0
 18 19  1  0  0  0
 19 20  2  0  0  0
 20 21  1  0  0  0
 20 22  1  0  0  0
  8  3  1  0  0  0
 22 17  1  0  0  0
 15 16  1  0  0  0
M  END
> <score>
1.032103

> <minimizedAffinity>
-6.69294

$$$$
HIPS6788


 22 23  0  0  0  0  0  0  0  0999 V2000
   70.4874   80.4049   90.1162 N   0  0  0  0  0  0  0  0  0  0  0  0
   71.2847   79.4089   90.3497 C   0  0  0  0  0  0  0  0  0  0  0  0
   70.7555   78.0791   90.7108 C   0  0  0  0  0  0  0  0  0  0  0  0
   69.5095   77.6693   90.2175 C   0  0  0  0  0  0  0  0  0  0  0  0
   69.0000   76.4138   90.5528 C   0  0  0  0  0  0  0  0  0  0  0  0
   69.7437   75.5674   91.3857 C   0  0  0  0  0  0  0  0  0  0  0  0
   70.9523   75.9820   91.8557 N   0  0  0  0  0  0  0  0  0  0  0  0
   71.4694   77.2001   91.5431 C   0  0  0  0  0  0  0  0  0  0  0  0
   69.2146   74.2135   91.7587 C   0  0  0  0  0  0  0  0  0  0  0  0
   68.0228   74.3534   92.4460 F   0  0  0  0  0  0  0  0  0  0  0  0
   68.9957   73.4687   90.6143 F   0  0  0  0  0  0  0  0  0  0  0  0
   70.1191   73.5424   92.5632 F   0  0  0  0  0  0  0  0  0  0  0  0
   68.9910   82.2102   88.6733 O   0  0  0  0  0  0  0  0  0  0  0  0
   70.1472   82.5745   89.0190 C   0  0  0  0  0  0  0  0  0  0  0  0
   70.9716   81.6769   89.7715 N   0  0  0  0  0  0  0  0  0  0  0  0
   71.8761   81.9514   90.0466 H   0  0  0  0  0  0  0  0  0  0  0  0
   70.6183   83.9197   88.6366 C   0  0  0  0  0  0  0  0  0  0  0  0
   69.8372   85.0095   88.2508 C   0  0  0  0  0  0  0  0  0  0  0  0
   70.5887   86.1520   87.9489 C   0  0  0  0  0  0  0  0  0  0  0  0
   71.9538   85.9629   88.0963 C   0  0  0  0  0  0  0  0  0  0  0  0
   73.1913   87.1673   87.8072 Cl  0  0  0  0  0  0  0  0  0  0  0  0
   72.2377   84.3868   88.5990 S   0  0  0  0  0  0  0  0  0  0  0  0
 13 14  2  0  0  0
 14 15  1  0  0  0
 15  1  1  0  0  0
  1  2  2  0  0  0
  2  3  1  0  0  0
  3  4  2  0  0  0
  4  5  1  0  0  0
  5  6  2  0  0  0
  6  9  1  0  0  0
  9 10  1  0  0  0
  9 11  1  0  0  0
  9 12  1  0  0  0
  6  7  2  0  0  0
  7  8  2  0  0  0
 14 17  1  0  0  0
 17 18  2  0  0  0
 18 19  1  0  0  0
 19 20  2  0  0  0
 20 21  1  0  0  0
 20 22  1  0  0  0
  8  3  1  0  0  0
 22 17  1  0  0  0
 15 16  1  0  0  0
M  END
> <score>
1.032103

> <minimizedAffinity>
-6.65603

$$$$
HIPS6788


 22 23  0  0  0  0  0  0  0  0999 V2000
   69.1857   79.2264   90.5420 N   0  0  0  0  0  0  0  0  0  0  0  0
   69.6685   78.1688   89.9671 C   0  0  0  0  0  0  0  0  0  0  0  0
   69.6142   76.8507   90.6295 C   0  0  0  0  0  0  0  0  0  0  0  0
   68.6050   75.9411   90.2860 C   0  0  0  0  0  0  0  0  0  0  0  0
   68.5446   74.6922   90.9063 C   0  0  0  0  0  0  0  0  0  0  0  0
   69.5003   74.3556   91.8741 C   0  0  0  0  0  0  0  0  0  0  0  0
   70.4736   75.2517   92.1953 N   0  0  0  0  0  0  0  0  0  0  0  0
   70.5531   76.4740   91.6050 C   0  0  0  0  0  0  0  0  0  0  0  0
   69.4538   73.0183   92.5534 C   0  0  0  0  0  0  0  0  0  0  0  0
   69.7349   72.0214   91.6369 F   0  0  0  0  0  0  0  0  0  0  0  0
   70.3912   72.9803   93.5694 F   0  0  0  0  0  0  0  0  0  0  0  0
   68.1999   72.7898   93.0927 F   0  0  0  0  0  0  0  0  0  0  0  0
   71.4910   80.7263   90.4137 O   0  0  0  0  0  0  0  0  0  0  0  0
   70.4568   81.2234   89.8916 C   0  0  0  0  0  0  0  0  0  0  0  0
   69.2280   80.4883   89.9281 N   0  0  0  0  0  0  0  0  0  0  0  0
   68.4145   80.8673   89.5235 H   0  0  0  0  0  0  0  0  0  0  0  0
   70.5437   82.5526   89.2564 C   0  0  0  0  0  0  0  0  0  0  0  0
   71.6584   83.3898   89.1998 C   0  0  0  0  0  0  0  0  0  0  0  0
   71.4165   84.5911   88.5218 C   0  0  0  0  0  0  0  0  0  0  0  0
   70.1188   84.6991   88.0473 C   0  0  0  0  0  0  0  0  0  0  0  0
   69.4639   86.0572   87.1572 Cl  0  0  0  0  0  0  0  0  0  0  0  0
   69.2663   83.3140   88.4623 S   0  0  0  0  0  0  0  0  0  0  0  0
 13 14  2  0  0  0
 14 15  1  0  0  0
 15  1  1  0  0  0
  1  2  2  0  0  0
  2  3  1  0  0  0
  3  4  2  0  0  0
  4  5  1  0  0  0
  5  6  2  0  0  0
  6  9  1  0  0  0
  9 10  1  0  0  0
  9 11  1  0  0  0
  9 12  1  0  0  0
  6  7  2  0  0  0
  7  8  2  0  0  0
 14 17  1  0  0  0
 17 18  2  0  0  0
 18 19  1  0  0  0
 19 20  2  0  0  0
 20 21  1  0  0  0
 20 22  1  0  0  0
  8  3  1  0  0  0
 22 17  1  0  0  0
 15 16  1  0  0  0
M  END
> <score>
1.032103

> <minimizedAffinity>
-6.58317

$$$$
HIPS6789


 21 22  0  0  0  0  0  0  0  0999 V2000
   69.9170   78.2506   90.4883 N   0  0  0  0  0  0  0  0  0  0  0  0
   70.3427   77.3512   91.3196 C   0  0  0  0  0  0  0  0  0  0  0  0
   69.4956   76.2057   91.7200 C   0  0  0  0  0  0  0  0  0  0  0  0
   68.8705   75.4465   90.7163 C   0  0  0  0  0  0  0  0  0  0  0  0
   68.0618   74.3562   91.0489 C   0  0  0  0  0  0  0  0  0  0  0  0
   67.8656   74.0083   92.3875 C   0  0  0  0  0  0  0  0  0  0  0  0
   67.0569   72.9191   92.7040 O   0  0  0  0  0  0  0  0  0  0  0  0
   68.4831   74.7569   93.3971 C   0  0  0  0  0  0  0  0  0  0  0  0
   69.2941   75.8498   93.0718 C   0  0  0  0  0  0  0  0  0  0  0  0
   69.8747   76.5497   94.0793 F   0  0  0  0  0  0  0  0  0  0  0  0
   66.6483   72.4247   92.0209 H   0  0  0  0  0  0  0  0  0  0  0  0
   68.9694   80.8353   90.4733 O   0  0  0  0  0  0  0  0  0  0  0  0
   70.1659   80.6641   90.1148 C   0  0  0  0  0  0  0  0  0  0  0  0
   70.7135   79.3406   90.1028 N   0  0  0  0  0  0  0  0  0  0  0  0
   71.6467   79.1956   89.8246 H   0  0  0  0  0  0  0  0  0  0  0  0
   70.9689   81.8364   89.7171 C   0  0  0  0  0  0  0  0  0  0  0  0
   72.2564   82.1622   90.1447 C   0  0  0  0  0  0  0  0  0  0  0  0
   72.7458   83.3466   89.5802 C   0  0  0  0  0  0  0  0  0  0  0  0
   71.8488   83.9501   88.7129 C   0  0  0  0  0  0  0  0  0  0  0  0
   72.1208   85.4378   87.8306 Cl  0  0  0  0  0  0  0  0  0  0  0  0
   70.4501   83.0252   88.6399 S   0  0  0  0  0  0  0  0  0  0  0  0
 12 13  2  0  0  0
 13 14  1  0  0  0
 14  1  1  0  0  0
  1  2  2  0  0  0
  2  3  1  0  0  0
  3  4  2  0  0  0
  4  5  1  0  0  0
  5  6  2  0  0  0
  6  7  1  0  0  0
  6  8  1  0  0  0
  8  9  2  0  0  0
  9 10  1  0  0  0
 13 16  1  0  0  0
 16 17  2  0  0  0
 17 18  1  0  0  0
 18 19  2  0  0  0
 19 20  1  0  0  0
 19 21  1  0  0  0
  9  3  1  0  0  0
 21 16  1  0  0  0
 14 15  1  0  0  0
  7 11  1  0  0  0
M  END
> <score>
0.35716

> <minimizedAffinity>
-6.33115

$$$$
HIPS6789


 21 22  0  0  0  0  0  0  0  0999 V2000
   70.3946   80.3043   89.8543 N   0  0  0  0  0  0  0  0  0  0  0  0
   71.3781   81.1076   90.1162 C   0  0  0  0  0  0  0  0  0  0  0  0
   71.4309   82.4749   89.5527 C   0  0  0  0  0  0  0  0  0  0  0  0
   70.2373   83.0655   89.1042 C   0  0  0  0  0  0  0  0  0  0  0  0
   70.2406   84.3549   88.5649 C   0  0  0  0  0  0  0  0  0  0  0  0
   71.4347   85.0729   88.4656 C   0  0  0  0  0  0  0  0  0  0  0  0
   71.4227   86.3571   87.9259 O   0  0  0  0  0  0  0  0  0  0  0  0
   72.6309   84.4954   88.9091 C   0  0  0  0  0  0  0  0  0  0  0  0
   72.6355   83.2051   89.4501 C   0  0  0  0  0  0  0  0  0  0  0  0
   73.8155   82.6810   89.8686 F   0  0  0  0  0  0  0  0  0  0  0  0
   70.6169   86.7343   87.6321 H   0  0  0  0  0  0  0  0  0  0  0  0
   68.4057   78.5252   89.1778 O   0  0  0  0  0  0  0  0  0  0  0  0
   69.2770   78.1232   89.9955 C   0  0  0  0  0  0  0  0  0  0  0  0
   70.3361   79.0056   90.3844 N   0  0  0  0  0  0  0  0  0  0  0  0
   71.0218   78.7020   91.0222 H   0  0  0  0  0  0  0  0  0  0  0  0
   69.1791   76.7510   90.5291 C   0  0  0  0  0  0  0  0  0  0  0  0
   68.3062   75.7445   90.1149 C   0  0  0  0  0  0  0  0  0  0  0  0
   68.4628   74.5471   90.8241 C   0  0  0  0  0  0  0  0  0  0  0  0
   69.4535   74.6106   91.7914 C   0  0  0  0  0  0  0  0  0  0  0  0
   69.9225   73.3081   92.8634 Cl  0  0  0  0  0  0  0  0  0  0  0  0
   70.1386   76.1427   91.7747 S   0  0  0  0  0  0  0  0  0  0  0  0
 12 13  2  0  0  0
 13 14  1  0  0  0
 14  1  1  0  0  0
  1  2  2  0  0  0
  2  3  1  0  0  0
  3  4  2  0  0  0
  4  5  1  0  0  0
  5  6  2  0  0  0
  6  7  1  0  0  0
  6  8  1  0  0  0
  8  9  2  0  0  0
  9 10  1  0  0  0
 13 16  1  0  0  0
 16 17  2  0  0  0
 17 18  1  0  0  0
 18 19  2  0  0  0
 19 20  1  0  0  0
 19 21  1  0  0  0
  9  3  1  0  0  0
 21 16  1  0  0  0
 14 15  1  0  0  0
  7 11  1  0  0  0
M  END
> <score>
0.35716

> <minimizedAffinity>
-6.21882

$$$$
HIPS6789


 21 22  0  0  0  0  0  0  0  0999 V2000
   67.8779   77.8367   91.7240 N   0  0  0  0  0  0  0  0  0  0  0  0
   67.3309   77.8694   92.8991 C   0  0  0  0  0  0  0  0  0  0  0  0
   67.2056   76.6498   93.7279 C   0  0  0  0  0  0  0  0  0  0  0  0
   65.9321   76.0823   93.9035 C   0  0  0  0  0  0  0  0  0  0  0  0
   65.7674   74.9307   94.6781 C   0  0  0  0  0  0  0  0  0  0  0  0
   66.8708   74.3293   95.2882 C   0  0  0  0  0  0  0  0  0  0  0  0
   66.6914   73.1819   96.0574 O   0  0  0  0  0  0  0  0  0  0  0  0
   68.1452   74.8853   95.1208 C   0  0  0  0  0  0  0  0  0  0  0  0
   68.3179   76.0380   94.3468 C   0  0  0  0  0  0  0  0  0  0  0  0
   69.5691   76.5457   94.2090 F   0  0  0  0  0  0  0  0  0  0  0  0
   65.8344   72.8179   96.1630 H   0  0  0  0  0  0  0  0  0  0  0  0
   66.3596   78.2376   89.4628 O   0  0  0  0  0  0  0  0  0  0  0  0
   67.1839   79.1424   89.7645 C   0  0  0  0  0  0  0  0  0  0  0  0
   68.0011   78.9884   90.9307 N   0  0  0  0  0  0  0  0  0  0  0  0
   68.6481   79.6890   91.1755 H   0  0  0  0  0  0  0  0  0  0  0  0
   67.2822   80.3372   88.9041 C   0  0  0  0  0  0  0  0  0  0  0  0
   67.2894   80.3747   87.5094 C   0  0  0  0  0  0  0  0  0  0  0  0
   67.3950   81.6707   86.9894 C   0  0  0  0  0  0  0  0  0  0  0  0
   67.4705   82.6481   87.9692 C   0  0  0  0  0  0  0  0  0  0  0  0
   67.6097   84.3708   87.6882 Cl  0  0  0  0  0  0  0  0  0  0  0  0
   67.4074   81.9172   89.4788 S   0  0  0  0  0  0  0  0  0  0  0  0
 12 13  2  0  0  0
 13 14  1  0  0  0
 14  1  1  0  0  0
  1  2  2  0  0  0
  2  3  1  0  0  0
  3  4  2  0  0  0
  4  5  1  0  0  0
  5  6  2  0  0  0
  6  7  1  0  0  0
  6  8  1  0  0  0
  8  9  2  0  0  0
  9 10  1  0  0  0
 13 16  1  0  0  0
 16 17  2  0  0  0
 17 18  1  0  0  0
 18 19  2  0  0  0
 19 20  1  0  0  0
 19 21  1  0  0  0
  9  3  1  0  0  0
 21 16  1  0  0  0
 14 15  1  0  0  0
  7 11  1  0  0  0
M  END
> <score>
0.35716

> <minimizedAffinity>
-6.18088

$$$$
HIPS6790


 24 26  0  0  0  0  0  0  0  0999 V2000
   68.6102   74.1971   94.7629 C   0  0  0  0  0  0  0  0  0  0  0  0
   68.9192   75.2000   93.8258 C   0  0  0  0  0  0  0  0  0  0  0  0
   67.9483   76.1359   93.4216 C   0  0  0  0  0  0  0  0  0  0  0  0
   66.6656   76.0655   93.9681 C   0  0  0  0  0  0  0  0  0  0  0  0
   66.3515   75.0912   94.9153 C   0  0  0  0  0  0  0  0  0  0  0  0
   67.3142   74.1681   95.3364 C   0  0  0  0  0  0  0  0  0  0  0  0
   66.9545   73.2690   96.3430 O   0  0  0  0  0  0  0  0  0  0  0  0
   66.0863   73.2830   96.6953 H   0  0  0  0  0  0  0  0  0  0  0  0
   70.6295   73.0118   94.3117 O   0  0  0  0  0  0  0  0  0  0  0  0
   69.6490   73.1924   95.0820 C   0  0  0  0  0  0  0  0  0  0  0  0
   69.5801   72.4803   96.2766 O   0  0  0  0  0  0  0  0  0  0  0  0
   68.8552   72.6071   96.8566 H   0  0  0  0  0  0  0  0  0  0  0  0
   68.2117   77.1405   92.4747 O   0  0  0  0  0  0  0  0  0  0  0  0
   69.0795   77.0015   91.3471 C   0  0  0  0  0  0  0  0  0  0  0  0
   68.3185   76.7362   90.0578 C   0  0  0  0  0  0  0  0  0  0  0  0
   68.0743   77.8029   89.1695 C   0  0  0  0  0  0  0  0  0  0  0  0
   67.3555   77.6073   87.9921 C   0  0  0  0  0  0  0  0  0  0  0  0
   66.8832   76.3417   87.6588 C   0  0  0  0  0  0  0  0  0  0  0  0
   67.1501   75.2474   88.4907 C   0  0  0  0  0  0  0  0  0  0  0  0
   66.6965   73.9695   88.1272 C   0  0  0  0  0  0  0  0  0  0  0  0
   66.9815   72.8663   88.9308 C   0  0  0  0  0  0  0  0  0  0  0  0
   67.7275   73.0252   90.0973 C   0  0  0  0  0  0  0  0  0  0  0  0
   68.1837   74.2898   90.4772 C   0  0  0  0  0  0  0  0  0  0  0  0
   67.8899   75.4282   89.6927 C   0  0  0  0  0  0  0  0  0  0  0  0
  9 10  2  0  0  0
 10 11  1  0  0  0
 10  1  1  0  0  0
  1  2  2  0  0  0
  2  3  1  0  0  0
  3 13  1  0  0  0
 13 14  1  0  0  0
 14 15  1  0  0  0
 15 16  2  0  0  0
 16 17  1  0  0  0
 17 18  2  0  0  0
 18 19  1  0  0  0
 19 20  2  0  0  0
 20 21  1  0  0  0
 21 22  2  0  0  0
 22 23  1  0  0  0
 23 24  2  0  0  0
  3  4  2  0  0  0
  4  5  1  0  0  0
  5  6  2  0  0  0
  6  7  1  0  0  0
  6  1  1  0  0  0
 24 15  1  0  0  0
 24 19  1  0  0  0
 11 12  1  0  0  0
  7  8  1  0  0  0
M  END
> <score>
0.107624

> <minimizedAffinity>
-8.45548

$$$$
HIPS6790


 24 26  0  0  0  0  0  0  0  0999 V2000
   69.0265   77.1608   91.7115 C   0  0  0  0  0  0  0  0  0  0  0  0
   68.7449   78.3225   90.9695 C   0  0  0  0  0  0  0  0  0  0  0  0
   69.7563   78.9798   90.2436 C   0  0  0  0  0  0  0  0  0  0  0  0
   71.0525   78.4615   90.2598 C   0  0  0  0  0  0  0  0  0  0  0  0
   71.3414   77.2977   90.9719 C   0  0  0  0  0  0  0  0  0  0  0  0
   70.3396   76.6276   91.6816 C   0  0  0  0  0  0  0  0  0  0  0  0
   70.6811   75.4273   92.3090 O   0  0  0  0  0  0  0  0  0  0  0  0
   71.5616   75.1097   92.2652 H   0  0  0  0  0  0  0  0  0  0  0  0
   66.7483   76.5809   92.1111 O   0  0  0  0  0  0  0  0  0  0  0  0
   67.9397   76.5658   92.5209 C   0  0  0  0  0  0  0  0  0  0  0  0
   68.2403   75.9253   93.7203 O   0  0  0  0  0  0  0  0  0  0  0  0
   69.1231   75.9083   94.0339 H   0  0  0  0  0  0  0  0  0  0  0  0
   69.5199   80.1525   89.5059 O   0  0  0  0  0  0  0  0  0  0  0  0
   69.4662   81.4722   90.0530 C   0  0  0  0  0  0  0  0  0  0  0  0
   70.6385   82.3329   89.6093 C   0  0  0  0  0  0  0  0  0  0  0  0
   71.9087   82.1145   90.1798 C   0  0  0  0  0  0  0  0  0  0  0  0
   73.0019   82.9008   89.8219 C   0  0  0  0  0  0  0  0  0  0  0  0
   72.8630   83.9068   88.8709 C   0  0  0  0  0  0  0  0  0  0  0  0
   71.6289   84.1200   88.2445 C   0  0  0  0  0  0  0  0  0  0  0  0
   71.5093   85.1164   87.2627 C   0  0  0  0  0  0  0  0  0  0  0  0
   70.2942   85.3188   86.6095 C   0  0  0  0  0  0  0  0  0  0  0  0
   69.1918   84.5254   86.9219 C   0  0  0  0  0  0  0  0  0  0  0  0
   69.2909   83.5318   87.8990 C   0  0  0  0  0  0  0  0  0  0  0  0
   70.5043   83.3205   88.5924 C   0  0  0  0  0  0  0  0  0  0  0  0
  9 10  2  0  0  0
 10 11  1  0  0  0
 10  1  1  0  0  0
  1  2  2  0  0  0
  2  3  1  0  0  0
  3 13  1  0  0  0
 13 14  1  0  0  0
 14 15  1  0  0  0
 15 16  2  0  0  0
 16 17  1  0  0  0
 17 18  2  0  0  0
 18 19  1  0  0  0
 19 20  2  0  0  0
 20 21  1  0  0  0
 21 22  2  0  0  0
 22 23  1  0  0  0
 23 24  2  0  0  0
  3  4  2  0  0  0
  4  5  1  0  0  0
  5  6  2  0  0  0
  6  7  1  0  0  0
  6  1  1  0  0  0
 24 15  1  0  0  0
 24 19  1  0  0  0
 11 12  1  0  0  0
  7  8  1  0  0  0
M  END
> <score>
0.107624

> <minimizedAffinity>
-8.02242

$$$$
HIPS6790


 24 26  0  0  0  0  0  0  0  0999 V2000
   70.9538   77.5327   90.8518 C   0  0  0  0  0  0  0  0  0  0  0  0
   70.3887   78.6660   90.2387 C   0  0  0  0  0  0  0  0  0  0  0  0
   68.9938   78.8545   90.2135 C   0  0  0  0  0  0  0  0  0  0  0  0
   68.1671   77.9027   90.8134 C   0  0  0  0  0  0  0  0  0  0  0  0
   68.7144   76.7863   91.4450 C   0  0  0  0  0  0  0  0  0  0  0  0
   70.0997   76.5992   91.4908 C   0  0  0  0  0  0  0  0  0  0  0  0
   70.5828   75.5005   92.2052 O   0  0  0  0  0  0  0  0  0  0  0  0
   69.9836   74.9067   92.6131 H   0  0  0  0  0  0  0  0  0  0  0  0
   73.0777   76.9582   91.7710 O   0  0  0  0  0  0  0  0  0  0  0  0
   72.4202   77.3500   90.7702 C   0  0  0  0  0  0  0  0  0  0  0  0
   73.0771   77.5515   89.5590 O   0  0  0  0  0  0  0  0  0  0  0  0
   72.5974   77.8428   88.8087 H   0  0  0  0  0  0  0  0  0  0  0  0
   68.3896   79.9626   89.5952 O   0  0  0  0  0  0  0  0  0  0  0  0
   68.4815   81.3132   90.0551 C   0  0  0  0  0  0  0  0  0  0  0  0
   69.0836   82.2418   89.0126 C   0  0  0  0  0  0  0  0  0  0  0  0
   68.2732   82.7153   87.9611 C   0  0  0  0  0  0  0  0  0  0  0  0
   68.7943   83.5442   86.9697 C   0  0  0  0  0  0  0  0  0  0  0  0
   70.1271   83.9410   87.0138 C   0  0  0  0  0  0  0  0  0  0  0  0
   70.9501   83.5329   88.0708 C   0  0  0  0  0  0  0  0  0  0  0  0
   72.2843   83.9666   88.1218 C   0  0  0  0  0  0  0  0  0  0  0  0
   73.1060   83.5927   89.1844 C   0  0  0  0  0  0  0  0  0  0  0  0
   72.6035   82.7919   90.2085 C   0  0  0  0  0  0  0  0  0  0  0  0
   71.2795   82.3474   90.1726 C   0  0  0  0  0  0  0  0  0  0  0  0
   70.4317   82.6930   89.0958 C   0  0  0  0  0  0  0  0  0  0  0  0
  9 10  2  0  0  0
 10 11  1  0  0  0
 10  1  1  0  0  0
  1  2  2  0  0  0
  2  3  1  0  0  0
  3 13  1  0  0  0
 13 14  1  0  0  0
 14 15  1  0  0  0
 15 16  2  0  0  0
 16 17  1  0  0  0
 17 18  2  0  0  0
 18 19  1  0  0  0
 19 20  2  0  0  0
 20 21  1  0  0  0
 21 22  2  0  0  0
 22 23  1  0  0  0
 23 24  2  0  0  0
  3  4  2  0  0  0
  4  5  1  0  0  0
  5  6  2  0  0  0
  6  7  1  0  0  0
  6  1  1  0  0  0
 24 15  1  0  0  0
 24 19  1  0  0  0
 11 12  1  0  0  0
  7  8  1  0  0  0
M  END
> <score>
0.107624

> <minimizedAffinity>
-7.83336

$$$$
HIPS6794


 25 27  0  0  0  0  0  0  0  0999 V2000
   71.0159   79.8136   90.1814 C   0  0  0  0  0  0  0  0  0  0  0  0
   69.9446   78.7894   90.3882 C   0  0  0  0  0  0  0  0  0  0  0  0
   68.6040   79.0495   90.5822 C   0  0  0  0  0  0  0  0  0  0  0  0
   68.0041   77.8178   90.7298 C   0  0  0  0  0  0  0  0  0  0  0  0
   69.0185   76.8781   90.6123 C   0  0  0  0  0  0  0  0  0  0  0  0
   70.1605   77.4954   90.4063 O   0  0  0  0  0  0  0  0  0  0  0  0
   68.8676   75.4015   90.6940 C   0  0  0  0  0  0  0  0  0  0  0  0
   69.6191   74.6767   91.6411 C   0  0  0  0  0  0  0  0  0  0  0  0
   69.4892   73.2901   91.7467 C   0  0  0  0  0  0  0  0  0  0  0  0
   68.6090   72.6041   90.9120 C   0  0  0  0  0  0  0  0  0  0  0  0
   67.8560   73.3024   89.9682 C   0  0  0  0  0  0  0  0  0  0  0  0
   67.9751   74.6933   89.8504 C   0  0  0  0  0  0  0  0  0  0  0  0
   67.0124   75.4830   88.6045 Cl  0  0  0  0  0  0  0  0  0  0  0  0
   70.4527   81.1630   90.2286 N   0  0  0  0  0  0  0  0  0  0  0  0
   69.6241   81.2958   90.7433 H   0  0  0  0  0  0  0  0  0  0  0  0
   70.8572   84.2610   88.1012 C   0  0  0  0  0  0  0  0  0  0  0  0
   72.2177   84.5304   88.3233 C   0  0  0  0  0  0  0  0  0  0  0  0
   72.9727   83.7081   89.1607 C   0  0  0  0  0  0  0  0  0  0  0  0
   72.3823   82.6077   89.7831 C   0  0  0  0  0  0  0  0  0  0  0  0
   71.0272   82.3118   89.5738 C   0  0  0  0  0  0  0  0  0  0  0  0
   70.2673   83.1484   88.7311 C   0  0  0  0  0  0  0  0  0  0  0  0
   69.0988   85.8119   87.6822 O   0  0  0  0  0  0  0  0  0  0  0  0
   70.0601   85.1414   87.2180 C   0  0  0  0  0  0  0  0  0  0  0  0
   70.3662   85.2392   85.8630 O   0  0  0  0  0  0  0  0  0  0  0  0
   71.0785   84.7456   85.5068 H   0  0  0  0  0  0  0  0  0  0  0  0
 22 23  2  0  0  0
 23 24  1  0  0  0
 23 16  1  0  0  0
 16 17  2  0  0  0
 17 18  1  0  0  0
 18 19  2  0  0  0
 19 20  1  0  0  0
 20 14  1  0  0  0
 14  1  1  0  0  0
  1  2  1  0  0  0
  2  3  2  0  0  0
  3  4  1  0  0  0
  4  5  2  0  0  0
  5  7  1  0  0  0
  7  8  2  0  0  0
  8  9  1  0  0  0
  9 10  2  0  0  0
 10 11  1  0  0  0
 11 12  2  0  0  0
 12 13  1  0  0  0
  5  6  1  0  0  0
 20 21  2  0  0  0
 21 16  1  0  0  0
  6  2  1  0  0  0
 12  7  1  0  0  0
 24 25  1  0  0  0
 14 15  1  0  0  0
M  END
> <score>
-0.493566

> <minimizedAffinity>
-7.91599

$$$$
HIPS6794


 25 27  0  0  0  0  0  0  0  0999 V2000
   71.1692   79.7822   90.2101 C   0  0  0  0  0  0  0  0  0  0  0  0
   69.9139   78.9676   90.2026 C   0  0  0  0  0  0  0  0  0  0  0  0
   68.6384   79.4458   90.4193 C   0  0  0  0  0  0  0  0  0  0  0  0
   67.8092   78.3495   90.3227 C   0  0  0  0  0  0  0  0  0  0  0  0
   68.6322   77.2664   90.0478 C   0  0  0  0  0  0  0  0  0  0  0  0
   69.8797   77.6749   89.9808 O   0  0  0  0  0  0  0  0  0  0  0  0
   68.2003   75.8581   89.8480 C   0  0  0  0  0  0  0  0  0  0  0  0
   67.2793   75.5513   88.8259 C   0  0  0  0  0  0  0  0  0  0  0  0
   66.8645   74.2353   88.6091 C   0  0  0  0  0  0  0  0  0  0  0  0
   67.3605   73.2050   89.4057 C   0  0  0  0  0  0  0  0  0  0  0  0
   68.2727   73.4871   90.4223 C   0  0  0  0  0  0  0  0  0  0  0  0
   68.6985   74.8019   90.6519 C   0  0  0  0  0  0  0  0  0  0  0  0
   69.8225   75.0656   91.9822 Cl  0  0  0  0  0  0  0  0  0  0  0  0
   70.8686   81.1868   90.4880 N   0  0  0  0  0  0  0  0  0  0  0  0
   70.3743   81.3948   91.3136 H   0  0  0  0  0  0  0  0  0  0  0  0
   70.7578   83.9080   87.8670 C   0  0  0  0  0  0  0  0  0  0  0  0
   72.0552   84.4285   88.0043 C   0  0  0  0  0  0  0  0  0  0  0  0
   72.9351   83.8921   88.9454 C   0  0  0  0  0  0  0  0  0  0  0  0
   72.5338   82.8305   89.7572 C   0  0  0  0  0  0  0  0  0  0  0  0
   71.2461   82.2873   89.6367 C   0  0  0  0  0  0  0  0  0  0  0  0
   70.3591   82.8359   88.6882 C   0  0  0  0  0  0  0  0  0  0  0  0
   68.5978   84.2085   86.9095 O   0  0  0  0  0  0  0  0  0  0  0  0
   69.8269   84.4863   86.8722 C   0  0  0  0  0  0  0  0  0  0  0  0
   70.3005   85.3462   85.8845 O   0  0  0  0  0  0  0  0  0  0  0  0
   71.2120   85.5598   85.8470 H   0  0  0  0  0  0  0  0  0  0  0  0
 22 23  2  0  0  0
 23 24  1  0  0  0
 23 16  1  0  0  0
 16 17  2  0  0  0
 17 18  1  0  0  0
 18 19  2  0  0  0
 19 20  1  0  0  0
 20 14  1  0  0  0
 14  1  1  0  0  0
  1  2  1  0  0  0
  2  3  2  0  0  0
  3  4  1  0  0  0
  4  5  2  0  0  0
  5  7  1  0  0  0
  7  8  2  0  0  0
  8  9  1  0  0  0
  9 10  2  0  0  0
 10 11  1  0  0  0
 11 12  2  0  0  0
 12 13  1  0  0  0
  5  6  1  0  0  0
 20 21  2  0  0  0
 21 16  1  0  0  0
  6  2  1  0  0  0
 12  7  1  0  0  0
 24 25  1  0  0  0
 14 15  1  0  0  0
M  END
> <score>
-0.493566

> <minimizedAffinity>
-7.86345

$$$$
HIPS6794


 25 27  0  0  0  0  0  0  0  0999 V2000
   66.9235   79.3421   89.3061 C   0  0  0  0  0  0  0  0  0  0  0  0
   67.8191   80.4279   89.8144 C   0  0  0  0  0  0  0  0  0  0  0  0
   67.6695   81.1083   91.0050 C   0  0  0  0  0  0  0  0  0  0  0  0
   68.7111   82.0092   91.0515 C   0  0  0  0  0  0  0  0  0  0  0  0
   69.4375   81.8197   89.8842 C   0  0  0  0  0  0  0  0  0  0  0  0
   68.8765   80.8667   89.1737 O   0  0  0  0  0  0  0  0  0  0  0  0
   70.6631   82.5562   89.4780 C   0  0  0  0  0  0  0  0  0  0  0  0
   71.8435   82.4137   90.2355 C   0  0  0  0  0  0  0  0  0  0  0  0
   73.0122   83.0855   89.8704 C   0  0  0  0  0  0  0  0  0  0  0  0
   73.0242   83.9087   88.7459 C   0  0  0  0  0  0  0  0  0  0  0  0
   71.8671   84.0631   87.9827 C   0  0  0  0  0  0  0  0  0  0  0  0
   70.6870   83.3957   88.3359 C   0  0  0  0  0  0  0  0  0  0  0  0
   69.2668   83.6825   87.3342 Cl  0  0  0  0  0  0  0  0  0  0  0  0
   67.7116   78.2608   88.7145 N   0  0  0  0  0  0  0  0  0  0  0  0
   68.0689   78.3976   87.8074 H   0  0  0  0  0  0  0  0  0  0  0  0
   69.2096   75.6738   91.0277 C   0  0  0  0  0  0  0  0  0  0  0  0
   68.5208   74.5307   90.5899 C   0  0  0  0  0  0  0  0  0  0  0  0
   67.5829   74.6226   89.5606 C   0  0  0  0  0  0  0  0  0  0  0  0
   67.3232   75.8524   88.9547 C   0  0  0  0  0  0  0  0  0  0  0  0
   68.0013   77.0088   89.3679 C   0  0  0  0  0  0  0  0  0  0  0  0
   68.9441   76.9118   90.4116 C   0  0  0  0  0  0  0  0  0  0  0  0
   70.1370   74.6227   92.9533 O   0  0  0  0  0  0  0  0  0  0  0  0
   70.1976   75.5710   92.1250 C   0  0  0  0  0  0  0  0  0  0  0  0
   71.2070   76.5219   92.2519 O   0  0  0  0  0  0  0  0  0  0  0  0
   71.2620   77.2312   91.6421 H   0  0  0  0  0  0  0  0  0  0  0  0
 22 23  2  0  0  0
 23 24  1  0  0  0
 23 16  1  0  0  0
 16 17  2  0  0  0
 17 18  1  0  0  0
 18 19  2  0  0  0
 19 20  1  0  0  0
 20 14  1  0  0  0
 14  1  1  0  0  0
  1  2  1  0  0  0
  2  3  2  0  0  0
  3  4  1  0  0  0
  4  5  2  0  0  0
  5  7  1  0  0  0
  7  8  2  0  0  0
  8  9  1  0  0  0
  9 10  2  0  0  0
 10 11  1  0  0  0
 11 12  2  0  0  0
 12 13  1  0  0  0
  5  6  1  0  0  0
 20 21  2  0  0  0
 21 16  1  0  0  0
  6  2  1  0  0  0
 12  7  1  0  0  0
 24 25  1  0  0  0
 14 15  1  0  0  0
M  END
> <score>
-0.493566

> <minimizedAffinity>
-7.68566

$$$$
HIPS6795


 25 27  0  0  0  0  0  0  0  0999 V2000
   70.4353   77.6136   90.7561 C   0  0  0  0  0  0  0  0  0  0  0  0
   70.1314   79.0245   90.3602 C   0  0  0  0  0  0  0  0  0  0  0  0
   68.8862   79.6190   90.3698 C   0  0  0  0  0  0  0  0  0  0  0  0
   69.0936   80.9272   89.9843 C   0  0  0  0  0  0  0  0  0  0  0  0
   70.4587   81.0494   89.7703 C   0  0  0  0  0  0  0  0  0  0  0  0
   71.0432   79.8959   90.0014 O   0  0  0  0  0  0  0  0  0  0  0  0
   71.1980   82.2668   89.3670 C   0  0  0  0  0  0  0  0  0  0  0  0
   72.4590   82.5778   89.9097 C   0  0  0  0  0  0  0  0  0  0  0  0
   73.1377   83.7308   89.5029 C   0  0  0  0  0  0  0  0  0  0  0  0
   72.5694   84.5823   88.5529 C   0  0  0  0  0  0  0  0  0  0  0  0
   71.3177   84.2841   88.0073 C   0  0  0  0  0  0  0  0  0  0  0  0
   70.6045   85.3499   86.8102 Cl  0  0  0  0  0  0  0  0  0  0  0  0
   70.6339   83.1333   88.4134 C   0  0  0  0  0  0  0  0  0  0  0  0
   69.2018   76.9107   91.1099 N   0  0  0  0  0  0  0  0  0  0  0  0
   68.4479   77.4478   91.4452 H   0  0  0  0  0  0  0  0  0  0  0  0
   69.5001   73.1913   91.7067 C   0  0  0  0  0  0  0  0  0  0  0  0
   68.5670   72.7194   90.7679 C   0  0  0  0  0  0  0  0  0  0  0  0
   67.8750   73.6140   89.9497 C   0  0  0  0  0  0  0  0  0  0  0  0
   68.0969   74.9871   90.0646 C   0  0  0  0  0  0  0  0  0  0  0  0
   69.0150   75.4850   91.0010 C   0  0  0  0  0  0  0  0  0  0  0  0
   69.7274   74.5757   91.8087 C   0  0  0  0  0  0  0  0  0  0  0  0
   70.3388   71.0327   92.2625 O   0  0  0  0  0  0  0  0  0  0  0  0
   70.2312   72.2476   92.5822 C   0  0  0  0  0  0  0  0  0  0  0  0
   70.8040   72.6917   93.7714 O   0  0  0  0  0  0  0  0  0  0  0  0
   70.7303   73.5924   94.0191 H   0  0  0  0  0  0  0  0  0  0  0  0
 22 23  2  0  0  0
 23 24  1  0  0  0
 23 16  1  0  0  0
 16 17  2  0  0  0
 17 18  1  0  0  0
 18 19  2  0  0  0
 19 20  1  0  0  0
 20 14  1  0  0  0
 14  1  1  0  0  0
  1  2  1  0  0  0
  2  3  2  0  0  0
  3  4  1  0  0  0
  4  5  2  0  0  0
  5  7  1  0  0  0
  7  8  2  0  0  0
  8  9  1  0  0  0
  9 10  2  0  0  0
 10 11  1  0  0  0
 11 12  1  0  0  0
 11 13  2  0  0  0
  5  6  1  0  0  0
 20 21  2  0  0  0
 21 16  1  0  0  0
  6  2  1  0  0  0
 13  7  1  0  0  0
 24 25  1  0  0  0
 14 15  1  0  0  0
M  END
> <score>
-0.486695

> <minimizedAffinity>
-8.14674

$$$$
HIPS6795


 25 27  0  0  0  0  0  0  0  0999 V2000
   71.2413   80.0311   90.2698 C   0  0  0  0  0  0  0  0  0  0  0  0
   70.1211   79.0388   90.2861 C   0  0  0  0  0  0  0  0  0  0  0  0
   68.7955   79.3079   90.0130 C   0  0  0  0  0  0  0  0  0  0  0  0
   68.1435   78.0949   90.0940 C   0  0  0  0  0  0  0  0  0  0  0  0
   69.1183   77.1585   90.4055 C   0  0  0  0  0  0  0  0  0  0  0  0
   70.2822   77.7577   90.5145 O   0  0  0  0  0  0  0  0  0  0  0  0
   68.9380   75.6993   90.5775 C   0  0  0  0  0  0  0  0  0  0  0  0
   69.6465   74.9790   91.5575 C   0  0  0  0  0  0  0  0  0  0  0  0
   69.4490   73.6022   91.7023 C   0  0  0  0  0  0  0  0  0  0  0  0
   68.5450   72.9313   90.8756 C   0  0  0  0  0  0  0  0  0  0  0  0
   67.8360   73.6359   89.8987 C   0  0  0  0  0  0  0  0  0  0  0  0
   66.6964   72.7959   88.8628 Cl  0  0  0  0  0  0  0  0  0  0  0  0
   68.0326   75.0128   89.7485 C   0  0  0  0  0  0  0  0  0  0  0  0
   70.7122   81.3925   90.3540 N   0  0  0  0  0  0  0  0  0  0  0  0
   70.0120   81.5720   91.0223 H   0  0  0  0  0  0  0  0  0  0  0  0
   70.7237   84.2007   87.8255 C   0  0  0  0  0  0  0  0  0  0  0  0
   72.0456   84.6543   87.9727 C   0  0  0  0  0  0  0  0  0  0  0  0
   72.9097   84.0299   88.8739 C   0  0  0  0  0  0  0  0  0  0  0  0
   72.4642   82.9550   89.6447 C   0  0  0  0  0  0  0  0  0  0  0  0
   71.1464   82.4895   89.5248 C   0  0  0  0  0  0  0  0  0  0  0  0
   70.2852   83.1093   88.5969 C   0  0  0  0  0  0  0  0  0  0  0  0
   68.5702   84.9497   87.1374 O   0  0  0  0  0  0  0  0  0  0  0  0
   69.8008   84.8640   86.8768 C   0  0  0  0  0  0  0  0  0  0  0  0
   70.2826   85.3963   85.6834 O   0  0  0  0  0  0  0  0  0  0  0  0
   71.1952   85.3384   85.4793 H   0  0  0  0  0  0  0  0  0  0  0  0
 22 23  2  0  0  0
 23 24  1  0  0  0
 23 16  1  0  0  0
 16 17  2  0  0  0
 17 18  1  0  0  0
 18 19  2  0  0  0
 19 20  1  0  0  0
 20 14  1  0  0  0
 14  1  1  0  0  0
  1  2  1  0  0  0
  2  3  2  0  0  0
  3  4  1  0  0  0
  4  5  2  0  0  0
  5  7  1  0  0  0
  7  8  2  0  0  0
  8  9  1  0  0  0
  9 10  2  0  0  0
 10 11  1  0  0  0
 11 12  1  0  0  0
 11 13  2  0  0  0
  5  6  1  0  0  0
 20 21  2  0  0  0
 21 16  1  0  0  0
  6  2  1  0  0  0
 13  7  1  0  0  0
 24 25  1  0  0  0
 14 15  1  0  0  0
M  END
> <score>
-0.486695

> <minimizedAffinity>
-7.92945

$$$$
HIPS6795


 25 27  0  0  0  0  0  0  0  0999 V2000
   71.0128   79.7840   90.2347 C   0  0  0  0  0  0  0  0  0  0  0  0
   69.8996   78.7853   90.1803 C   0  0  0  0  0  0  0  0  0  0  0  0
   68.5996   79.0403   89.7939 C   0  0  0  0  0  0  0  0  0  0  0  0
   67.9488   77.8252   89.8470 C   0  0  0  0  0  0  0  0  0  0  0  0
   68.8990   76.9016   90.2572 C   0  0  0  0  0  0  0  0  0  0  0  0
   70.0473   77.5103   90.4483 O   0  0  0  0  0  0  0  0  0  0  0  0
   68.7120   75.4452   90.4448 C   0  0  0  0  0  0  0  0  0  0  0  0
   67.7848   74.7156   89.6770 C   0  0  0  0  0  0  0  0  0  0  0  0
   67.6361   73.3387   89.8707 C   0  0  0  0  0  0  0  0  0  0  0  0
   68.4085   72.6763   90.8275 C   0  0  0  0  0  0  0  0  0  0  0  0
   69.3321   73.3902   91.5960 C   0  0  0  0  0  0  0  0  0  0  0  0
   70.3067   72.5591   92.7947 Cl  0  0  0  0  0  0  0  0  0  0  0  0
   69.4821   74.7682   91.4075 C   0  0  0  0  0  0  0  0  0  0  0  0
   70.4715   81.1423   90.2884 N   0  0  0  0  0  0  0  0  0  0  0  0
   69.6656   81.2936   90.8332 H   0  0  0  0  0  0  0  0  0  0  0  0
   70.8393   84.1990   88.0974 C   0  0  0  0  0  0  0  0  0  0  0  0
   72.1951   84.4948   88.3194 C   0  0  0  0  0  0  0  0  0  0  0  0
   72.9651   83.6881   89.1589 C   0  0  0  0  0  0  0  0  0  0  0  0
   72.3915   82.5855   89.7938 C   0  0  0  0  0  0  0  0  0  0  0  0
   71.0378   82.2744   89.5978 C   0  0  0  0  0  0  0  0  0  0  0  0
   70.2710   83.0792   88.7312 C   0  0  0  0  0  0  0  0  0  0  0  0
   68.9707   85.6071   87.6529 O   0  0  0  0  0  0  0  0  0  0  0  0
   70.0161   85.0555   87.2141 C   0  0  0  0  0  0  0  0  0  0  0  0
   70.3860   85.2569   85.8866 O   0  0  0  0  0  0  0  0  0  0  0  0
   71.1609   84.8521   85.5496 H   0  0  0  0  0  0  0  0  0  0  0  0
 22 23  2  0  0  0
 23 24  1  0  0  0
 23 16  1  0  0  0
 16 17  2  0  0  0
 17 18  1  0  0  0
 18 19  2  0  0  0
 19 20  1  0  0  0
 20 14  1  0  0  0
 14  1  1  0  0  0
  1  2  1  0  0  0
  2  3  2  0  0  0
  3  4  1  0  0  0
  4  5  2  0  0  0
  5  7  1  0  0  0
  7  8  2  0  0  0
  8  9  1  0  0  0
  9 10  2  0  0  0
 10 11  1  0  0  0
 11 12  1  0  0  0
 11 13  2  0  0  0
  5  6  1  0  0  0
 20 21  2  0  0  0
 21 16  1  0  0  0
  6  2  1  0  0  0
 13  7  1  0  0  0
 24 25  1  0  0  0
 14 15  1  0  0  0
M  END
> <score>
-0.486695

> <minimizedAffinity>
-7.85429

$$$$
HIPS6819


 25 27  0  0  0  0  0  0  0  0999 V2000
   68.4864   74.2874   94.8658 C   0  0  0  0  0  0  0  0  0  0  0  0
   68.8293   75.2973   93.9486 C   0  0  0  0  0  0  0  0  0  0  0  0
   67.8654   76.1816   93.4538 C   0  0  0  0  0  0  0  0  0  0  0  0
   66.5348   76.0608   93.8886 C   0  0  0  0  0  0  0  0  0  0  0  0
   66.1840   75.0724   94.8093 C   0  0  0  0  0  0  0  0  0  0  0  0
   67.1454   74.1881   95.3096 C   0  0  0  0  0  0  0  0  0  0  0  0
   66.7345   73.2337   96.2429 O   0  0  0  0  0  0  0  0  0  0  0  0
   65.8380   73.1982   96.5130 H   0  0  0  0  0  0  0  0  0  0  0  0
   69.5701   73.3701   95.3778 C   0  0  0  0  0  0  0  0  0  0  0  0
   71.3111   72.3158   94.1200 O   0  0  0  0  0  0  0  0  0  0  0  0
   70.0731   72.4906   94.2768 C   0  0  0  0  0  0  0  0  0  0  0  0
   69.1695   71.8707   93.4192 O   0  0  0  0  0  0  0  0  0  0  0  0
   68.2488   72.0004   93.5354 H   0  0  0  0  0  0  0  0  0  0  0  0
   68.2713   77.1612   92.5359 O   0  0  0  0  0  0  0  0  0  0  0  0
   69.1633   76.9298   91.4485 C   0  0  0  0  0  0  0  0  0  0  0  0
   68.3658   76.6988   90.1881 C   0  0  0  0  0  0  0  0  0  0  0  0
   68.0755   77.8005   89.3643 C   0  0  0  0  0  0  0  0  0  0  0  0
   67.3486   77.6399   88.1853 C   0  0  0  0  0  0  0  0  0  0  0  0
   66.9024   76.3776   87.8005 C   0  0  0  0  0  0  0  0  0  0  0  0
   67.1845   75.2568   88.5928 C   0  0  0  0  0  0  0  0  0  0  0  0
   66.7383   73.9870   88.1934 C   0  0  0  0  0  0  0  0  0  0  0  0
   67.0208   72.8646   88.9724 C   0  0  0  0  0  0  0  0  0  0  0  0
   67.7502   72.9975   90.1534 C   0  0  0  0  0  0  0  0  0  0  0  0
   68.2011   74.2534   90.5669 C   0  0  0  0  0  0  0  0  0  0  0  0
   67.9251   75.4052   89.7975 C   0  0  0  0  0  0  0  0  0  0  0  0
 10 11  2  0  0  0
 11 12  1  0  0  0
 11  9  1  0  0  0
  9  1  1  0  0  0
  1  2  2  0  0  0
  2  3  1  0  0  0
  3 14  1  0  0  0
 14 15  1  0  0  0
 15 16  1  0  0  0
 16 17  2  0  0  0
 17 18  1  0  0  0
 18 19  2  0  0  0
 19 20  1  0  0  0
 20 21  2  0  0  0
 21 22  1  0  0  0
 22 23  2  0  0  0
 23 24  1  0  0  0
 24 25  2  0  0  0
  3  4  2  0  0  0
  4  5  1  0  0  0
  5  6  2  0  0  0
  6  7  1  0  0  0
  6  1  1  0  0  0
 25 16  1  0  0  0
 25 20  1  0  0  0
 12 13  1  0  0  0
  7  8  1  0  0  0
M  END
> <score>
0.709324

> <minimizedAffinity>
-8.49664

$$$$
HIPS6819


 25 27  0  0  0  0  0  0  0  0999 V2000
   69.1227   76.8027   90.9785 C   0  0  0  0  0  0  0  0  0  0  0  0
   68.9886   78.0454   90.3330 C   0  0  0  0  0  0  0  0  0  0  0  0
   70.0855   78.8977   90.1713 C   0  0  0  0  0  0  0  0  0  0  0  0
   71.3425   78.4990   90.6563 C   0  0  0  0  0  0  0  0  0  0  0  0
   71.4923   77.2624   91.2857 C   0  0  0  0  0  0  0  0  0  0  0  0
   70.3987   76.4052   91.4464 C   0  0  0  0  0  0  0  0  0  0  0  0
   70.6179   75.1735   92.0674 O   0  0  0  0  0  0  0  0  0  0  0  0
   71.4767   74.9448   92.3643 H   0  0  0  0  0  0  0  0  0  0  0  0
   67.9081   75.9168   91.1123 C   0  0  0  0  0  0  0  0  0  0  0  0
   67.3189   75.0813   88.9492 O   0  0  0  0  0  0  0  0  0  0  0  0
   67.9056   74.8693   90.0440 C   0  0  0  0  0  0  0  0  0  0  0  0
   68.5472   73.6544   90.2649 O   0  0  0  0  0  0  0  0  0  0  0  0
   68.9836   73.4963   91.0788 H   0  0  0  0  0  0  0  0  0  0  0  0
   69.8830   80.1261   89.5257 O   0  0  0  0  0  0  0  0  0  0  0  0
   69.7698   81.3807   90.1927 C   0  0  0  0  0  0  0  0  0  0  0  0
   70.8076   82.3317   89.6482 C   0  0  0  0  0  0  0  0  0  0  0  0
   72.1062   82.2899   90.1855 C   0  0  0  0  0  0  0  0  0  0  0  0
   73.1034   83.1420   89.7125 C   0  0  0  0  0  0  0  0  0  0  0  0
   72.8284   84.0477   88.6906 C   0  0  0  0  0  0  0  0  0  0  0  0
   71.5477   84.1072   88.1251 C   0  0  0  0  0  0  0  0  0  0  0  0
   71.2812   85.0171   87.0898 C   0  0  0  0  0  0  0  0  0  0  0  0
   70.0109   85.0782   86.5161 C   0  0  0  0  0  0  0  0  0  0  0  0
   68.9974   84.2336   86.9675 C   0  0  0  0  0  0  0  0  0  0  0  0
   69.2443   83.3229   87.9976 C   0  0  0  0  0  0  0  0  0  0  0  0
   70.5208   83.2443   88.5969 C   0  0  0  0  0  0  0  0  0  0  0  0
 10 11  2  0  0  0
 11 12  1  0  0  0
 11  9  1  0  0  0
  9  1  1  0  0  0
  1  2  2  0  0  0
  2  3  1  0  0  0
  3 14  1  0  0  0
 14 15  1  0  0  0
 15 16  1  0  0  0
 16 17  2  0  0  0
 17 18  1  0  0  0
 18 19  2  0  0  0
 19 20  1  0  0  0
 20 21  2  0  0  0
 21 22  1  0  0  0
 22 23  2  0  0  0
 23 24  1  0  0  0
 24 25  2  0  0  0
  3  4  2  0  0  0
  4  5  1  0  0  0
  5  6  2  0  0  0
  6  7  1  0  0  0
  6  1  1  0  0  0
 25 16  1  0  0  0
 25 20  1  0  0  0
 12 13  1  0  0  0
  7  8  1  0  0  0
M  END
> <score>
0.709324

> <minimizedAffinity>
-8.14671

$$$$
HIPS6819


 25 27  0  0  0  0  0  0  0  0999 V2000
   68.5680   74.0868   94.9819 C   0  0  0  0  0  0  0  0  0  0  0  0
   68.9266   75.0838   94.0567 C   0  0  0  0  0  0  0  0  0  0  0  0
   67.9891   76.0144   93.5974 C   0  0  0  0  0  0  0  0  0  0  0  0
   66.6697   75.9538   94.0767 C   0  0  0  0  0  0  0  0  0  0  0  0
   66.3043   74.9787   95.0058 C   0  0  0  0  0  0  0  0  0  0  0  0
   67.2395   74.0482   95.4706 C   0  0  0  0  0  0  0  0  0  0  0  0
   66.8161   73.1098   96.4144 O   0  0  0  0  0  0  0  0  0  0  0  0
   65.9285   73.1149   96.7146 H   0  0  0  0  0  0  0  0  0  0  0  0
   69.6242   73.1177   95.4542 C   0  0  0  0  0  0  0  0  0  0  0  0
   71.4017   72.2435   94.1122 O   0  0  0  0  0  0  0  0  0  0  0  0
   70.1589   72.3260   94.3026 C   0  0  0  0  0  0  0  0  0  0  0  0
   69.2788   71.6857   93.4355 O   0  0  0  0  0  0  0  0  0  0  0  0
   68.3545   71.7467   93.5767 H   0  0  0  0  0  0  0  0  0  0  0  0
   68.4092   76.9781   92.6692 O   0  0  0  0  0  0  0  0  0  0  0  0
   69.2808   76.7176   91.5720 C   0  0  0  0  0  0  0  0  0  0  0  0
   68.4902   76.1109   90.4385 C   0  0  0  0  0  0  0  0  0  0  0  0
   68.2761   74.7213   90.4358 C   0  0  0  0  0  0  0  0  0  0  0  0
   67.5461   74.1124   89.4158 C   0  0  0  0  0  0  0  0  0  0  0  0
   67.0094   74.8765   88.3821 C   0  0  0  0  0  0  0  0  0  0  0  0
   67.1943   76.2654   88.3609 C   0  0  0  0  0  0  0  0  0  0  0  0
   66.6429   77.0291   87.3199 C   0  0  0  0  0  0  0  0  0  0  0  0
   66.8160   78.4133   87.2947 C   0  0  0  0  0  0  0  0  0  0  0  0
   67.5377   79.0473   88.3053 C   0  0  0  0  0  0  0  0  0  0  0  0
   68.0945   78.3030   89.3482 C   0  0  0  0  0  0  0  0  0  0  0  0
   67.9361   76.9003   89.3944 C   0  0  0  0  0  0  0  0  0  0  0  0
 10 11  2  0  0  0
 11 12  1  0  0  0
 11  9  1  0  0  0
  9  1  1  0  0  0
  1  2  2  0  0  0
  2  3  1  0  0  0
  3 14  1  0  0  0
 14 15  1  0  0  0
 15 16  1  0  0  0
 16 17  2  0  0  0
 17 18  1  0  0  0
 18 19  2  0  0  0
 19 20  1  0  0  0
 20 21  2  0  0  0
 21 22  1  0  0  0
 22 23  2  0  0  0
 23 24  1  0  0  0
 24 25  2  0  0  0
  3  4  2  0  0  0
  4  5  1  0  0  0
  5  6  2  0  0  0
  6  7  1  0  0  0
  6  1  1  0  0  0
 25 16  1  0  0  0
 25 20  1  0  0  0
 12 13  1  0  0  0
  7  8  1  0  0  0
M  END
> <score>
0.709324

> <minimizedAffinity>
-7.99731

$$$$
HIPS6826


 27 29  0  0  0  0  0  0  0  0999 V2000
   68.2138   76.6452   92.1447 N   0  0  0  0  0  0  0  0  0  0  0  0
   67.8629   77.5633   92.2023 H   0  0  0  0  0  0  0  0  0  0  0  0
   68.6409   74.0035   94.8076 C   0  0  0  0  0  0  0  0  0  0  0  0
   68.9312   74.8936   93.7580 C   0  0  0  0  0  0  0  0  0  0  0  0
   67.9446   75.7528   93.2426 C   0  0  0  0  0  0  0  0  0  0  0  0
   66.6626   75.7304   93.8039 C   0  0  0  0  0  0  0  0  0  0  0  0
   66.3672   74.8698   94.8605 C   0  0  0  0  0  0  0  0  0  0  0  0
   67.3457   74.0187   95.3834 C   0  0  0  0  0  0  0  0  0  0  0  0
   67.0020   73.2373   96.4889 O   0  0  0  0  0  0  0  0  0  0  0  0
   66.1338   73.2770   96.8390 H   0  0  0  0  0  0  0  0  0  0  0  0
   69.5886   72.4243   96.3221 O   0  0  0  0  0  0  0  0  0  0  0  0
   69.6985   73.0641   95.2422 C   0  0  0  0  0  0  0  0  0  0  0  0
   70.7997   72.8329   94.4218 O   0  0  0  0  0  0  0  0  0  0  0  0
   70.8910   73.3033   93.6166 H   0  0  0  0  0  0  0  0  0  0  0  0
   68.9748   76.2782   90.9481 C   0  0  0  0  0  0  0  0  0  0  0  0
   68.2509   75.2252   90.1319 C   0  0  0  0  0  0  0  0  0  0  0  0
   68.4093   73.8716   90.4815 C   0  0  0  0  0  0  0  0  0  0  0  0
   67.7288   72.8712   89.7852 C   0  0  0  0  0  0  0  0  0  0  0  0
   66.8844   73.2051   88.7277 C   0  0  0  0  0  0  0  0  0  0  0  0
   66.7253   74.5401   88.3547 C   0  0  0  0  0  0  0  0  0  0  0  0
   67.4122   75.5588   89.0355 C   0  0  0  0  0  0  0  0  0  0  0  0
   67.2150   76.9552   88.5945 C   0  0  0  0  0  0  0  0  0  0  0  0
   66.4605   77.8488   89.3716 C   0  0  0  0  0  0  0  0  0  0  0  0
   66.2642   79.1636   88.9381 C   0  0  0  0  0  0  0  0  0  0  0  0
   66.8239   79.5947   87.7320 C   0  0  0  0  0  0  0  0  0  0  0  0
   67.5858   78.7132   86.9598 C   0  0  0  0  0  0  0  0  0  0  0  0
   67.7863   77.3984   87.3907 C   0  0  0  0  0  0  0  0  0  0  0  0
 11 12  2  0  0  0
 12 13  1  0  0  0
 12  3  1  0  0  0
  3  4  2  0  0  0
  4  5  1  0  0  0
  5  1  1  0  0  0
  1 15  1  0  0  0
 15 16  1  0  0  0
 16 17  2  0  0  0
 17 18  1  0  0  0
 18 19  2  0  0  0
 19 20  1  0  0  0
 20 21  2  0  0  0
 21 22  1  0  0  0
 22 23  2  0  0  0
 23 24  1  0  0  0
 24 25  2  0  0  0
 25 26  1  0  0  0
 26 27  2  0  0  0
  5  6  2  0  0  0
  6  7  1  0  0  0
  7  8  2  0  0  0
  8  9  1  0  0  0
  8  3  1  0  0  0
 21 16  1  0  0  0
 27 22  1  0  0  0
 13 14  1  0  0  0
  1  2  1  0  0  0
  9 10  1  0  0  0
M  END
> <score>
0.307615

> <minimizedAffinity>
-8.46046

$$$$
HIPS6826


 27 29  0  0  0  0  0  0  0  0999 V2000
   66.7354   77.7080   92.7509 N   0  0  0  0  0  0  0  0  0  0  0  0
   66.6341   78.5855   93.1857 H   0  0  0  0  0  0  0  0  0  0  0  0
   67.9529   74.8559   94.9039 C   0  0  0  0  0  0  0  0  0  0  0  0
   67.9509   76.0189   94.1128 C   0  0  0  0  0  0  0  0  0  0  0  0
   66.7528   76.5392   93.5921 C   0  0  0  0  0  0  0  0  0  0  0  0
   65.5460   75.8954   93.8892 C   0  0  0  0  0  0  0  0  0  0  0  0
   65.5305   74.7552   94.6916 C   0  0  0  0  0  0  0  0  0  0  0  0
   66.7173   74.2372   95.2196 C   0  0  0  0  0  0  0  0  0  0  0  0
   66.6208   73.1373   96.0750 O   0  0  0  0  0  0  0  0  0  0  0  0
   65.7838   72.7578   96.2575 H   0  0  0  0  0  0  0  0  0  0  0  0
   69.4490   73.0671   95.4011 O   0  0  0  0  0  0  0  0  0  0  0  0
   69.2562   74.3109   95.3449 C   0  0  0  0  0  0  0  0  0  0  0  0
   70.3049   75.1776   95.6415 O   0  0  0  0  0  0  0  0  0  0  0  0
   70.1721   76.1043   95.6027 H   0  0  0  0  0  0  0  0  0  0  0  0
   66.8584   77.6786   91.2915 C   0  0  0  0  0  0  0  0  0  0  0  0
   68.2382   78.1185   90.8423 C   0  0  0  0  0  0  0  0  0  0  0  0
   68.4850   79.4920   90.6629 C   0  0  0  0  0  0  0  0  0  0  0  0
   69.7517   79.9461   90.2915 C   0  0  0  0  0  0  0  0  0  0  0  0
   70.7893   79.0376   90.0892 C   0  0  0  0  0  0  0  0  0  0  0  0
   70.5618   77.6700   90.2466 C   0  0  0  0  0  0  0  0  0  0  0  0
   69.2904   77.1942   90.6071 C   0  0  0  0  0  0  0  0  0  0  0  0
   69.1011   75.7359   90.7520 C   0  0  0  0  0  0  0  0  0  0  0  0
   68.1110   75.0682   90.0134 C   0  0  0  0  0  0  0  0  0  0  0  0
   67.9272   73.6909   90.1698 C   0  0  0  0  0  0  0  0  0  0  0  0
   68.7329   72.9728   91.0579 C   0  0  0  0  0  0  0  0  0  0  0  0
   69.7279   73.6299   91.7873 C   0  0  0  0  0  0  0  0  0  0  0  0
   69.9166   75.0064   91.6322 C   0  0  0  0  0  0  0  0  0  0  0  0
 11 12  2  0  0  0
 12 13  1  0  0  0
 12  3  1  0  0  0
  3  4  2  0  0  0
  4  5  1  0  0  0
  5  1  1  0  0  0
  1 15  1  0  0  0
 15 16  1  0  0  0
 16 17  2  0  0  0
 17 18  1  0  0  0
 18 19  2  0  0  0
 19 20  1  0  0  0
 20 21  2  0  0  0
 21 22  1  0  0  0
 22 23  2  0  0  0
 23 24  1  0  0  0
 24 25  2  0  0  0
 25 26  1  0  0  0
 26 27  2  0  0  0
  5  6  2  0  0  0
  6  7  1  0  0  0
  7  8  2  0  0  0
  8  9  1  0  0  0
  8  3  1  0  0  0
 21 16  1  0  0  0
 27 22  1  0  0  0
 13 14  1  0  0  0
  1  2  1  0  0  0
  9 10  1  0  0  0
M  END
> <score>
0.307615

> <minimizedAffinity>
-8.20326

$$$$
HIPS6826


 27 29  0  0  0  0  0  0  0  0999 V2000
   67.1968   76.7903   92.3910 N   0  0  0  0  0  0  0  0  0  0  0  0
   66.8233   77.6794   92.5894 H   0  0  0  0  0  0  0  0  0  0  0  0
   68.2601   74.0752   94.7889 C   0  0  0  0  0  0  0  0  0  0  0  0
   68.3134   75.0620   93.7880 C   0  0  0  0  0  0  0  0  0  0  0  0
   67.1697   75.8013   93.4376 C   0  0  0  0  0  0  0  0  0  0  0  0
   65.9695   75.5597   94.1159 C   0  0  0  0  0  0  0  0  0  0  0  0
   65.9079   74.6009   95.1264 C   0  0  0  0  0  0  0  0  0  0  0  0
   67.0433   73.8680   95.4858 C   0  0  0  0  0  0  0  0  0  0  0  0
   66.9285   72.9773   96.5556 O   0  0  0  0  0  0  0  0  0  0  0  0
   66.1050   72.8699   96.9894 H   0  0  0  0  0  0  0  0  0  0  0  0
   70.4315   73.2678   94.2247 O   0  0  0  0  0  0  0  0  0  0  0  0
   69.4761   73.2720   95.0461 C   0  0  0  0  0  0  0  0  0  0  0  0
   69.5978   72.5612   96.2372 O   0  0  0  0  0  0  0  0  0  0  0  0
   68.8932   72.5578   96.8549 H   0  0  0  0  0  0  0  0  0  0  0  0
   67.7428   76.5618   91.0511 C   0  0  0  0  0  0  0  0  0  0  0  0
   69.1253   77.1673   90.9050 C   0  0  0  0  0  0  0  0  0  0  0  0
   70.2107   76.5357   91.5395 C   0  0  0  0  0  0  0  0  0  0  0  0
   71.5072   77.0332   91.3976 C   0  0  0  0  0  0  0  0  0  0  0  0
   71.7400   78.1698   90.6251 C   0  0  0  0  0  0  0  0  0  0  0  0
   70.6757   78.8204   90.0000 C   0  0  0  0  0  0  0  0  0  0  0  0
   69.3628   78.3416   90.1425 C   0  0  0  0  0  0  0  0  0  0  0  0
   68.2711   79.0729   89.4667 C   0  0  0  0  0  0  0  0  0  0  0  0
   67.8082   78.6592   88.2073 C   0  0  0  0  0  0  0  0  0  0  0  0
   66.7866   79.3675   87.5672 C   0  0  0  0  0  0  0  0  0  0  0  0
   66.2183   80.4869   88.1820 C   0  0  0  0  0  0  0  0  0  0  0  0
   66.6669   80.8966   89.4408 C   0  0  0  0  0  0  0  0  0  0  0  0
   67.6865   80.1898   90.0853 C   0  0  0  0  0  0  0  0  0  0  0  0
 11 12  2  0  0  0
 12 13  1  0  0  0
 12  3  1  0  0  0
  3  4  2  0  0  0
  4  5  1  0  0  0
  5  1  1  0  0  0
  1 15  1  0  0  0
 15 16  1  0  0  0
 16 17  2  0  0  0
 17 18  1  0  0  0
 18 19  2  0  0  0
 19 20  1  0  0  0
 20 21  2  0  0  0
 21 22  1  0  0  0
 22 23  2  0  0  0
 23 24  1  0  0  0
 24 25  2  0  0  0
 25 26  1  0  0  0
 26 27  2  0  0  0
  5  6  2  0  0  0
  6  7  1  0  0  0
  7  8  2  0  0  0
  8  9  1  0  0  0
  8  3  1  0  0  0
 21 16  1  0  0  0
 27 22  1  0  0  0
 13 14  1  0  0  0
  1  2  1  0  0  0
  9 10  1  0  0  0
M  END
> <score>
0.307615

> <minimizedAffinity>
-8.19948

$$$$
HIPS6838


 21 22  0  0  0  0  0  0  0  0999 V2000
   69.4104   73.0127   91.6382 C   0  0  0  0  0  0  0  0  0  0  0  0
   68.5064   72.3703   90.7724 C   0  0  0  0  0  0  0  0  0  0  0  0
   67.7237   73.1097   89.8658 C   0  0  0  0  0  0  0  0  0  0  0  0
   67.8585   74.4988   89.8255 C   0  0  0  0  0  0  0  0  0  0  0  0
   68.7382   75.1509   90.6894 C   0  0  0  0  0  0  0  0  0  0  0  0
   69.4998   74.4271   91.6127 C   0  0  0  0  0  0  0  0  0  0  0  0
   70.2996   75.1488   92.5016 O   0  0  0  0  0  0  0  0  0  0  0  0
   70.3304   76.0840   92.4508 H   0  0  0  0  0  0  0  0  0  0  0  0
   70.4642   70.9620   92.2465 O   0  0  0  0  0  0  0  0  0  0  0  0
   70.2523   72.1737   92.5196 C   0  0  0  0  0  0  0  0  0  0  0  0
   70.7684   72.7079   93.6974 O   0  0  0  0  0  0  0  0  0  0  0  0
   70.6165   73.6078   93.9097 H   0  0  0  0  0  0  0  0  0  0  0  0
   66.8079   72.5069   88.9871 O   0  0  0  0  0  0  0  0  0  0  0  0
   66.5773   72.9053   87.6354 C   0  0  0  0  0  0  0  0  0  0  0  0
   66.8292   71.7620   86.6947 C   0  0  0  0  0  0  0  0  0  0  0  0
   67.7313   70.7438   87.0255 C   0  0  0  0  0  0  0  0  0  0  0  0
   67.9365   69.7122   86.1100 C   0  0  0  0  0  0  0  0  0  0  0  0
   67.2751   69.7160   84.9239 N   0  0  0  0  0  0  0  0  0  0  0  0
   66.4113   70.7170   84.6117 C   0  0  0  0  0  0  0  0  0  0  0  0
   65.4994   70.7004   82.9393 Br  0  0  0  0  0  0  0  0  0  0  0  0
   66.1968   71.7303   85.4907 N   0  0  0  0  0  0  0  0  0  0  0  0
  9 10  2  0  0  0
 10 11  1  0  0  0
 10  1  1  0  0  0
  1  2  2  0  0  0
  2  3  1  0  0  0
  3 13  1  0  0  0
 13 14  1  0  0  0
 14 15  1  0  0  0
 15 16  2  0  0  0
 16 17  1  0  0  0
 17 18  2  0  0  0
 18 19  2  0  0  0
 19 20  1  0  0  0
 19 21  2  0  0  0
  3  4  2  0  0  0
  4  5  1  0  0  0
  5  6  2  0  0  0
  6  7  1  0  0  0
  6  1  1  0  0  0
 21 15  2  0  0  0
 11 12  1  0  0  0
  7  8  1  0  0  0
M  END
> <score>
-0.119735

> <minimizedAffinity>
-7.36975

$$$$
HIPS6838


 21 22  0  0  0  0  0  0  0  0999 V2000
   68.6627   75.3292   90.6420 C   0  0  0  0  0  0  0  0  0  0  0  0
   67.8115   74.6437   89.7561 C   0  0  0  0  0  0  0  0  0  0  0  0
   67.7319   73.2386   89.7713 C   0  0  0  0  0  0  0  0  0  0  0  0
   68.5054   72.5228   90.6871 C   0  0  0  0  0  0  0  0  0  0  0  0
   69.3665   73.1877   91.5599 C   0  0  0  0  0  0  0  0  0  0  0  0
   69.4729   74.5821   91.5335 C   0  0  0  0  0  0  0  0  0  0  0  0
   70.4128   75.1772   92.3781 O   0  0  0  0  0  0  0  0  0  0  0  0
   70.9286   74.6466   92.9528 H   0  0  0  0  0  0  0  0  0  0  0  0
   68.6608   77.4387   89.5305 O   0  0  0  0  0  0  0  0  0  0  0  0
   68.6501   76.8088   90.6216 C   0  0  0  0  0  0  0  0  0  0  0  0
   68.6886   77.5181   91.8193 O   0  0  0  0  0  0  0  0  0  0  0  0
   68.6811   77.0590   92.6361 H   0  0  0  0  0  0  0  0  0  0  0  0
   66.8970   72.5166   88.9019 O   0  0  0  0  0  0  0  0  0  0  0  0
   66.5905   72.8855   87.5570 C   0  0  0  0  0  0  0  0  0  0  0  0
   66.8299   71.7342   86.6229 C   0  0  0  0  0  0  0  0  0  0  0  0
   67.7323   70.7160   86.9528 C   0  0  0  0  0  0  0  0  0  0  0  0
   67.9255   69.6766   86.0436 C   0  0  0  0  0  0  0  0  0  0  0  0
   67.2525   69.6730   84.8640 N   0  0  0  0  0  0  0  0  0  0  0  0
   66.3886   70.6740   84.5524 C   0  0  0  0  0  0  0  0  0  0  0  0
   65.4602   70.6469   82.8892 Br  0  0  0  0  0  0  0  0  0  0  0  0
   66.1856   71.6949   85.4254 N   0  0  0  0  0  0  0  0  0  0  0  0
  9 10  2  0  0  0
 10 11  1  0  0  0
 10  1  1  0  0  0
  1  2  2  0  0  0
  2  3  1  0  0  0
  3 13  1  0  0  0
 13 14  1  0  0  0
 14 15  1  0  0  0
 15 16  2  0  0  0
 16 17  1  0  0  0
 17 18  2  0  0  0
 18 19  2  0  0  0
 19 20  1  0  0  0
 19 21  2  0  0  0
  3  4  2  0  0  0
  4  5  1  0  0  0
  5  6  2  0  0  0
  6  7  1  0  0  0
  6  1  1  0  0  0
 21 15  2  0  0  0
 11 12  1  0  0  0
  7  8  1  0  0  0
M  END
> <score>
-0.119735

> <minimizedAffinity>
-6.99922

$$$$
HIPS6838


 21 22  0  0  0  0  0  0  0  0999 V2000
   69.4738   73.2152   91.8207 C   0  0  0  0  0  0  0  0  0  0  0  0
   68.5815   72.5141   90.9891 C   0  0  0  0  0  0  0  0  0  0  0  0
   67.8221   73.1867   90.0134 C   0  0  0  0  0  0  0  0  0  0  0  0
   67.9685   74.5678   89.8696 C   0  0  0  0  0  0  0  0  0  0  0  0
   68.8366   75.2786   90.6982 C   0  0  0  0  0  0  0  0  0  0  0  0
   69.5748   74.6229   91.6889 C   0  0  0  0  0  0  0  0  0  0  0  0
   70.3631   75.4056   92.5355 O   0  0  0  0  0  0  0  0  0  0  0  0
   70.4021   76.3338   92.4140 H   0  0  0  0  0  0  0  0  0  0  0  0
   70.6526   71.2627   92.5165 O   0  0  0  0  0  0  0  0  0  0  0  0
   70.2922   72.4409   92.7802 C   0  0  0  0  0  0  0  0  0  0  0  0
   70.6189   72.9939   94.0156 O   0  0  0  0  0  0  0  0  0  0  0  0
   70.3557   73.8692   94.2215 H   0  0  0  0  0  0  0  0  0  0  0  0
   66.9186   72.5242   89.1656 O   0  0  0  0  0  0  0  0  0  0  0  0
   66.6000   72.9181   87.8306 C   0  0  0  0  0  0  0  0  0  0  0  0
   66.9967   71.8494   86.8528 C   0  0  0  0  0  0  0  0  0  0  0  0
   66.6016   71.9192   85.5115 C   0  0  0  0  0  0  0  0  0  0  0  0
   66.9876   70.8937   84.6491 C   0  0  0  0  0  0  0  0  0  0  0  0
   67.7219   69.8524   85.1189 N   0  0  0  0  0  0  0  0  0  0  0  0
   68.0881   69.7922   86.4257 C   0  0  0  0  0  0  0  0  0  0  0  0
   69.1148   68.3182   87.0597 Br  0  0  0  0  0  0  0  0  0  0  0  0
   67.7231   70.7821   87.2815 N   0  0  0  0  0  0  0  0  0  0  0  0
  9 10  2  0  0  0
 10 11  1  0  0  0
 10  1  1  0  0  0
  1  2  2  0  0  0
  2  3  1  0  0  0
  3 13  1  0  0  0
 13 14  1  0  0  0
 14 15  1  0  0  0
 15 16  2  0  0  0
 16 17  1  0  0  0
 17 18  2  0  0  0
 18 19  2  0  0  0
 19 20  1  0  0  0
 19 21  2  0  0  0
  3  4  2  0  0  0
  4  5  1  0  0  0
  5  6  2  0  0  0
  6  7  1  0  0  0
  6  1  1  0  0  0
 21 15  2  0  0  0
 11 12  1  0  0  0
  7  8  1  0  0  0
M  END
> <score>
-0.119735

> <minimizedAffinity>
-6.95748

$$$$
HIPS6839


 20 21  0  0  0  0  0  0  0  0999 V2000
   69.3260   73.1589   91.8611 C   0  0  0  0  0  0  0  0  0  0  0  0
   68.4144   72.5421   90.9847 C   0  0  0  0  0  0  0  0  0  0  0  0
   67.7075   73.2854   90.0338 C   0  0  0  0  0  0  0  0  0  0  0  0
   67.9181   74.6723   89.9538 C   0  0  0  0  0  0  0  0  0  0  0  0
   68.8035   75.2999   90.8304 C   0  0  0  0  0  0  0  0  0  0  0  0
   69.4938   74.5636   91.7988 C   0  0  0  0  0  0  0  0  0  0  0  0
   70.3025   75.2649   92.6957 O   0  0  0  0  0  0  0  0  0  0  0  0
   70.3876   76.1951   92.6211 H   0  0  0  0  0  0  0  0  0  0  0  0
   70.1721   71.0650   92.5971 O   0  0  0  0  0  0  0  0  0  0  0  0
   70.1020   72.3088   92.7903 C   0  0  0  0  0  0  0  0  0  0  0  0
   70.8096   72.8759   93.8462 O   0  0  0  0  0  0  0  0  0  0  0  0
   70.7642   73.7994   93.9982 H   0  0  0  0  0  0  0  0  0  0  0  0
   66.8163   72.6043   89.1883 O   0  0  0  0  0  0  0  0  0  0  0  0
   66.5369   72.9524   87.8319 C   0  0  0  0  0  0  0  0  0  0  0  0
   66.9649   71.8550   86.9020 C   0  0  0  0  0  0  0  0  0  0  0  0
   66.6104   71.8131   85.5562 C   0  0  0  0  0  0  0  0  0  0  0  0
   67.3092   70.4450   84.8715 S   0  0  0  0  0  0  0  0  0  0  0  0
   68.0696   69.9078   86.2690 C   0  0  0  0  0  0  0  0  0  0  0  0
   69.1434   68.3387   86.4017 Br  0  0  0  0  0  0  0  0  0  0  0  0
   67.7905   70.7918   87.2990 C   0  0  0  0  0  0  0  0  0  0  0  0
  9 10  2  0  0  0
 10 11  1  0  0  0
 10  1  1  0  0  0
  1  2  2  0  0  0
  2  3  1  0  0  0
  3 13  1  0  0  0
 13 14  1  0  0  0
 14 15  1  0  0  0
 15 16  2  0  0  0
 16 17  1  0  0  0
 17 18  1  0  0  0
 18 19  1  0  0  0
 18 20  2  0  0  0
  3  4  2  0  0  0
  4  5  1  0  0  0
  5  6  2  0  0  0
  6  7  1  0  0  0
  6  1  1  0  0  0
 20 15  1  0  0  0
 11 12  1  0  0  0
  7  8  1  0  0  0
M  END
> <score>
0.380265

> <minimizedAffinity>
-6.69616

$$$$
HIPS6839


 20 21  0  0  0  0  0  0  0  0999 V2000
   68.3096   74.3069   94.6229 C   0  0  0  0  0  0  0  0  0  0  0  0
   68.5077   75.2910   93.6372 C   0  0  0  0  0  0  0  0  0  0  0  0
   67.5086   76.2207   93.3305 C   0  0  0  0  0  0  0  0  0  0  0  0
   66.2883   76.1690   94.0251 C   0  0  0  0  0  0  0  0  0  0  0  0
   66.0707   75.1856   94.9904 C   0  0  0  0  0  0  0  0  0  0  0  0
   67.0583   74.2390   95.2825 C   0  0  0  0  0  0  0  0  0  0  0  0
   66.7456   73.2343   96.2006 O   0  0  0  0  0  0  0  0  0  0  0  0
   65.9058   73.2242   96.6161 H   0  0  0  0  0  0  0  0  0  0  0  0
   69.4242   72.7659   96.0459 O   0  0  0  0  0  0  0  0  0  0  0  0
   69.4317   73.4032   94.9581 C   0  0  0  0  0  0  0  0  0  0  0  0
   70.4718   73.2001   94.0558 O   0  0  0  0  0  0  0  0  0  0  0  0
   70.4865   73.6689   93.2446 H   0  0  0  0  0  0  0  0  0  0  0  0
   67.7756   77.1781   92.3380 O   0  0  0  0  0  0  0  0  0  0  0  0
   68.7077   77.0191   91.2680 C   0  0  0  0  0  0  0  0  0  0  0  0
   68.0319   76.4535   90.0533 C   0  0  0  0  0  0  0  0  0  0  0  0
   67.6564   77.2275   88.9586 C   0  0  0  0  0  0  0  0  0  0  0  0
   66.9598   76.2128   87.8123 S   0  0  0  0  0  0  0  0  0  0  0  0
   67.1400   74.7926   88.6900 C   0  0  0  0  0  0  0  0  0  0  0  0
   66.5939   73.0628   88.1050 Br  0  0  0  0  0  0  0  0  0  0  0  0
   67.7508   75.0873   89.8985 C   0  0  0  0  0  0  0  0  0  0  0  0
  9 10  2  0  0  0
 10 11  1  0  0  0
 10  1  1  0  0  0
  1  2  2  0  0  0
  2  3  1  0  0  0
  3 13  1  0  0  0
 13 14  1  0  0  0
 14 15  1  0  0  0
 15 16  2  0  0  0
 16 17  1  0  0  0
 17 18  1  0  0  0
 18 19  1  0  0  0
 18 20  2  0  0  0
  3  4  2  0  0  0
  4  5  1  0  0  0
  5  6  2  0  0  0
  6  7  1  0  0  0
  6  1  1  0  0  0
 20 15  1  0  0  0
 11 12  1  0  0  0
  7  8  1  0  0  0
M  END
> <score>
0.380265

> <minimizedAffinity>
-6.37958

$$$$
HIPS6839


 20 21  0  0  0  0  0  0  0  0999 V2000
   68.1500   74.1460   94.4961 C   0  0  0  0  0  0  0  0  0  0  0  0
   68.0955   74.9873   93.3697 C   0  0  0  0  0  0  0  0  0  0  0  0
   66.9594   75.7550   93.0932 C   0  0  0  0  0  0  0  0  0  0  0  0
   65.8568   75.6840   93.9612 C   0  0  0  0  0  0  0  0  0  0  0  0
   65.8894   74.8383   95.0702 C   0  0  0  0  0  0  0  0  0  0  0  0
   67.0142   74.0507   95.3364 C   0  0  0  0  0  0  0  0  0  0  0  0
   66.9496   73.1674   96.4162 O   0  0  0  0  0  0  0  0  0  0  0  0
   66.1795   73.1343   96.9489 H   0  0  0  0  0  0  0  0  0  0  0  0
   69.5512   72.8108   95.8730 O   0  0  0  0  0  0  0  0  0  0  0  0
   69.4078   73.4206   94.7789 C   0  0  0  0  0  0  0  0  0  0  0  0
   70.4165   73.3517   93.8224 O   0  0  0  0  0  0  0  0  0  0  0  0
   70.3196   73.8013   93.0061 H   0  0  0  0  0  0  0  0  0  0  0  0
   66.9751   76.5760   91.9536 O   0  0  0  0  0  0  0  0  0  0  0  0
   68.0734   76.7143   91.0516 C   0  0  0  0  0  0  0  0  0  0  0  0
   67.6120   77.2575   89.7308 C   0  0  0  0  0  0  0  0  0  0  0  0
   67.1487   78.5594   89.5606 C   0  0  0  0  0  0  0  0  0  0  0  0
   66.7590   78.7702   87.9382 S   0  0  0  0  0  0  0  0  0  0  0  0
   67.1840   77.2225   87.4443 C   0  0  0  0  0  0  0  0  0  0  0  0
   67.0590   76.5657   85.6595 Br  0  0  0  0  0  0  0  0  0  0  0  0
   67.6405   76.5113   88.5426 C   0  0  0  0  0  0  0  0  0  0  0  0
  9 10  2  0  0  0
 10 11  1  0  0  0
 10  1  1  0  0  0
  1  2  2  0  0  0
  2  3  1  0  0  0
  3 13  1  0  0  0
 13 14  1  0  0  0
 14 15  1  0  0  0
 15 16  2  0  0  0
 16 17  1  0  0  0
 17 18  1  0  0  0
 18 19  1  0  0  0
 18 20  2  0  0  0
  3  4  2  0  0  0
  4  5  1  0  0  0
  5  6  2  0  0  0
  6  7  1  0  0  0
  6  1  1  0  0  0
 20 15  1  0  0  0
 11 12  1  0  0  0
  7  8  1  0  0  0
M  END
> <score>
0.380265

> <minimizedAffinity>
-6.34541

$$$$
HIPS6840


 34 36  0  0  0  0  0  0  0  0999 V2000
   68.6062   77.2175   90.0476 C   0  0  0  0  0  0  0  0  0  0  0  0
   69.8514   77.7395   90.1256 N   0  0  0  0  0  0  0  0  0  0  0  0
   69.8454   79.0995   90.0823 C   0  0  0  0  0  0  0  0  0  0  0  0
   68.5876   79.6835   89.9660 C   0  0  0  0  0  0  0  0  0  0  0  0
   67.4553   78.4434   89.9202 S   0  0  0  0  0  0  0  0  0  0  0  0
   68.6497   73.5597   91.0796 C   0  0  0  0  0  0  0  0  0  0  0  0
   67.7787   73.0063   90.1334 C   0  0  0  0  0  0  0  0  0  0  0  0
   67.1895   73.8191   89.1636 C   0  0  0  0  0  0  0  0  0  0  0  0
   67.4612   75.1892   89.1354 C   0  0  0  0  0  0  0  0  0  0  0  0
   68.3267   75.7637   90.0834 C   0  0  0  0  0  0  0  0  0  0  0  0
   68.9159   74.9363   91.0577 C   0  0  0  0  0  0  0  0  0  0  0  0
   69.3748   72.5370   92.3151 S   0  0  0  0  0  0  0  0  0  0  0  0
   69.6476   71.1765   91.7348 O   0  0  0  0  0  0  0  0  0  0  0  0
   70.6738   73.1474   92.7656 O   0  0  0  0  0  0  0  0  0  0  0  0
   68.2917   72.4196   93.6123 O   0  0  0  0  0  0  0  0  0  0  0  0
   68.5621   73.4613   94.5225 C   0  0  0  0  0  0  0  0  0  0  0  0
   66.8666   74.2885   96.2106 C   0  0  0  0  0  0  0  0  0  0  0  0
   67.3008   74.3327   94.7315 C   0  0  0  0  0  0  0  0  0  0  0  0
   67.5930   75.7913   94.3244 C   0  0  0  0  0  0  0  0  0  0  0  0
   66.1572   73.7851   93.8548 C   0  0  0  0  0  0  0  0  0  0  0  0
   71.1091   79.8991   90.1693 C   0  0  0  0  0  0  0  0  0  0  0  0
   70.8182   81.2684   90.4497 O   0  0  0  0  0  0  0  0  0  0  0  0
   71.2563   82.3647   89.6884 C   0  0  0  0  0  0  0  0  0  0  0  0
   72.5379   82.9228   89.8301 C   0  0  0  0  0  0  0  0  0  0  0  0
   72.9139   84.0228   89.0589 C   0  0  0  0  0  0  0  0  0  0  0  0
   72.0275   84.5863   88.1351 C   0  0  0  0  0  0  0  0  0  0  0  0
   72.4419   85.7336   87.4549 O   0  0  0  0  0  0  0  0  0  0  0  0
   70.7482   84.0048   87.9483 C   0  0  0  0  0  0  0  0  0  0  0  0
   70.3756   82.9092   88.7477 C   0  0  0  0  0  0  0  0  0  0  0  0
   73.2967   86.0858   87.6077 H   0  0  0  0  0  0  0  0  0  0  0  0
   69.7932   84.4816   86.9233 C   0  0  0  0  0  0  0  0  0  0  0  0
   68.5832   84.1314   86.9567 O   0  0  0  0  0  0  0  0  0  0  0  0
   70.2169   85.3776   85.9453 O   0  0  0  0  0  0  0  0  0  0  0  0
   71.1144   85.6445   85.9116 H   0  0  0  0  0  0  0  0  0  0  0  0
 17 18  1  0  0  0
 18 19  1  0  0  0
 18 20  1  0  0  0
 18 16  1  0  0  0
 16 15  1  0  0  0
 15 12  1  0  0  0
 12 13  2  0  0  0
 12 14  2  0  0  0
 12  6  1  0  0  0
  6  7  2  0  0  0
  7  8  1  0  0  0
  8  9  2  0  0  0
  9 10  1  0  0  0
 10  1  1  0  0  0
  1  2  2  0  0  0
  2  3  2  0  0  0
  3 21  1  0  0  0
 21 22  1  0  0  0
 22 23  1  0  0  0
 23 24  2  0  0  0
 24 25  1  0  0  0
 25 26  2  0  0  0
 26 27  1  0  0  0
 26 28  1  0  0  0
 28 31  1  0  0  0
 31 32  2  0  0  0
 31 33  1  0  0  0
 28 29  2  0  0  0
  3  4  2  0  0  0
  4  5  1  0  0  0
 10 11  2  0  0  0
 11  6  1  0  0  0
  5  1  1  0  0  0
 29 23  1  0  0  0
 27 30  1  0  0  0
 33 34  1  0  0  0
M  END
> <score>
0.635253

> <minimizedAffinity>
-8.88977

$$$$
HIPS6840


 34 36  0  0  0  0  0  0  0  0999 V2000
   67.7000   76.8831   89.1238 C   0  0  0  0  0  0  0  0  0  0  0  0
   67.8816   77.9623   89.9184 N   0  0  0  0  0  0  0  0  0  0  0  0
   67.7112   79.1333   89.2466 C   0  0  0  0  0  0  0  0  0  0  0  0
   67.3918   79.0025   87.8985 C   0  0  0  0  0  0  0  0  0  0  0  0
   67.3210   77.3603   87.5514 S   0  0  0  0  0  0  0  0  0  0  0  0
   68.6715   73.8498   91.1979 C   0  0  0  0  0  0  0  0  0  0  0  0
   68.0162   72.8290   90.4988 C   0  0  0  0  0  0  0  0  0  0  0  0
   67.2710   73.1282   89.3571 C   0  0  0  0  0  0  0  0  0  0  0  0
   67.1705   74.4477   88.9094 C   0  0  0  0  0  0  0  0  0  0  0  0
   67.8148   75.4870   89.6041 C   0  0  0  0  0  0  0  0  0  0  0  0
   68.5638   75.1757   90.7545 C   0  0  0  0  0  0  0  0  0  0  0  0
   69.5929   73.4736   92.6497 S   0  0  0  0  0  0  0  0  0  0  0  0
   70.6168   72.4199   92.3276 O   0  0  0  0  0  0  0  0  0  0  0  0
   70.2985   74.7140   93.1254 O   0  0  0  0  0  0  0  0  0  0  0  0
   68.5179   72.9109   93.8318 O   0  0  0  0  0  0  0  0  0  0  0  0
   68.4344   73.8709   94.8604 C   0  0  0  0  0  0  0  0  0  0  0  0
   66.0414   73.6946   94.0531 C   0  0  0  0  0  0  0  0  0  0  0  0
   67.0467   74.5551   94.8450 C   0  0  0  0  0  0  0  0  0  0  0  0
   66.5360   74.7465   96.2876 C   0  0  0  0  0  0  0  0  0  0  0  0
   67.1710   75.9346   94.1681 C   0  0  0  0  0  0  0  0  0  0  0  0
   67.8464   80.4615   89.9259 C   0  0  0  0  0  0  0  0  0  0  0  0
   68.2864   81.4558   89.0006 O   0  0  0  0  0  0  0  0  0  0  0  0
   69.5244   82.1181   89.0470 C   0  0  0  0  0  0  0  0  0  0  0  0
   70.5800   81.6957   89.8724 C   0  0  0  0  0  0  0  0  0  0  0  0
   71.7829   82.4020   89.8906 C   0  0  0  0  0  0  0  0  0  0  0  0
   71.9593   83.5364   89.0914 C   0  0  0  0  0  0  0  0  0  0  0  0
   73.1593   84.2397   89.2191 O   0  0  0  0  0  0  0  0  0  0  0  0
   70.9198   83.9467   88.2193 C   0  0  0  0  0  0  0  0  0  0  0  0
   69.7054   83.2371   88.2272 C   0  0  0  0  0  0  0  0  0  0  0  0
   73.8212   83.9339   89.8076 H   0  0  0  0  0  0  0  0  0  0  0  0
   71.0660   85.0753   87.2734 C   0  0  0  0  0  0  0  0  0  0  0  0
   71.9628   85.9446   87.4402 O   0  0  0  0  0  0  0  0  0  0  0  0
   70.2466   85.1479   86.1498 O   0  0  0  0  0  0  0  0  0  0  0  0
   69.5767   84.5066   86.0163 H   0  0  0  0  0  0  0  0  0  0  0  0
 17 18  1  0  0  0
 18 19  1  0  0  0
 18 20  1  0  0  0
 18 16  1  0  0  0
 16 15  1  0  0  0
 15 12  1  0  0  0
 12 13  2  0  0  0
 12 14  2  0  0  0
 12  6  1  0  0  0
  6  7  2  0  0  0
  7  8  1  0  0  0
  8  9  2  0  0  0
  9 10  1  0  0  0
 10  1  1  0  0  0
  1  2  2  0  0  0
  2  3  2  0  0  0
  3 21  1  0  0  0
 21 22  1  0  0  0
 22 23  1  0  0  0
 23 24  2  0  0  0
 24 25  1  0  0  0
 25 26  2  0  0  0
 26 27  1  0  0  0
 26 28  1  0  0  0
 28 31  1  0  0  0
 31 32  2  0  0  0
 31 33  1  0  0  0
 28 29  2  0  0  0
  3  4  2  0  0  0
  4  5  1  0  0  0
 10 11  2  0  0  0
 11  6  1  0  0  0
  5  1  1  0  0  0
 29 23  1  0  0  0
 27 30  1  0  0  0
 33 34  1  0  0  0
M  END
> <score>
0.635253

> <minimizedAffinity>
-8.79130

$$$$
HIPS6840


 34 36  0  0  0  0  0  0  0  0999 V2000
   67.5803   76.8617   89.0840 C   0  0  0  0  0  0  0  0  0  0  0  0
   67.7670   77.9582   89.8534 N   0  0  0  0  0  0  0  0  0  0  0  0
   67.5415   79.1133   89.1705 C   0  0  0  0  0  0  0  0  0  0  0  0
   67.1721   78.9523   87.8385 C   0  0  0  0  0  0  0  0  0  0  0  0
   67.1276   77.3033   87.5208 S   0  0  0  0  0  0  0  0  0  0  0  0
   68.6618   73.8941   91.1983 C   0  0  0  0  0  0  0  0  0  0  0  0
   68.0506   72.8399   90.5088 C   0  0  0  0  0  0  0  0  0  0  0  0
   67.2993   73.0958   89.3606 C   0  0  0  0  0  0  0  0  0  0  0  0
   67.1487   74.4050   88.8967 C   0  0  0  0  0  0  0  0  0  0  0  0
   67.7482   75.4771   89.5816 C   0  0  0  0  0  0  0  0  0  0  0  0
   68.5036   75.2094   90.7386 C   0  0  0  0  0  0  0  0  0  0  0  0
   69.5907   73.5719   92.6583 S   0  0  0  0  0  0  0  0  0  0  0  0
   70.6578   72.5569   92.3527 O   0  0  0  0  0  0  0  0  0  0  0  0
   70.2435   74.8451   93.1227 O   0  0  0  0  0  0  0  0  0  0  0  0
   68.5338   72.9796   93.8422 O   0  0  0  0  0  0  0  0  0  0  0  0
   68.4233   73.9381   94.8696 C   0  0  0  0  0  0  0  0  0  0  0  0
   67.0547   75.9499   94.1707 C   0  0  0  0  0  0  0  0  0  0  0  0
   67.0121   74.5725   94.8629 C   0  0  0  0  0  0  0  0  0  0  0  0
   66.0230   73.6528   94.1184 C   0  0  0  0  0  0  0  0  0  0  0  0
   66.5330   74.7546   96.3168 C   0  0  0  0  0  0  0  0  0  0  0  0
   67.6712   80.4557   89.8225 C   0  0  0  0  0  0  0  0  0  0  0  0
   68.9448   81.0327   89.5340 O   0  0  0  0  0  0  0  0  0  0  0  0
   69.1637   82.1464   88.7062 C   0  0  0  0  0  0  0  0  0  0  0  0
   68.1867   82.6407   87.8256 C   0  0  0  0  0  0  0  0  0  0  0  0
   68.4649   83.7406   87.0141 C   0  0  0  0  0  0  0  0  0  0  0  0
   69.7138   84.3687   87.0625 C   0  0  0  0  0  0  0  0  0  0  0  0
   69.9499   85.4135   86.1662 O   0  0  0  0  0  0  0  0  0  0  0  0
   70.6928   83.9099   87.9795 C   0  0  0  0  0  0  0  0  0  0  0  0
   70.4054   82.7871   88.7763 C   0  0  0  0  0  0  0  0  0  0  0  0
   69.2749   85.6861   85.5762 H   0  0  0  0  0  0  0  0  0  0  0  0
   71.9993   84.5812   88.1595 C   0  0  0  0  0  0  0  0  0  0  0  0
   72.2119   85.7213   87.6669 O   0  0  0  0  0  0  0  0  0  0  0  0
   72.9868   83.9783   88.9342 O   0  0  0  0  0  0  0  0  0  0  0  0
   72.8389   83.1307   89.3052 H   0  0  0  0  0  0  0  0  0  0  0  0
 17 18  1  0  0  0
 18 19  1  0  0  0
 18 20  1  0  0  0
 18 16  1  0  0  0
 16 15  1  0  0  0
 15 12  1  0  0  0
 12 13  2  0  0  0
 12 14  2  0  0  0
 12  6  1  0  0  0
  6  7  2  0  0  0
  7  8  1  0  0  0
  8  9  2  0  0  0
  9 10  1  0  0  0
 10  1  1  0  0  0
  1  2  2  0  0  0
  2  3  2  0  0  0
  3 21  1  0  0  0
 21 22  1  0  0  0
 22 23  1  0  0  0
 23 24  2  0  0  0
 24 25  1  0  0  0
 25 26  2  0  0  0
 26 27  1  0  0  0
 26 28  1  0  0  0
 28 31  1  0  0  0
 31 32  2  0  0  0
 31 33  1  0  0  0
 28 29  2  0  0  0
  3  4  2  0  0  0
  4  5  1  0  0  0
 10 11  2  0  0  0
 11  6  1  0  0  0
  5  1  1  0  0  0
 29 23  1  0  0  0
 27 30  1  0  0  0
 33 34  1  0  0  0
M  END
> <score>
0.635253

> <minimizedAffinity>
-8.71497

$$$$
HIPS6862


 26 28  0  0  0  0  0  0  0  0999 V2000
   67.8520   78.8268   88.9877 O   0  0  0  0  0  0  0  0  0  0  0  0
   69.8837   76.5468   91.1673 C   0  0  0  0  0  0  0  0  0  0  0  0
   68.7883   77.0665   90.4504 C   0  0  0  0  0  0  0  0  0  0  0  0
   68.8955   78.2887   89.7585 C   0  0  0  0  0  0  0  0  0  0  0  0
   70.1008   78.9911   89.8000 C   0  0  0  0  0  0  0  0  0  0  0  0
   71.1750   78.5138   90.5496 C   0  0  0  0  0  0  0  0  0  0  0  0
   71.0743   77.3096   91.2533 C   0  0  0  0  0  0  0  0  0  0  0  0
   72.1589   76.9236   92.0449 O   0  0  0  0  0  0  0  0  0  0  0  0
   72.9296   77.4557   92.0753 H   0  0  0  0  0  0  0  0  0  0  0  0
   70.2592   74.9347   92.8816 O   0  0  0  0  0  0  0  0  0  0  0  0
   69.7729   75.1894   91.7467 C   0  0  0  0  0  0  0  0  0  0  0  0
   69.1990   74.1587   91.0076 O   0  0  0  0  0  0  0  0  0  0  0  0
   68.8341   74.3349   90.1627 H   0  0  0  0  0  0  0  0  0  0  0  0
   67.1521   80.0464   89.2469 C   0  0  0  0  0  0  0  0  0  0  0  0
   67.5461   81.1155   88.2305 C   0  0  0  0  0  0  0  0  0  0  0  0
   68.2645   82.1663   88.8700 O   0  0  0  0  0  0  0  0  0  0  0  0
   69.0542   83.1149   88.1956 C   0  0  0  0  0  0  0  0  0  0  0  0
   68.5221   83.9333   87.1786 C   0  0  0  0  0  0  0  0  0  0  0  0
   69.3212   84.8774   86.5291 C   0  0  0  0  0  0  0  0  0  0  0  0
   70.6651   85.0179   86.8795 C   0  0  0  0  0  0  0  0  0  0  0  0
   71.2194   84.2227   87.8960 C   0  0  0  0  0  0  0  0  0  0  0  0
   72.5664   84.3801   88.2676 C   0  0  0  0  0  0  0  0  0  0  0  0
   73.1115   83.5974   89.2893 C   0  0  0  0  0  0  0  0  0  0  0  0
   72.3190   82.6573   89.9501 C   0  0  0  0  0  0  0  0  0  0  0  0
   70.9780   82.4905   89.5932 C   0  0  0  0  0  0  0  0  0  0  0  0
   70.4114   83.2635   88.5604 C   0  0  0  0  0  0  0  0  0  0  0  0
 10 11  2  0  0  0
 11 12  1  0  0  0
 11  2  1  0  0  0
  2  3  2  0  0  0
  3  4  1  0  0  0
  4  1  1  0  0  0
  1 14  1  0  0  0
 14 15  1  0  0  0
 15 16  1  0  0  0
 16 17  1  0  0  0
 17 18  2  0  0  0
 18 19  1  0  0  0
 19 20  2  0  0  0
 20 21  1  0  0  0
 21 22  2  0  0  0
 22 23  1  0  0  0
 23 24  2  0  0  0
 24 25  1  0  0  0
 25 26  2  0  0  0
  4  5  2  0  0  0
  5  6  1  0  0  0
  6  7  2  0  0  0
  7  8  1  0  0  0
  7  2  1  0  0  0
 26 17  1  0  0  0
 26 21  1  0  0  0
 12 13  1  0  0  0
  8  9  1  0  0  0
M  END
> <score>
0.461461

> <minimizedAffinity>
-8.03820

$$$$
HIPS6862


 26 28  0  0  0  0  0  0  0  0999 V2000
   68.0706   78.1846   89.6312 O   0  0  0  0  0  0  0  0  0  0  0  0
   69.1394   75.0063   91.3145 C   0  0  0  0  0  0  0  0  0  0  0  0
   69.0499   76.3779   91.0066 C   0  0  0  0  0  0  0  0  0  0  0  0
   68.2353   76.8264   89.9486 C   0  0  0  0  0  0  0  0  0  0  0  0
   67.5224   75.8927   89.1952 C   0  0  0  0  0  0  0  0  0  0  0  0
   67.6440   74.5285   89.4560 C   0  0  0  0  0  0  0  0  0  0  0  0
   68.4624   74.0711   90.4936 C   0  0  0  0  0  0  0  0  0  0  0  0
   68.5999   72.6903   90.6561 O   0  0  0  0  0  0  0  0  0  0  0  0
   68.1350   72.1037   90.0924 H   0  0  0  0  0  0  0  0  0  0  0  0
   70.4824   73.4907   92.5704 O   0  0  0  0  0  0  0  0  0  0  0  0
   69.8822   74.5985   92.5278 C   0  0  0  0  0  0  0  0  0  0  0  0
   69.8586   75.4016   93.6647 O   0  0  0  0  0  0  0  0  0  0  0  0
   69.4160   76.2272   93.6460 H   0  0  0  0  0  0  0  0  0  0  0  0
   68.4554   79.2953   90.4453 C   0  0  0  0  0  0  0  0  0  0  0  0
   69.7540   79.9114   89.9301 C   0  0  0  0  0  0  0  0  0  0  0  0
   69.7348   81.3251   90.1038 O   0  0  0  0  0  0  0  0  0  0  0  0
   70.7499   82.1942   89.6648 C   0  0  0  0  0  0  0  0  0  0  0  0
   72.0410   82.1707   90.2301 C   0  0  0  0  0  0  0  0  0  0  0  0
   73.0383   83.0350   89.7715 C   0  0  0  0  0  0  0  0  0  0  0  0
   72.7633   83.9400   88.7449 C   0  0  0  0  0  0  0  0  0  0  0  0
   71.4886   83.9786   88.1564 C   0  0  0  0  0  0  0  0  0  0  0  0
   71.2170   84.8722   87.1053 C   0  0  0  0  0  0  0  0  0  0  0  0
   69.9517   84.8983   86.5119 C   0  0  0  0  0  0  0  0  0  0  0  0
   68.9511   84.0329   86.9573 C   0  0  0  0  0  0  0  0  0  0  0  0
   69.2065   83.1377   88.0001 C   0  0  0  0  0  0  0  0  0  0  0  0
   70.4725   83.1013   88.6173 C   0  0  0  0  0  0  0  0  0  0  0  0
 10 11  2  0  0  0
 11 12  1  0  0  0
 11  2  1  0  0  0
  2  3  2  0  0  0
  3  4  1  0  0  0
  4  1  1  0  0  0
  1 14  1  0  0  0
 14 15  1  0  0  0
 15 16  1  0  0  0
 16 17  1  0  0  0
 17 18  2  0  0  0
 18 19  1  0  0  0
 19 20  2  0  0  0
 20 21  1  0  0  0
 21 22  2  0  0  0
 22 23  1  0  0  0
 23 24  2  0  0  0
 24 25  1  0  0  0
 25 26  2  0  0  0
  4  5  2  0  0  0
  5  6  1  0  0  0
  6  7  2  0  0  0
  7  8  1  0  0  0
  7  2  1  0  0  0
 26 17  1  0  0  0
 26 21  1  0  0  0
 12 13  1  0  0  0
  8  9  1  0  0  0
M  END
> <score>
0.461461

> <minimizedAffinity>
-7.85576

$$$$
HIPS6862


 26 28  0  0  0  0  0  0  0  0999 V2000
   68.1804   79.9880   89.9065 O   0  0  0  0  0  0  0  0  0  0  0  0
   70.8139   77.5128   90.9139 C   0  0  0  0  0  0  0  0  0  0  0  0
   70.1957   78.6014   90.2684 C   0  0  0  0  0  0  0  0  0  0  0  0
   68.8333   78.8869   90.4843 C   0  0  0  0  0  0  0  0  0  0  0  0
   68.0935   78.0690   91.3395 C   0  0  0  0  0  0  0  0  0  0  0  0
   68.6804   76.9575   91.9426 C   0  0  0  0  0  0  0  0  0  0  0  0
   70.0280   76.6554   91.7226 C   0  0  0  0  0  0  0  0  0  0  0  0
   70.5369   75.4872   92.2956 O   0  0  0  0  0  0  0  0  0  0  0  0
   69.9848   74.9460   92.8249 H   0  0  0  0  0  0  0  0  0  0  0  0
   72.9731   76.9590   91.7564 O   0  0  0  0  0  0  0  0  0  0  0  0
   72.2783   77.3459   90.7783 C   0  0  0  0  0  0  0  0  0  0  0  0
   72.9140   77.6920   89.5891 O   0  0  0  0  0  0  0  0  0  0  0  0
   72.4089   77.9811   88.8548 H   0  0  0  0  0  0  0  0  0  0  0  0
   67.2923   79.9515   88.7865 C   0  0  0  0  0  0  0  0  0  0  0  0
   67.4839   81.1880   87.9115 C   0  0  0  0  0  0  0  0  0  0  0  0
   68.1599   82.2096   88.6385 O   0  0  0  0  0  0  0  0  0  0  0  0
   69.0689   83.1207   88.0712 C   0  0  0  0  0  0  0  0  0  0  0  0
   68.6859   84.0070   87.0442 C   0  0  0  0  0  0  0  0  0  0  0  0
   69.6018   84.9122   86.5022 C   0  0  0  0  0  0  0  0  0  0  0  0
   70.9158   84.9452   86.9721 C   0  0  0  0  0  0  0  0  0  0  0  0
   71.3226   84.0805   88.0015 C   0  0  0  0  0  0  0  0  0  0  0  0
   72.6389   84.1297   88.4933 C   0  0  0  0  0  0  0  0  0  0  0  0
   73.0369   83.2778   89.5276 C   0  0  0  0  0  0  0  0  0  0  0  0
   72.1268   82.3758   90.0815 C   0  0  0  0  0  0  0  0  0  0  0  0
   70.8144   82.3165   89.6043 C   0  0  0  0  0  0  0  0  0  0  0  0
   70.3954   83.1605   88.5569 C   0  0  0  0  0  0  0  0  0  0  0  0
 10 11  2  0  0  0
 11 12  1  0  0  0
 11  2  1  0  0  0
  2  3  2  0  0  0
  3  4  1  0  0  0
  4  1  1  0  0  0
  1 14  1  0  0  0
 14 15  1  0  0  0
 15 16  1  0  0  0
 16 17  1  0  0  0
 17 18  2  0  0  0
 18 19  1  0  0  0
 19 20  2  0  0  0
 20 21  1  0  0  0
 21 22  2  0  0  0
 22 23  1  0  0  0
 23 24  2  0  0  0
 24 25  1  0  0  0
 25 26  2  0  0  0
  4  5  2  0  0  0
  5  6  1  0  0  0
  6  7  2  0  0  0
  7  8  1  0  0  0
  7  2  1  0  0  0
 26 17  1  0  0  0
 26 21  1  0  0  0
 12 13  1  0  0  0
  8  9  1  0  0  0
M  END
> <score>
0.461461

> <minimizedAffinity>
-7.84341

$$$$
HIPS6863


 24 26  0  0  0  0  0  0  0  0999 V2000
   69.6236   76.3160   91.1419 C   0  0  0  0  0  0  0  0  0  0  0  0
   70.3897   77.4943   91.1322 C   0  0  0  0  0  0  0  0  0  0  0  0
   70.1120   78.5286   90.2255 C   0  0  0  0  0  0  0  0  0  0  0  0
   69.0423   78.3908   89.3327 C   0  0  0  0  0  0  0  0  0  0  0  0
   68.2726   77.2275   89.3328 C   0  0  0  0  0  0  0  0  0  0  0  0
   68.5660   76.1759   90.2085 C   0  0  0  0  0  0  0  0  0  0  0  0
   67.8135   75.0052   90.0914 O   0  0  0  0  0  0  0  0  0  0  0  0
   67.1223   74.9536   89.4610 H   0  0  0  0  0  0  0  0  0  0  0  0
   70.1604   74.0814   91.7731 O   0  0  0  0  0  0  0  0  0  0  0  0
   69.9608   75.2722   92.1331 C   0  0  0  0  0  0  0  0  0  0  0  0
   70.0039   75.5935   93.4873 O   0  0  0  0  0  0  0  0  0  0  0  0
   69.8566   76.4765   93.7642 H   0  0  0  0  0  0  0  0  0  0  0  0
   71.0079   79.7387   90.1569 C   0  0  0  0  0  0  0  0  0  0  0  0
   70.2064   81.0512   90.1623 C   0  0  0  0  0  0  0  0  0  0  0  0
   71.0140   82.2121   89.6079 C   0  0  0  0  0  0  0  0  0  0  0  0
   72.3273   82.3692   90.0861 C   0  0  0  0  0  0  0  0  0  0  0  0
   73.1620   83.3640   89.5823 C   0  0  0  0  0  0  0  0  0  0  0  0
   72.7122   84.2158   88.5783 C   0  0  0  0  0  0  0  0  0  0  0  0
   71.4148   84.0833   88.0674 C   0  0  0  0  0  0  0  0  0  0  0  0
   70.9844   84.9341   87.0370 C   0  0  0  0  0  0  0  0  0  0  0  0
   69.7018   84.8050   86.5067 C   0  0  0  0  0  0  0  0  0  0  0  0
   68.8355   83.8332   87.0025 C   0  0  0  0  0  0  0  0  0  0  0  0
   69.2435   82.9825   88.0321 C   0  0  0  0  0  0  0  0  0  0  0  0
   70.5425   83.0827   88.5814 C   0  0  0  0  0  0  0  0  0  0  0  0
  9 10  2  0  0  0
 10 11  1  0  0  0
 10  1  1  0  0  0
  1  2  2  0  0  0
  2  3  1  0  0  0
  3 13  1  0  0  0
 13 14  1  0  0  0
 14 15  1  0  0  0
 15 16  2  0  0  0
 16 17  1  0  0  0
 17 18  2  0  0  0
 18 19  1  0  0  0
 19 20  2  0  0  0
 20 21  1  0  0  0
 21 22  2  0  0  0
 22 23  1  0  0  0
 23 24  2  0  0  0
  3  4  2  0  0  0
  4  5  1  0  0  0
  5  6  2  0  0  0
  6  7  1  0  0  0
  6  1  1  0  0  0
 24 15  1  0  0  0
 24 19  1  0  0  0
 11 12  1  0  0  0
  7  8  1  0  0  0
M  END
> <score>
-0.401787

> <minimizedAffinity>
-8.62380

$$$$
HIPS6863


 24 26  0  0  0  0  0  0  0  0999 V2000
   68.3559   74.4096   94.5864 C   0  0  0  0  0  0  0  0  0  0  0  0
   68.6704   75.4818   93.7339 C   0  0  0  0  0  0  0  0  0  0  0  0
   67.7074   76.4471   93.4023 C   0  0  0  0  0  0  0  0  0  0  0  0
   66.4212   76.3497   93.9468 C   0  0  0  0  0  0  0  0  0  0  0  0
   66.0961   75.2917   94.7959 C   0  0  0  0  0  0  0  0  0  0  0  0
   67.0397   74.3045   95.1021 C   0  0  0  0  0  0  0  0  0  0  0  0
   66.6197   73.2256   95.8831 O   0  0  0  0  0  0  0  0  0  0  0  0
   65.7401   73.1944   96.2047 H   0  0  0  0  0  0  0  0  0  0  0  0
   69.4174   72.8116   96.0006 O   0  0  0  0  0  0  0  0  0  0  0  0
   69.4218   73.4363   94.9064 C   0  0  0  0  0  0  0  0  0  0  0  0
   70.4746   73.2466   94.0149 O   0  0  0  0  0  0  0  0  0  0  0  0
   70.4862   73.7069   93.1989 H   0  0  0  0  0  0  0  0  0  0  0  0
   68.0299   77.5295   92.4043 C   0  0  0  0  0  0  0  0  0  0  0  0
   68.9563   77.0252   91.2852 C   0  0  0  0  0  0  0  0  0  0  0  0
   68.1904   76.7153   90.0105 C   0  0  0  0  0  0  0  0  0  0  0  0
   67.9779   77.7770   89.1128 C   0  0  0  0  0  0  0  0  0  0  0  0
   67.3462   77.5686   87.8891 C   0  0  0  0  0  0  0  0  0  0  0  0
   66.9252   76.2935   87.5244 C   0  0  0  0  0  0  0  0  0  0  0  0
   67.1296   75.2083   88.3860 C   0  0  0  0  0  0  0  0  0  0  0  0
   66.7219   73.9238   87.9929 C   0  0  0  0  0  0  0  0  0  0  0  0
   66.9323   72.8306   88.8319 C   0  0  0  0  0  0  0  0  0  0  0  0
   67.5434   73.0086   90.0711 C   0  0  0  0  0  0  0  0  0  0  0  0
   67.9493   74.2800   90.4822 C   0  0  0  0  0  0  0  0  0  0  0  0
   67.7592   75.4052   89.6474 C   0  0  0  0  0  0  0  0  0  0  0  0
  9 10  2  0  0  0
 10 11  1  0  0  0
 10  1  1  0  0  0
  1  2  2  0  0  0
  2  3  1  0  0  0
  3 13  1  0  0  0
 13 14  1  0  0  0
 14 15  1  0  0  0
 15 16  2  0  0  0
 16 17  1  0  0  0
 17 18  2  0  0  0
 18 19  1  0  0  0
 19 20  2  0  0  0
 20 21  1  0  0  0
 21 22  2  0  0  0
 22 23  1  0  0  0
 23 24  2  0  0  0
  3  4  2  0  0  0
  4  5  1  0  0  0
  5  6  2  0  0  0
  6  7  1  0  0  0
  6  1  1  0  0  0
 24 15  1  0  0  0
 24 19  1  0  0  0
 11 12  1  0  0  0
  7  8  1  0  0  0
M  END
> <score>
-0.401787

> <minimizedAffinity>
-8.62341

$$$$
HIPS6863


 24 26  0  0  0  0  0  0  0  0999 V2000
   68.4205   77.0872   89.6810 C   0  0  0  0  0  0  0  0  0  0  0  0
   69.2106   78.2419   89.5486 C   0  0  0  0  0  0  0  0  0  0  0  0
   70.3819   78.4059   90.3037 C   0  0  0  0  0  0  0  0  0  0  0  0
   70.7780   77.3933   91.1859 C   0  0  0  0  0  0  0  0  0  0  0  0
   70.0042   76.2411   91.3257 C   0  0  0  0  0  0  0  0  0  0  0  0
   68.8153   76.0862   90.6038 C   0  0  0  0  0  0  0  0  0  0  0  0
   68.0434   74.9510   90.8610 O   0  0  0  0  0  0  0  0  0  0  0  0
   68.3407   74.3125   91.4791 H   0  0  0  0  0  0  0  0  0  0  0  0
   66.3196   77.8660   88.8688 O   0  0  0  0  0  0  0  0  0  0  0  0
   67.2070   76.9719   88.8445 C   0  0  0  0  0  0  0  0  0  0  0  0
   67.0126   75.8367   88.0618 O   0  0  0  0  0  0  0  0  0  0  0  0
   67.6671   75.1667   88.0376 H   0  0  0  0  0  0  0  0  0  0  0  0
   71.1597   79.6947   90.2280 C   0  0  0  0  0  0  0  0  0  0  0  0
   70.2421   80.9112   90.0205 C   0  0  0  0  0  0  0  0  0  0  0  0
   71.0134   82.1294   89.5426 C   0  0  0  0  0  0  0  0  0  0  0  0
   72.3175   82.3017   90.0402 C   0  0  0  0  0  0  0  0  0  0  0  0
   73.1212   83.3520   89.6032 C   0  0  0  0  0  0  0  0  0  0  0  0
   72.6492   84.2465   88.6477 C   0  0  0  0  0  0  0  0  0  0  0  0
   71.3604   84.1013   88.1189 C   0  0  0  0  0  0  0  0  0  0  0  0
   70.9080   84.9970   87.1372 C   0  0  0  0  0  0  0  0  0  0  0  0
   69.6339   84.8568   86.5894 C   0  0  0  0  0  0  0  0  0  0  0  0
   68.7979   83.8287   87.0195 C   0  0  0  0  0  0  0  0  0  0  0  0
   69.2279   82.9324   88.0003 C   0  0  0  0  0  0  0  0  0  0  0  0
   70.5192   83.0433   88.5655 C   0  0  0  0  0  0  0  0  0  0  0  0
  9 10  2  0  0  0
 10 11  1  0  0  0
 10  1  1  0  0  0
  1  2  2  0  0  0
  2  3  1  0  0  0
  3 13  1  0  0  0
 13 14  1  0  0  0
 14 15  1  0  0  0
 15 16  2  0  0  0
 16 17  1  0  0  0
 17 18  2  0  0  0
 18 19  1  0  0  0
 19 20  2  0  0  0
 20 21  1  0  0  0
 21 22  2  0  0  0
 22 23  1  0  0  0
 23 24  2  0  0  0
  3  4  2  0  0  0
  4  5  1  0  0  0
  5  6  2  0  0  0
  6  7  1  0  0  0
  6  1  1  0  0  0
 24 15  1  0  0  0
 24 19  1  0  0  0
 11 12  1  0  0  0
  7  8  1  0  0  0
M  END
> <score>
-0.401787

> <minimizedAffinity>
-8.25289

$$$$
HIPS6897


 30 33  0  0  0  0  0  0  0  0999 V2000
   70.3750   77.6811   90.8887 C   0  0  0  0  0  0  0  0  0  0  0  0
   69.9823   78.6430   90.1243 N   0  0  0  0  0  0  0  0  0  0  0  0
   69.2751   74.2781   92.0771 C   0  0  0  0  0  0  0  0  0  0  0  0
   69.9744   75.4827   91.9573 C   0  0  0  0  0  0  0  0  0  0  0  0
   69.6443   76.4284   91.0100 C   0  0  0  0  0  0  0  0  0  0  0  0
   68.5862   76.1380   90.1759 C   0  0  0  0  0  0  0  0  0  0  0  0
   67.8893   74.9413   90.2930 C   0  0  0  0  0  0  0  0  0  0  0  0
   68.2189   73.9956   91.2395 C   0  0  0  0  0  0  0  0  0  0  0  0
   67.4982   72.8018   91.3314 O   0  0  0  0  0  0  0  0  0  0  0  0
   66.7844   72.6392   90.7466 H   0  0  0  0  0  0  0  0  0  0  0  0
   68.7279   72.9007   94.0632 N   0  0  0  0  0  0  0  0  0  0  0  0
   69.6522   73.3172   93.0797 C   0  0  0  0  0  0  0  0  0  0  0  0
   70.8070   72.8436   93.0853 O   0  0  0  0  0  0  0  0  0  0  0  0
   68.9969   72.2428   94.7444 H   0  0  0  0  0  0  0  0  0  0  0  0
   67.8146   73.2684   94.0676 H   0  0  0  0  0  0  0  0  0  0  0  0
   70.7484   79.8296   90.0617 N   0  0  0  0  0  0  0  0  0  0  0  0
   70.1663   81.1092   90.2778 C   0  0  0  0  0  0  0  0  0  0  0  0
   68.9341   81.1193   90.5268 O   0  0  0  0  0  0  0  0  0  0  0  0
   71.7107   79.7685   89.8631 H   0  0  0  0  0  0  0  0  0  0  0  0
   70.9559   82.3381   90.2136 C   0  0  0  0  0  0  0  0  0  0  0  0
   70.5131   83.3480   89.2234 C   0  0  0  0  0  0  0  0  0  0  0  0
   71.7990   83.9995   88.6889 C   0  0  0  0  0  0  0  0  0  0  0  0
   71.5104   85.1175   87.7401 C   0  0  0  0  0  0  0  0  0  0  0  0
   70.7170   86.1721   88.4665 C   0  0  0  0  0  0  0  0  0  0  0  0
   69.4118   85.5647   88.8883 C   0  0  0  0  0  0  0  0  0  0  0  0
   68.6553   85.0063   87.7162 C   0  0  0  0  0  0  0  0  0  0  0  0
   69.4894   83.9251   87.0717 C   0  0  0  0  0  0  0  0  0  0  0  0
   70.7545   84.5362   86.5591 C   0  0  0  0  0  0  0  0  0  0  0  0
   69.7317   82.8152   88.0738 C   0  0  0  0  0  0  0  0  0  0  0  0
   69.7304   84.4584   89.8993 C   0  0  0  0  0  0  0  0  0  0  0  0
 11 12  1  0  0  0
 12 13  2  0  0  0
 12  3  1  0  0  0
  3  4  2  0  0  0
  4  5  1  0  0  0
  5  1  1  0  0  0
  1  2  2  0  0  0
  2 16  1  0  0  0
 16 17  1  0  0  0
 17 18  2  0  0  0
 17 20  1  0  0  0
 21 20  1  0  0  0
 21 22  1  0  0  0
 23 22  1  0  0  0
 23 24  1  0  0  0
 25 24  1  0  0  0
 25 26  1  0  0  0
 27 26  1  0  0  0
 27 28  1  0  0  0
 27 29  1  0  0  0
 25 30  1  0  0  0
  5  6  2  0  0  0
  6  7  1  0  0  0
  7  8  2  0  0  0
  8  9  1  0  0  0
  8  3  1  0  0  0
 29 21  1  0  0  0
 30 21  1  0  0  0
 28 23  1  0  0  0
 11 14  1  0  0  0
 11 15  1  0  0  0
 16 19  1  0  0  0
  9 10  1  0  0  0
M  END
> <score>
0.139713

> <minimizedAffinity>
-8.24277

$$$$
HIPS6897


 30 33  0  0  0  0  0  0  0  0999 V2000
   68.5167   78.2270   90.9575 C   0  0  0  0  0  0  0  0  0  0  0  0
   68.8609   79.0180   89.9986 N   0  0  0  0  0  0  0  0  0  0  0  0
   69.0351   74.5459   91.5766 C   0  0  0  0  0  0  0  0  0  0  0  0
   69.0695   75.9361   91.7200 C   0  0  0  0  0  0  0  0  0  0  0  0
   68.4784   76.7803   90.8043 C   0  0  0  0  0  0  0  0  0  0  0  0
   67.8446   76.1949   89.7294 C   0  0  0  0  0  0  0  0  0  0  0  0
   67.8088   74.8131   89.5845 C   0  0  0  0  0  0  0  0  0  0  0  0
   68.3996   73.9689   90.4995 C   0  0  0  0  0  0  0  0  0  0  0  0
   68.3460   72.5833   90.3250 O   0  0  0  0  0  0  0  0  0  0  0  0
   67.9057   72.2215   89.5812 H   0  0  0  0  0  0  0  0  0  0  0  0
   69.2252   73.6991   93.8979 N   0  0  0  0  0  0  0  0  0  0  0  0
   69.6650   73.7000   92.5555 C   0  0  0  0  0  0  0  0  0  0  0  0
   70.6105   72.9571   92.2207 O   0  0  0  0  0  0  0  0  0  0  0  0
   69.6636   73.1162   94.5591 H   0  0  0  0  0  0  0  0  0  0  0  0
   68.4803   74.2814   94.1721 H   0  0  0  0  0  0  0  0  0  0  0  0
   68.8726   80.4132   90.2272 N   0  0  0  0  0  0  0  0  0  0  0  0
   70.0844   81.1570   90.2577 C   0  0  0  0  0  0  0  0  0  0  0  0
   71.1395   80.4998   90.0696 O   0  0  0  0  0  0  0  0  0  0  0  0
   68.0188   80.8824   90.3692 H   0  0  0  0  0  0  0  0  0  0  0  0
   70.0997   82.5998   90.4941 C   0  0  0  0  0  0  0  0  0  0  0  0
   70.3134   83.4547   89.3024 C   0  0  0  0  0  0  0  0  0  0  0  0
   69.7590   84.8388   89.6774 C   0  0  0  0  0  0  0  0  0  0  0  0
   69.8165   85.7967   88.5318 C   0  0  0  0  0  0  0  0  0  0  0  0
   68.9833   85.2474   87.4033 C   0  0  0  0  0  0  0  0  0  0  0  0
   69.5939   83.9500   86.9624 C   0  0  0  0  0  0  0  0  0  0  0  0
   71.0318   84.1216   86.5616 C   0  0  0  0  0  0  0  0  0  0  0  0
   71.8103   84.6255   87.7533 C   0  0  0  0  0  0  0  0  0  0  0  0
   71.2746   85.9657   88.1449 C   0  0  0  0  0  0  0  0  0  0  0  0
   71.7302   83.6062   88.8711 C   0  0  0  0  0  0  0  0  0  0  0  0
   69.4754   82.9699   88.1341 C   0  0  0  0  0  0  0  0  0  0  0  0
 11 12  1  0  0  0
 12 13  2  0  0  0
 12  3  1  0  0  0
  3  4  2  0  0  0
  4  5  1  0  0  0
  5  1  1  0  0  0
  1  2  2  0  0  0
  2 16  1  0  0  0
 16 17  1  0  0  0
 17 18  2  0  0  0
 17 20  1  0  0  0
 21 20  1  0  0  0
 21 22  1  0  0  0
 23 22  1  0  0  0
 23 24  1  0  0  0
 25 24  1  0  0  0
 25 26  1  0  0  0
 27 26  1  0  0  0
 27 28  1  0  0  0
 27 29  1  0  0  0
 25 30  1  0  0  0
  5  6  2  0  0  0
  6  7  1  0  0  0
  7  8  2  0  0  0
  8  9  1  0  0  0
  8  3  1  0  0  0
 29 21  1  0  0  0
 30 21  1  0  0  0
 28 23  1  0  0  0
 11 14  1  0  0  0
 11 15  1  0  0  0
 16 19  1  0  0  0
  9 10  1  0  0  0
M  END
> <score>
0.139713

> <minimizedAffinity>
-8.03740

$$$$
HIPS6897


 30 33  0  0  0  0  0  0  0  0999 V2000
   67.6507   78.3365   88.8585 C   0  0  0  0  0  0  0  0  0  0  0  0
   68.2871   79.3460   89.3478 N   0  0  0  0  0  0  0  0  0  0  0  0
   68.8965   75.3876   90.8470 C   0  0  0  0  0  0  0  0  0  0  0  0
   68.6969   76.6929   90.3879 C   0  0  0  0  0  0  0  0  0  0  0  0
   67.8555   76.9762   89.3332 C   0  0  0  0  0  0  0  0  0  0  0  0
   67.2107   75.9113   88.7416 C   0  0  0  0  0  0  0  0  0  0  0  0
   67.4072   74.6127   89.1962 C   0  0  0  0  0  0  0  0  0  0  0  0
   68.2482   74.3290   90.2503 C   0  0  0  0  0  0  0  0  0  0  0  0
   68.4244   73.0120   90.6835 O   0  0  0  0  0  0  0  0  0  0  0  0
   67.9688   72.3134   90.2565 H   0  0  0  0  0  0  0  0  0  0  0  0
   69.3975   74.2775   93.0053 N   0  0  0  0  0  0  0  0  0  0  0  0
   69.7838   75.1349   91.9513 C   0  0  0  0  0  0  0  0  0  0  0  0
   70.9078   75.6765   91.9835 O   0  0  0  0  0  0  0  0  0  0  0  0
   70.0128   74.1119   93.7558 H   0  0  0  0  0  0  0  0  0  0  0  0
   68.5130   73.8455   92.9893 H   0  0  0  0  0  0  0  0  0  0  0  0
   68.0315   80.6373   88.8317 N   0  0  0  0  0  0  0  0  0  0  0  0
   68.1516   81.8031   89.6375 C   0  0  0  0  0  0  0  0  0  0  0  0
   68.4975   81.6149   90.8313 O   0  0  0  0  0  0  0  0  0  0  0  0
   67.7632   80.7320   87.8893 H   0  0  0  0  0  0  0  0  0  0  0  0
   67.8879   83.1398   89.1067 C   0  0  0  0  0  0  0  0  0  0  0  0
   69.0551   83.8633   88.5493 C   0  0  0  0  0  0  0  0  0  0  0  0
   68.5140   85.2191   88.0674 C   0  0  0  0  0  0  0  0  0  0  0  0
   69.5652   86.0342   87.3862 C   0  0  0  0  0  0  0  0  0  0  0  0
   70.0606   85.2727   86.1845 C   0  0  0  0  0  0  0  0  0  0  0  0
   70.6916   84.0002   86.6673 C   0  0  0  0  0  0  0  0  0  0  0  0
   71.7947   84.2669   87.6521 C   0  0  0  0  0  0  0  0  0  0  0  0
   71.2146   84.9855   88.8467 C   0  0  0  0  0  0  0  0  0  0  0  0
   70.6668   86.3020   88.3956 C   0  0  0  0  0  0  0  0  0  0  0  0
   70.1721   84.1043   89.5036 C   0  0  0  0  0  0  0  0  0  0  0  0
   69.5851   83.1602   87.3135 C   0  0  0  0  0  0  0  0  0  0  0  0
 11 12  1  0  0  0
 12 13  2  0  0  0
 12  3  1  0  0  0
  3  4  2  0  0  0
  4  5  1  0  0  0
  5  1  1  0  0  0
  1  2  2  0  0  0
  2 16  1  0  0  0
 16 17  1  0  0  0
 17 18  2  0  0  0
 17 20  1  0  0  0
 21 20  1  0  0  0
 21 22  1  0  0  0
 23 22  1  0  0  0
 23 24  1  0  0  0
 25 24  1  0  0  0
 25 26  1  0  0  0
 27 26  1  0  0  0
 27 28  1  0  0  0
 27 29  1  0  0  0
 25 30  1  0  0  0
  5  6  2  0  0  0
  6  7  1  0  0  0
  7  8  2  0  0  0
  8  9  1  0  0  0
  8  3  1  0  0  0
 29 21  1  0  0  0
 30 21  1  0  0  0
 28 23  1  0  0  0
 11 14  1  0  0  0
 11 15  1  0  0  0
 16 19  1  0  0  0
  9 10  1  0  0  0
M  END
> <score>
0.139713

> <minimizedAffinity>
-8.00230

$$$$
HIPS6920


 35 38  0  0  0  0  0  0  0  0999 V2000
   68.3151   78.8288   90.7764 C   0  0  0  0  0  0  0  0  0  0  0  0
   69.6803   78.6169   90.5573 C   0  0  0  0  0  0  0  0  0  0  0  0
   70.4728   79.6470   90.1653 N   0  0  0  0  0  0  0  0  0  0  0  0
   69.9709   80.8999   89.9859 C   0  0  0  0  0  0  0  0  0  0  0  0
   68.6467   81.1245   90.2091 N   0  0  0  0  0  0  0  0  0  0  0  0
   67.8168   80.1239   90.6010 C   0  0  0  0  0  0  0  0  0  0  0  0
   70.8565   82.0068   89.5452 C   0  0  0  0  0  0  0  0  0  0  0  0
   72.1373   82.1654   90.1051 C   0  0  0  0  0  0  0  0  0  0  0  0
   72.9641   83.2133   89.6951 C   0  0  0  0  0  0  0  0  0  0  0  0
   72.5235   84.1186   88.7289 C   0  0  0  0  0  0  0  0  0  0  0  0
   71.2528   83.9874   88.1605 C   0  0  0  0  0  0  0  0  0  0  0  0
   70.4252   82.9215   88.5649 C   0  0  0  0  0  0  0  0  0  0  0  0
   70.8538   84.9356   87.2038 O   0  0  0  0  0  0  0  0  0  0  0  0
   69.6335   85.6776   87.2346 C   0  0  0  0  0  0  0  0  0  0  0  0
   69.5614   86.5427   88.4657 C   0  0  0  0  0  0  0  0  0  0  0  0
   70.2255   87.7802   88.5090 C   0  0  0  0  0  0  0  0  0  0  0  0
   70.1532   88.5782   89.6545 C   0  0  0  0  0  0  0  0  0  0  0  0
   69.4277   88.1440   90.7670 C   0  0  0  0  0  0  0  0  0  0  0  0
   68.7751   86.9073   90.7378 C   0  0  0  0  0  0  0  0  0  0  0  0
   67.8686   86.3607   92.1365 Cl  0  0  0  0  0  0  0  0  0  0  0  0
   68.8450   86.1063   89.5923 C   0  0  0  0  0  0  0  0  0  0  0  0
   67.4101   77.7077   91.2113 C   0  0  0  0  0  0  0  0  0  0  0  0
   67.2355   77.7190   92.6287 O   0  0  0  0  0  0  0  0  0  0  0  0
   68.1430   74.6151   94.4432 C   0  0  0  0  0  0  0  0  0  0  0  0
   68.2150   75.7718   93.6455 C   0  0  0  0  0  0  0  0  0  0  0  0
   67.0925   76.5803   93.4387 C   0  0  0  0  0  0  0  0  0  0  0  0
   65.8717   76.2230   94.0356 C   0  0  0  0  0  0  0  0  0  0  0  0
   65.7912   75.0902   94.8460 C   0  0  0  0  0  0  0  0  0  0  0  0
   66.9177   74.2937   95.0761 C   0  0  0  0  0  0  0  0  0  0  0  0
   66.7869   73.2215   95.9612 O   0  0  0  0  0  0  0  0  0  0  0  0
   65.9583   73.0414   96.3598 H   0  0  0  0  0  0  0  0  0  0  0  0
   70.2396   73.8055   93.6744 O   0  0  0  0  0  0  0  0  0  0  0  0
   69.3433   73.7585   94.5599 C   0  0  0  0  0  0  0  0  0  0  0  0
   69.4679   72.8523   95.6089 O   0  0  0  0  0  0  0  0  0  0  0  0
   68.8074   72.8095   96.2720 H   0  0  0  0  0  0  0  0  0  0  0  0
 32 33  2  0  0  0
 33 34  1  0  0  0
 33 24  1  0  0  0
 24 25  2  0  0  0
 25 26  1  0  0  0
 26 23  1  0  0  0
 23 22  1  0  0  0
 22  1  1  0  0  0
  1  2  2  0  0  0
  2  3  2  0  0  0
  3  4  2  0  0  0
  4  7  1  0  0  0
  7  8  2  0  0  0
  8  9  1  0  0  0
  9 10  2  0  0  0
 10 11  1  0  0  0
 11 13  1  0  0  0
 13 14  1  0  0  0
 14 15  1  0  0  0
 15 16  2  0  0  0
 16 17  1  0  0  0
 17 18  2  0  0  0
 18 19  1  0  0  0
 19 20  1  0  0  0
 19 21  2  0  0  0
 11 12  2  0  0  0
  4  5  2  0  0  0
  5  6  2  0  0  0
 26 27  2  0  0  0
 27 28  1  0  0  0
 28 29  2  0  0  0
 29 30  1  0  0  0
 29 24  1  0  0  0
  6  1  1  0  0  0
 12  7  1  0  0  0
 21 15  1  0  0  0
 34 35  1  0  0  0
 30 31  1  0  0  0
M  END
> <score>
-0.557854

> <minimizedAffinity>
-9.32896

$$$$
HIPS6920


 35 38  0  0  0  0  0  0  0  0999 V2000
   68.9055   79.8347   89.9623 C   0  0  0  0  0  0  0  0  0  0  0  0
   69.8725   78.8298   90.0719 C   0  0  0  0  0  0  0  0  0  0  0  0
   69.5205   77.5287   89.9108 N   0  0  0  0  0  0  0  0  0  0  0  0
   68.2368   77.1701   89.6324 C   0  0  0  0  0  0  0  0  0  0  0  0
   67.2875   78.1381   89.5087 N   0  0  0  0  0  0  0  0  0  0  0  0
   67.5940   79.4518   89.6629 C   0  0  0  0  0  0  0  0  0  0  0  0
   67.8755   75.7391   89.4725 C   0  0  0  0  0  0  0  0  0  0  0  0
   66.9968   75.3322   88.4519 C   0  0  0  0  0  0  0  0  0  0  0  0
   66.6515   73.9867   88.3101 C   0  0  0  0  0  0  0  0  0  0  0  0
   67.1711   73.0324   89.1857 C   0  0  0  0  0  0  0  0  0  0  0  0
   68.0417   73.4106   90.2123 C   0  0  0  0  0  0  0  0  0  0  0  0
   68.4002   74.7665   90.3454 C   0  0  0  0  0  0  0  0  0  0  0  0
   68.5228   72.4115   91.0748 O   0  0  0  0  0  0  0  0  0  0  0  0
   67.8738   71.9662   92.2670 C   0  0  0  0  0  0  0  0  0  0  0  0
   67.9976   72.9932   93.3621 C   0  0  0  0  0  0  0  0  0  0  0  0
   69.2493   73.2841   93.9303 C   0  0  0  0  0  0  0  0  0  0  0  0
   69.3567   74.2392   94.9454 C   0  0  0  0  0  0  0  0  0  0  0  0
   68.2169   74.9024   95.4077 C   0  0  0  0  0  0  0  0  0  0  0  0
   66.9650   74.6090   94.8576 C   0  0  0  0  0  0  0  0  0  0  0  0
   65.5340   75.4385   95.4418 Cl  0  0  0  0  0  0  0  0  0  0  0  0
   66.8541   73.6539   93.8407 C   0  0  0  0  0  0  0  0  0  0  0  0
   69.2637   81.2861   90.1357 C   0  0  0  0  0  0  0  0  0  0  0  0
   70.6363   81.5110   89.8117 O   0  0  0  0  0  0  0  0  0  0  0  0
   70.7845   84.7517   88.0159 C   0  0  0  0  0  0  0  0  0  0  0  0
   70.3207   83.5392   88.5581 C   0  0  0  0  0  0  0  0  0  0  0  0
   71.1651   82.7083   89.3020 C   0  0  0  0  0  0  0  0  0  0  0  0
   72.5013   83.0933   89.5031 C   0  0  0  0  0  0  0  0  0  0  0  0
   72.9687   84.3030   88.9889 C   0  0  0  0  0  0  0  0  0  0  0  0
   72.1204   85.1487   88.2667 C   0  0  0  0  0  0  0  0  0  0  0  0
   72.6299   86.3804   87.8500 O   0  0  0  0  0  0  0  0  0  0  0  0
   73.5202   86.6061   88.0355 H   0  0  0  0  0  0  0  0  0  0  0  0
   69.5544   86.7209   87.5145 O   0  0  0  0  0  0  0  0  0  0  0  0
   69.8666   85.5482   87.1725 C   0  0  0  0  0  0  0  0  0  0  0  0
   69.2925   84.9949   86.0317 O   0  0  0  0  0  0  0  0  0  0  0  0
   69.5179   84.1241   85.7691 H   0  0  0  0  0  0  0  0  0  0  0  0
 32 33  2  0  0  0
 33 34  1  0  0  0
 33 24  1  0  0  0
 24 25  2  0  0  0
 25 26  1  0  0  0
 26 23  1  0  0  0
 23 22  1  0  0  0
 22  1  1  0  0  0
  1  2  2  0  0  0
  2  3  2  0  0  0
  3  4  2  0  0  0
  4  7  1  0  0  0
  7  8  2  0  0  0
  8  9  1  0  0  0
  9 10  2  0  0  0
 10 11  1  0  0  0
 11 13  1  0  0  0
 13 14  1  0  0  0
 14 15  1  0  0  0
 15 16  2  0  0  0
 16 17  1  0  0  0
 17 18  2  0  0  0
 18 19  1  0  0  0
 19 20  1  0  0  0
 19 21  2  0  0  0
 11 12  2  0  0  0
  4  5  2  0  0  0
  5  6  2  0  0  0
 26 27  2  0  0  0
 27 28  1  0  0  0
 28 29  2  0  0  0
 29 30  1  0  0  0
 29 24  1  0  0  0
  6  1  1  0  0  0
 12  7  1  0  0  0
 21 15  1  0  0  0
 34 35  1  0  0  0
 30 31  1  0  0  0
M  END
> <score>
-0.557854

> <minimizedAffinity>
-9.20437

$$$$
HIPS6920


 35 38  0  0  0  0  0  0  0  0999 V2000
   67.3036   79.5350   87.9482 C   0  0  0  0  0  0  0  0  0  0  0  0
   67.4840   79.2440   89.3045 C   0  0  0  0  0  0  0  0  0  0  0  0
   67.5943   77.9542   89.7131 N   0  0  0  0  0  0  0  0  0  0  0  0
   67.5428   76.9221   88.8265 C   0  0  0  0  0  0  0  0  0  0  0  0
   67.3819   77.1905   87.5015 N   0  0  0  0  0  0  0  0  0  0  0  0
   67.2661   78.4651   87.0480 C   0  0  0  0  0  0  0  0  0  0  0  0
   67.6541   75.5197   89.3004 C   0  0  0  0  0  0  0  0  0  0  0  0
   66.9897   74.4804   88.6239 C   0  0  0  0  0  0  0  0  0  0  0  0
   67.0888   73.1636   89.0779 C   0  0  0  0  0  0  0  0  0  0  0  0
   67.8441   72.8672   90.2132 C   0  0  0  0  0  0  0  0  0  0  0  0
   68.5095   73.8820   90.9077 C   0  0  0  0  0  0  0  0  0  0  0  0
   68.4202   75.2080   90.4404 C   0  0  0  0  0  0  0  0  0  0  0  0
   69.2429   73.5302   92.0531 O   0  0  0  0  0  0  0  0  0  0  0  0
   69.4776   74.3797   93.1774 C   0  0  0  0  0  0  0  0  0  0  0  0
   68.1989   74.6419   93.9294 C   0  0  0  0  0  0  0  0  0  0  0  0
   67.7127   73.7073   94.8591 C   0  0  0  0  0  0  0  0  0  0  0  0
   66.5259   73.9578   95.5542 C   0  0  0  0  0  0  0  0  0  0  0  0
   65.8113   75.1355   95.3198 C   0  0  0  0  0  0  0  0  0  0  0  0
   66.2805   76.0649   94.3859 C   0  0  0  0  0  0  0  0  0  0  0  0
   65.3803   77.5407   94.0887 Cl  0  0  0  0  0  0  0  0  0  0  0  0
   67.4686   75.8174   93.6889 C   0  0  0  0  0  0  0  0  0  0  0  0
   67.1777   80.9542   87.4634 C   0  0  0  0  0  0  0  0  0  0  0  0
   67.7279   81.8651   88.4159 O   0  0  0  0  0  0  0  0  0  0  0  0
   71.2156   82.9128   89.1145 C   0  0  0  0  0  0  0  0  0  0  0  0
   69.9687   82.2659   89.1925 C   0  0  0  0  0  0  0  0  0  0  0  0
   68.9486   82.5463   88.2775 C   0  0  0  0  0  0  0  0  0  0  0  0
   69.1762   83.4966   87.2679 C   0  0  0  0  0  0  0  0  0  0  0  0
   70.4150   84.1302   87.1662 C   0  0  0  0  0  0  0  0  0  0  0  0
   71.4461   83.8334   88.0635 C   0  0  0  0  0  0  0  0  0  0  0  0
   72.6851   84.4433   87.8559 O   0  0  0  0  0  0  0  0  0  0  0  0
   72.7973   85.0475   87.1486 H   0  0  0  0  0  0  0  0  0  0  0  0
   71.8728   82.1310   91.2590 O   0  0  0  0  0  0  0  0  0  0  0  0
   72.2263   82.6324   90.1575 C   0  0  0  0  0  0  0  0  0  0  0  0
   73.5614   82.9729   89.9605 O   0  0  0  0  0  0  0  0  0  0  0  0
   73.8343   83.3461   89.1455 H   0  0  0  0  0  0  0  0  0  0  0  0
 32 33  2  0  0  0
 33 34  1  0  0  0
 33 24  1  0  0  0
 24 25  2  0  0  0
 25 26  1  0  0  0
 26 23  1  0  0  0
 23 22  1  0  0  0
 22  1  1  0  0  0
  1  2  2  0  0  0
  2  3  2  0  0  0
  3  4  2  0  0  0
  4  7  1  0  0  0
  7  8  2  0  0  0
  8  9  1  0  0  0
  9 10  2  0  0  0
 10 11  1  0  0  0
 11 13  1  0  0  0
 13 14  1  0  0  0
 14 15  1  0  0  0
 15 16  2  0  0  0
 16 17  1  0  0  0
 17 18  2  0  0  0
 18 19  1  0  0  0
 19 20  1  0  0  0
 19 21  2  0  0  0
 11 12  2  0  0  0
  4  5  2  0  0  0
  5  6  2  0  0  0
 26 27  2  0  0  0
 27 28  1  0  0  0
 28 29  2  0  0  0
 29 30  1  0  0  0
 29 24  1  0  0  0
  6  1  1  0  0  0
 12  7  1  0  0  0
 21 15  1  0  0  0
 34 35  1  0  0  0
 30 31  1  0  0  0
M  END
> <score>
-0.557854

> <minimizedAffinity>
-9.06884

$$$$
HIPS6933


 36 40  0  0  0  0  0  0  0  0999 V2000
   66.8611   78.6023   87.3682 N   0  0  0  0  0  0  0  0  0  0  0  0
   67.6339   77.6280   87.7533 C   0  0  0  0  0  0  0  0  0  0  0  0
   68.4430   77.6779   88.9853 C   0  0  0  0  0  0  0  0  0  0  0  0
   69.0948   78.7975   89.4889 C   0  0  0  0  0  0  0  0  0  0  0  0
   69.7733   78.4801   90.6155 N   0  0  0  0  0  0  0  0  0  0  0  0
   69.5382   77.1750   90.8379 C   0  0  0  0  0  0  0  0  0  0  0  0
   70.0317   76.3948   91.8825 C   0  0  0  0  0  0  0  0  0  0  0  0
   69.6450   75.0322   91.9381 C   0  0  0  0  0  0  0  0  0  0  0  0
   68.7642   74.5158   90.9603 C   0  0  0  0  0  0  0  0  0  0  0  0
   68.2883   75.3269   89.9166 C   0  0  0  0  0  0  0  0  0  0  0  0
   68.7150   76.6538   89.8750 C   0  0  0  0  0  0  0  0  0  0  0  0
   70.3273   79.0830   91.1621 H   0  0  0  0  0  0  0  0  0  0  0  0
   70.1038   74.1597   92.9371 O   0  0  0  0  0  0  0  0  0  0  0  0
   69.3634   73.0631   93.4726 C   0  0  0  0  0  0  0  0  0  0  0  0
   68.1261   73.5495   94.1802 C   0  0  0  0  0  0  0  0  0  0  0  0
   68.2180   74.1553   95.4446 C   0  0  0  0  0  0  0  0  0  0  0  0
   67.0682   74.6346   96.0805 C   0  0  0  0  0  0  0  0  0  0  0  0
   65.8225   74.5170   95.4584 C   0  0  0  0  0  0  0  0  0  0  0  0
   65.7225   73.9142   94.2017 C   0  0  0  0  0  0  0  0  0  0  0  0
   66.8697   73.4356   93.5614 C   0  0  0  0  0  0  0  0  0  0  0  0
   67.6147   81.1409   86.5094 O   0  0  0  0  0  0  0  0  0  0  0  0
   67.0853   81.0418   87.6487 C   0  0  0  0  0  0  0  0  0  0  0  0
   66.6395   79.7679   88.1230 N   0  0  0  0  0  0  0  0  0  0  0  0
   66.1724   79.7066   88.9874 H   0  0  0  0  0  0  0  0  0  0  0  0
   66.9971   82.2488   88.5321 C   0  0  0  0  0  0  0  0  0  0  0  0
   68.2961   82.5890   89.0097 O   0  0  0  0  0  0  0  0  0  0  0  0
   69.1671   83.5060   88.4003 C   0  0  0  0  0  0  0  0  0  0  0  0
   68.7113   84.4373   87.4475 C   0  0  0  0  0  0  0  0  0  0  0  0
   69.5981   85.3400   86.8577 C   0  0  0  0  0  0  0  0  0  0  0  0
   70.9483   85.3344   87.2091 C   0  0  0  0  0  0  0  0  0  0  0  0
   71.4258   84.4191   88.1570 C   0  0  0  0  0  0  0  0  0  0  0  0
   72.7822   84.4144   88.5187 C   0  0  0  0  0  0  0  0  0  0  0  0
   73.2562   83.4957   89.4579 C   0  0  0  0  0  0  0  0  0  0  0  0
   72.3859   82.5706   90.0362 C   0  0  0  0  0  0  0  0  0  0  0  0
   71.0320   82.5665   89.6908 C   0  0  0  0  0  0  0  0  0  0  0  0
   70.5332   83.4922   88.7540 C   0  0  0  0  0  0  0  0  0  0  0  0
 21 22  2  0  0  0
 22 25  1  0  0  0
 25 26  1  0  0  0
 26 27  1  0  0  0
 27 28  2  0  0  0
 28 29  1  0  0  0
 29 30  2  0  0  0
 30 31  1  0  0  0
 31 32  2  0  0  0
 32 33  1  0  0  0
 33 34  2  0  0  0
 34 35  1  0  0  0
 35 36  2  0  0  0
 22 23  1  0  0  0
 23  1  1  0  0  0
  1  2  2  0  0  0
  2  3  1  0  0  0
  3  4  2  0  0  0
  4  5  1  0  0  0
  5  6  1  0  0  0
  6  7  2  0  0  0
  7  8  1  0  0  0
  8 13  1  0  0  0
 13 14  1  0  0  0
 14 15  1  0  0  0
 15 16  2  0  0  0
 16 17  1  0  0  0
 17 18  2  0  0  0
 18 19  1  0  0  0
 19 20  2  0  0  0
  8  9  2  0  0  0
  9 10  1  0  0  0
 10 11  2  0  0  0
 36 27  1  0  0  0
 11  3  1  0  0  0
 36 31  1  0  0  0
 11  6  1  0  0  0
 20 15  1  0  0  0
 23 24  1  0  0  0
  5 12  1  0  0  0
M  END
> <score>
0.769153

> <minimizedAffinity>
-9.75721

$$$$
HIPS6933


 36 40  0  0  0  0  0  0  0  0999 V2000
   66.7036   78.2674   87.7087 N   0  0  0  0  0  0  0  0  0  0  0  0
   67.4777   77.2756   88.0431 C   0  0  0  0  0  0  0  0  0  0  0  0
   68.4093   77.3280   89.1852 C   0  0  0  0  0  0  0  0  0  0  0  0
   69.1784   78.4228   89.5616 C   0  0  0  0  0  0  0  0  0  0  0  0
   69.9463   78.1131   90.6315 N   0  0  0  0  0  0  0  0  0  0  0  0
   69.6529   76.8390   90.9456 C   0  0  0  0  0  0  0  0  0  0  0  0
   70.1996   76.0768   91.9769 C   0  0  0  0  0  0  0  0  0  0  0  0
   69.7351   74.7479   92.1432 C   0  0  0  0  0  0  0  0  0  0  0  0
   68.7286   74.2476   91.2857 C   0  0  0  0  0  0  0  0  0  0  0  0
   68.2015   75.0393   90.2518 C   0  0  0  0  0  0  0  0  0  0  0  0
   68.7048   76.3306   90.0975 C   0  0  0  0  0  0  0  0  0  0  0  0
   70.5900   78.7018   91.0880 H   0  0  0  0  0  0  0  0  0  0  0  0
   70.2368   73.8941   93.1376 O   0  0  0  0  0  0  0  0  0  0  0  0
   69.6279   72.6720   93.5539 C   0  0  0  0  0  0  0  0  0  0  0  0
   70.3785   71.4876   93.0043 C   0  0  0  0  0  0  0  0  0  0  0  0
   69.8914   70.7896   91.8864 C   0  0  0  0  0  0  0  0  0  0  0  0
   70.6113   69.7115   91.3614 C   0  0  0  0  0  0  0  0  0  0  0  0
   71.8216   69.3265   91.9443 C   0  0  0  0  0  0  0  0  0  0  0  0
   72.3119   70.0145   93.0573 C   0  0  0  0  0  0  0  0  0  0  0  0
   71.5965   71.0943   93.5841 C   0  0  0  0  0  0  0  0  0  0  0  0
   67.3549   80.7658   86.6676 O   0  0  0  0  0  0  0  0  0  0  0  0
   66.9879   80.7114   87.8718 C   0  0  0  0  0  0  0  0  0  0  0  0
   66.6001   79.4600   88.4466 N   0  0  0  0  0  0  0  0  0  0  0  0
   66.2569   79.4335   89.3690 H   0  0  0  0  0  0  0  0  0  0  0  0
   67.0347   81.9476   88.7172 C   0  0  0  0  0  0  0  0  0  0  0  0
   68.3891   82.2650   89.0274 O   0  0  0  0  0  0  0  0  0  0  0  0
   69.1579   83.2460   88.3814 C   0  0  0  0  0  0  0  0  0  0  0  0
   68.5998   84.1047   87.4150 C   0  0  0  0  0  0  0  0  0  0  0  0
   69.3861   85.0736   86.7886 C   0  0  0  0  0  0  0  0  0  0  0  0
   70.7356   85.2068   87.1163 C   0  0  0  0  0  0  0  0  0  0  0  0
   71.3137   84.3660   88.0770 C   0  0  0  0  0  0  0  0  0  0  0  0
   72.6696   84.5011   88.4149 C   0  0  0  0  0  0  0  0  0  0  0  0
   73.2444   83.6562   89.3671 C   0  0  0  0  0  0  0  0  0  0  0  0
   72.4766   82.6664   89.9823 C   0  0  0  0  0  0  0  0  0  0  0  0
   71.1243   82.5232   89.6608 C   0  0  0  0  0  0  0  0  0  0  0  0
   70.5242   83.3727   88.7113 C   0  0  0  0  0  0  0  0  0  0  0  0
 21 22  2  0  0  0
 22 25  1  0  0  0
 25 26  1  0  0  0
 26 27  1  0  0  0
 27 28  2  0  0  0
 28 29  1  0  0  0
 29 30  2  0  0  0
 30 31  1  0  0  0
 31 32  2  0  0  0
 32 33  1  0  0  0
 33 34  2  0  0  0
 34 35  1  0  0  0
 35 36  2  0  0  0
 22 23  1  0  0  0
 23  1  1  0  0  0
  1  2  2  0  0  0
  2  3  1  0  0  0
  3  4  2  0  0  0
  4  5  1  0  0  0
  5  6  1  0  0  0
  6  7  2  0  0  0
  7  8  1  0  0  0
  8 13  1  0  0  0
 13 14  1  0  0  0
 14 15  1  0  0  0
 15 16  2  0  0  0
 16 17  1  0  0  0
 17 18  2  0  0  0
 18 19  1  0  0  0
 19 20  2  0  0  0
  8  9  2  0  0  0
  9 10  1  0  0  0
 10 11  2  0  0  0
 36 27  1  0  0  0
 11  3  1  0  0  0
 36 31  1  0  0  0
 11  6  1  0  0  0
 20 15  1  0  0  0
 23 24  1  0  0  0
  5 12  1  0  0  0
M  END
> <score>
0.769153

> <minimizedAffinity>
-9.42005

$$$$
HIPS6933


 36 40  0  0  0  0  0  0  0  0999 V2000
   66.5846   78.1880   87.9740 N   0  0  0  0  0  0  0  0  0  0  0  0
   67.3741   77.1776   88.1989 C   0  0  0  0  0  0  0  0  0  0  0  0
   68.4131   77.1821   89.2455 C   0  0  0  0  0  0  0  0  0  0  0  0
   69.3407   78.1925   89.4705 C   0  0  0  0  0  0  0  0  0  0  0  0
   70.1676   77.8547   90.4865 N   0  0  0  0  0  0  0  0  0  0  0  0
   69.7566   76.6491   90.9175 C   0  0  0  0  0  0  0  0  0  0  0  0
   70.3072   75.8888   91.9481 C   0  0  0  0  0  0  0  0  0  0  0  0
   69.7060   74.6415   92.2517 C   0  0  0  0  0  0  0  0  0  0  0  0
   68.5676   74.2202   91.5271 C   0  0  0  0  0  0  0  0  0  0  0  0
   68.0396   75.0072   90.4901 C   0  0  0  0  0  0  0  0  0  0  0  0
   68.6758   76.2131   90.1975 C   0  0  0  0  0  0  0  0  0  0  0  0
   70.9187   78.3846   90.8391 H   0  0  0  0  0  0  0  0  0  0  0  0
   70.1976   73.7937   93.2563 O   0  0  0  0  0  0  0  0  0  0  0  0
   69.6318   72.5337   93.6168 C   0  0  0  0  0  0  0  0  0  0  0  0
   70.3556   71.4071   92.9277 C   0  0  0  0  0  0  0  0  0  0  0  0
   69.7502   70.7120   91.8673 C   0  0  0  0  0  0  0  0  0  0  0  0
   70.4418   69.6891   91.2104 C   0  0  0  0  0  0  0  0  0  0  0  0
   71.7409   69.3568   91.6035 C   0  0  0  0  0  0  0  0  0  0  0  0
   72.3493   70.0421   92.6583 C   0  0  0  0  0  0  0  0  0  0  0  0
   71.6623   71.0669   93.3163 C   0  0  0  0  0  0  0  0  0  0  0  0
   67.3996   80.6729   87.0196 O   0  0  0  0  0  0  0  0  0  0  0  0
   67.0388   80.5986   88.2247 C   0  0  0  0  0  0  0  0  0  0  0  0
   66.5696   79.3562   88.7566 N   0  0  0  0  0  0  0  0  0  0  0  0
   66.2324   79.3186   89.6808 H   0  0  0  0  0  0  0  0  0  0  0  0
   67.1776   81.7959   89.1148 C   0  0  0  0  0  0  0  0  0  0  0  0
   68.2384   82.6229   88.6435 O   0  0  0  0  0  0  0  0  0  0  0  0
   69.5648   82.5756   89.1009 C   0  0  0  0  0  0  0  0  0  0  0  0
   70.0056   81.5744   89.9875 C   0  0  0  0  0  0  0  0  0  0  0  0
   71.3309   81.5487   90.4258 C   0  0  0  0  0  0  0  0  0  0  0  0
   72.2381   82.5132   89.9863 C   0  0  0  0  0  0  0  0  0  0  0  0
   71.8244   83.5183   89.1015 C   0  0  0  0  0  0  0  0  0  0  0  0
   72.7355   84.4868   88.6513 C   0  0  0  0  0  0  0  0  0  0  0  0
   72.3179   85.4917   87.7757 C   0  0  0  0  0  0  0  0  0  0  0  0
   70.9899   85.5446   87.3498 C   0  0  0  0  0  0  0  0  0  0  0  0
   70.0725   84.5845   87.7846 C   0  0  0  0  0  0  0  0  0  0  0  0
   70.4773   83.5572   88.6588 C   0  0  0  0  0  0  0  0  0  0  0  0
 21 22  2  0  0  0
 22 25  1  0  0  0
 25 26  1  0  0  0
 26 27  1  0  0  0
 27 28  2  0  0  0
 28 29  1  0  0  0
 29 30  2  0  0  0
 30 31  1  0  0  0
 31 32  2  0  0  0
 32 33  1  0  0  0
 33 34  2  0  0  0
 34 35  1  0  0  0
 35 36  2  0  0  0
 22 23  1  0  0  0
 23  1  1  0  0  0
  1  2  2  0  0  0
  2  3  1  0  0  0
  3  4  2  0  0  0
  4  5  1  0  0  0
  5  6  1  0  0  0
  6  7  2  0  0  0
  7  8  1  0  0  0
  8 13  1  0  0  0
 13 14  1  0  0  0
 14 15  1  0  0  0
 15 16  2  0  0  0
 16 17  1  0  0  0
 17 18  2  0  0  0
 18 19  1  0  0  0
 19 20  2  0  0  0
  8  9  2  0  0  0
  9 10  1  0  0  0
 10 11  2  0  0  0
 36 27  1  0  0  0
 11  3  1  0  0  0
 36 31  1  0  0  0
 11  6  1  0  0  0
 20 15  1  0  0  0
 23 24  1  0  0  0
  5 12  1  0  0  0
M  END
> <score>
0.769153

> <minimizedAffinity>
-9.13934

$$$$
HIPS6968


 25 27  0  0  0  0  0  0  0  0999 V2000
   67.1510   78.1012   92.1926 O   0  0  0  0  0  0  0  0  0  0  0  0
   67.7782   74.8167   94.7863 C   0  0  0  0  0  0  0  0  0  0  0  0
   66.5696   74.9315   94.0747 C   0  0  0  0  0  0  0  0  0  0  0  0
   66.3460   76.0055   93.2108 C   0  0  0  0  0  0  0  0  0  0  0  0
   67.3278   76.9956   93.0405 C   0  0  0  0  0  0  0  0  0  0  0  0
   68.5325   76.8855   93.7396 C   0  0  0  0  0  0  0  0  0  0  0  0
   68.7669   75.8108   94.6102 C   0  0  0  0  0  0  0  0  0  0  0  0
   69.9791   75.7411   95.2961 O   0  0  0  0  0  0  0  0  0  0  0  0
   70.6271   76.4062   95.1712 H   0  0  0  0  0  0  0  0  0  0  0  0
   67.0634   73.3013   96.4818 O   0  0  0  0  0  0  0  0  0  0  0  0
   67.9836   73.6620   95.6988 C   0  0  0  0  0  0  0  0  0  0  0  0
   69.1862   72.9608   95.7065 O   0  0  0  0  0  0  0  0  0  0  0  0
   69.8806   73.2154   95.1311 H   0  0  0  0  0  0  0  0  0  0  0  0
   67.4381   78.1234   90.7938 C   0  0  0  0  0  0  0  0  0  0  0  0
   68.8631   78.5453   90.5494 C   0  0  0  0  0  0  0  0  0  0  0  0
   69.9050   77.6093   90.6170 C   0  0  0  0  0  0  0  0  0  0  0  0
   71.2231   78.0090   90.3932 C   0  0  0  0  0  0  0  0  0  0  0  0
   71.5147   79.3452   90.1096 C   0  0  0  0  0  0  0  0  0  0  0  0
   70.4864   80.3035   90.0505 C   0  0  0  0  0  0  0  0  0  0  0  0
   69.1602   79.8906   90.2784 C   0  0  0  0  0  0  0  0  0  0  0  0
   70.7934   81.7255   89.7506 C   0  0  0  0  0  0  0  0  0  0  0  0
   72.0646   82.3043   89.9299 C   0  0  0  0  0  0  0  0  0  0  0  0
   72.1231   83.6471   89.5868 C   0  0  0  0  0  0  0  0  0  0  0  0
   70.6015   84.1191   89.0602 S   0  0  0  0  0  0  0  0  0  0  0  0
   69.8503   82.6307   89.2628 C   0  0  0  0  0  0  0  0  0  0  0  0
 10 11  2  0  0  0
 11 12  1  0  0  0
 11  2  1  0  0  0
  2  3  2  0  0  0
  3  4  1  0  0  0
  4  5  2  0  0  0
  5  1  1  0  0  0
  1 14  1  0  0  0
 14 15  1  0  0  0
 15 16  2  0  0  0
 16 17  1  0  0  0
 17 18  2  0  0  0
 18 19  1  0  0  0
 19 21  1  0  0  0
 21 22  1  0  0  0
 22 23  2  0  0  0
 23 24  1  0  0  0
 24 25  1  0  0  0
 19 20  2  0  0  0
  5  6  1  0  0  0
  6  7  2  0  0  0
  7  8  1  0  0  0
  7  2  1  0  0  0
 20 15  1  0  0  0
 25 21  2  0  0  0
 12 13  1  0  0  0
  8  9  1  0  0  0
M  END
> <score>
-0.059906

> <minimizedAffinity>
-7.56889

$$$$
HIPS6968


 25 27  0  0  0  0  0  0  0  0999 V2000
   70.8619   76.5700   92.6386 O   0  0  0  0  0  0  0  0  0  0  0  0
   67.6366   74.5350   94.4728 C   0  0  0  0  0  0  0  0  0  0  0  0
   67.7114   75.9387   94.5370 C   0  0  0  0  0  0  0  0  0  0  0  0
   68.7654   76.6283   93.9341 C   0  0  0  0  0  0  0  0  0  0  0  0
   69.7750   75.9275   93.2537 C   0  0  0  0  0  0  0  0  0  0  0  0
   69.7045   74.5340   93.1812 C   0  0  0  0  0  0  0  0  0  0  0  0
   68.6502   73.8316   93.7838 C   0  0  0  0  0  0  0  0  0  0  0  0
   68.6199   72.4402   93.6962 O   0  0  0  0  0  0  0  0  0  0  0  0
   69.2977   71.9849   93.2365 H   0  0  0  0  0  0  0  0  0  0  0  0
   66.6975   73.1411   96.1631 O   0  0  0  0  0  0  0  0  0  0  0  0
   66.5023   73.8318   95.1265 C   0  0  0  0  0  0  0  0  0  0  0  0
   65.2120   73.9218   94.6115 O   0  0  0  0  0  0  0  0  0  0  0  0
   65.0492   74.4308   93.8419 H   0  0  0  0  0  0  0  0  0  0  0  0
   71.0573   76.6955   91.2295 C   0  0  0  0  0  0  0  0  0  0  0  0
   70.2089   77.8076   90.6713 C   0  0  0  0  0  0  0  0  0  0  0  0
   68.8713   77.5760   90.3202 C   0  0  0  0  0  0  0  0  0  0  0  0
   68.0930   78.6108   89.7998 C   0  0  0  0  0  0  0  0  0  0  0  0
   68.6433   79.8814   89.6164 C   0  0  0  0  0  0  0  0  0  0  0  0
   69.9870   80.1323   89.9489 C   0  0  0  0  0  0  0  0  0  0  0  0
   70.7641   79.0819   90.4725 C   0  0  0  0  0  0  0  0  0  0  0  0
   70.5757   81.4821   89.7537 C   0  0  0  0  0  0  0  0  0  0  0  0
   71.8754   81.8338   90.1660 C   0  0  0  0  0  0  0  0  0  0  0  0
   72.2171   83.1483   89.8834 C   0  0  0  0  0  0  0  0  0  0  0  0
   70.9110   83.8761   89.1220 S   0  0  0  0  0  0  0  0  0  0  0  0
   69.8969   82.5374   89.1436 C   0  0  0  0  0  0  0  0  0  0  0  0
 10 11  2  0  0  0
 11 12  1  0  0  0
 11  2  1  0  0  0
  2  3  2  0  0  0
  3  4  1  0  0  0
  4  5  2  0  0  0
  5  1  1  0  0  0
  1 14  1  0  0  0
 14 15  1  0  0  0
 15 16  2  0  0  0
 16 17  1  0  0  0
 17 18  2  0  0  0
 18 19  1  0  0  0
 19 21  1  0  0  0
 21 22  1  0  0  0
 22 23  2  0  0  0
 23 24  1  0  0  0
 24 25  1  0  0  0
 19 20  2  0  0  0
  5  6  1  0  0  0
  6  7  2  0  0  0
  7  8  1  0  0  0
  7  2  1  0  0  0
 20 15  1  0  0  0
 25 21  2  0  0  0
 12 13  1  0  0  0
  8  9  1  0  0  0
M  END
> <score>
-0.059906

> <minimizedAffinity>
-7.49839

$$$$
HIPS6968


 25 27  0  0  0  0  0  0  0  0999 V2000
   68.5698   77.1415   91.2591 O   0  0  0  0  0  0  0  0  0  0  0  0
   67.3797   75.1609   94.8044 C   0  0  0  0  0  0  0  0  0  0  0  0
   66.4099   75.7074   93.9435 C   0  0  0  0  0  0  0  0  0  0  0  0
   66.7828   76.3605   92.7670 C   0  0  0  0  0  0  0  0  0  0  0  0
   68.1393   76.4862   92.4244 C   0  0  0  0  0  0  0  0  0  0  0  0
   69.1076   75.9414   93.2715 C   0  0  0  0  0  0  0  0  0  0  0  0
   68.7436   75.2837   94.4560 C   0  0  0  0  0  0  0  0  0  0  0  0
   69.7403   74.7606   95.2791 O   0  0  0  0  0  0  0  0  0  0  0  0
   70.6414   74.8482   95.0375 H   0  0  0  0  0  0  0  0  0  0  0  0
   67.2621   73.2683   96.2488 O   0  0  0  0  0  0  0  0  0  0  0  0
   66.9491   74.4734   96.0495 C   0  0  0  0  0  0  0  0  0  0  0  0
   66.1984   75.1413   97.0130 O   0  0  0  0  0  0  0  0  0  0  0  0
   65.9571   76.0371   96.8810 H   0  0  0  0  0  0  0  0  0  0  0  0
   68.0407   76.9301   89.9495 C   0  0  0  0  0  0  0  0  0  0  0  0
   67.8224   75.4620   89.6941 C   0  0  0  0  0  0  0  0  0  0  0  0
   66.9599   75.0368   88.6736 C   0  0  0  0  0  0  0  0  0  0  0  0
   66.7599   73.6746   88.4459 C   0  0  0  0  0  0  0  0  0  0  0  0
   67.4099   72.7258   89.2385 C   0  0  0  0  0  0  0  0  0  0  0  0
   68.2688   73.1303   90.2767 C   0  0  0  0  0  0  0  0  0  0  0  0
   68.4635   74.5066   90.4989 C   0  0  0  0  0  0  0  0  0  0  0  0
   68.9604   72.1238   91.1223 C   0  0  0  0  0  0  0  0  0  0  0  0
   69.1319   72.2586   92.5135 C   0  0  0  0  0  0  0  0  0  0  0  0
   69.8079   71.1991   93.1007 C   0  0  0  0  0  0  0  0  0  0  0  0
   70.1929   70.0938   91.8984 S   0  0  0  0  0  0  0  0  0  0  0  0
   69.5114   70.9443   90.6205 C   0  0  0  0  0  0  0  0  0  0  0  0
 10 11  2  0  0  0
 11 12  1  0  0  0
 11  2  1  0  0  0
  2  3  2  0  0  0
  3  4  1  0  0  0
  4  5  2  0  0  0
  5  1  1  0  0  0
  1 14  1  0  0  0
 14 15  1  0  0  0
 15 16  2  0  0  0
 16 17  1  0  0  0
 17 18  2  0  0  0
 18 19  1  0  0  0
 19 21  1  0  0  0
 21 22  1  0  0  0
 22 23  2  0  0  0
 23 24  1  0  0  0
 24 25  1  0  0  0
 19 20  2  0  0  0
  5  6  1  0  0  0
  6  7  2  0  0  0
  7  8  1  0  0  0
  7  2  1  0  0  0
 20 15  1  0  0  0
 25 21  2  0  0  0
 12 13  1  0  0  0
  8  9  1  0  0  0
M  END
> <score>
-0.059906

> <minimizedAffinity>
-7.39418

$$$$
HIPS6969


 27 29  0  0  0  0  0  0  0  0999 V2000
   67.7963   74.8307   89.6655 C   0  0  0  0  0  0  0  0  0  0  0  0
   68.6946   75.5622   90.4616 C   0  0  0  0  0  0  0  0  0  0  0  0
   69.4973   74.9152   91.4206 C   0  0  0  0  0  0  0  0  0  0  0  0
   69.3897   73.5307   91.5773 C   0  0  0  0  0  0  0  0  0  0  0  0
   68.4992   72.7951   90.7938 C   0  0  0  0  0  0  0  0  0  0  0  0
   67.7007   73.4351   89.8371 C   0  0  0  0  0  0  0  0  0  0  0  0
   66.8181   72.6869   89.0592 O   0  0  0  0  0  0  0  0  0  0  0  0
   66.7594   71.7593   89.1783 H   0  0  0  0  0  0  0  0  0  0  0  0
   66.9403   75.5614   88.6557 C   0  0  0  0  0  0  0  0  0  0  0  0
   67.5690   76.8973   88.2228 C   0  0  0  0  0  0  0  0  0  0  0  0
   66.9359   77.4900   86.9549 C   0  0  0  0  0  0  0  0  0  0  0  0
   66.8685   75.9350   85.1358 O   0  0  0  0  0  0  0  0  0  0  0  0
   67.4923   76.8662   85.7112 C   0  0  0  0  0  0  0  0  0  0  0  0
   68.7015   77.3170   85.1911 O   0  0  0  0  0  0  0  0  0  0  0  0
   69.1661   78.0095   85.6182 H   0  0  0  0  0  0  0  0  0  0  0  0
   70.4141   75.6064   92.2309 O   0  0  0  0  0  0  0  0  0  0  0  0
   70.0642   76.5459   93.2502 C   0  0  0  0  0  0  0  0  0  0  0  0
   68.5660   76.5928   93.5053 C   0  0  0  0  0  0  0  0  0  0  0  0
   67.8064   77.6428   92.9513 C   0  0  0  0  0  0  0  0  0  0  0  0
   66.4267   77.7060   93.1347 C   0  0  0  0  0  0  0  0  0  0  0  0
   65.7734   76.7396   93.8931 C   0  0  0  0  0  0  0  0  0  0  0  0
   66.5013   75.7101   94.5026 C   0  0  0  0  0  0  0  0  0  0  0  0
   65.8350   74.7600   95.2928 C   0  0  0  0  0  0  0  0  0  0  0  0
   66.5512   73.7477   95.9302 C   0  0  0  0  0  0  0  0  0  0  0  0
   67.9365   73.6791   95.7940 C   0  0  0  0  0  0  0  0  0  0  0  0
   68.6161   74.6135   95.0086 C   0  0  0  0  0  0  0  0  0  0  0  0
   67.9121   75.6360   94.3328 C   0  0  0  0  0  0  0  0  0  0  0  0
 12 13  2  0  0  0
 13 14  1  0  0  0
 13 11  1  0  0  0
 11 10  1  0  0  0
 10  9  1  0  0  0
  9  1  1  0  0  0
  1  2  2  0  0  0
  2  3  1  0  0  0
  3 16  1  0  0  0
 16 17  1  0  0  0
 17 18  1  0  0  0
 18 19  2  0  0  0
 19 20  1  0  0  0
 20 21  2  0  0  0
 21 22  1  0  0  0
 22 23  2  0  0  0
 23 24  1  0  0  0
 24 25  2  0  0  0
 25 26  1  0  0  0
 26 27  2  0  0  0
  3  4  2  0  0  0
  4  5  1  0  0  0
  5  6  2  0  0  0
  6  7  1  0  0  0
  6  1  1  0  0  0
 27 18  1  0  0  0
 27 22  1  0  0  0
 14 15  1  0  0  0
  7  8  1  0  0  0
M  END
> <score>
0.804191

> <minimizedAffinity>
-8.55618

$$$$
HIPS6969


 27 29  0  0  0  0  0  0  0  0999 V2000
   69.0894   76.5740   91.0630 C   0  0  0  0  0  0  0  0  0  0  0  0
   68.8553   77.7679   90.3591 C   0  0  0  0  0  0  0  0  0  0  0  0
   69.8906   78.7015   90.1616 C   0  0  0  0  0  0  0  0  0  0  0  0
   71.1605   78.4303   90.6782 C   0  0  0  0  0  0  0  0  0  0  0  0
   71.4033   77.2490   91.3808 C   0  0  0  0  0  0  0  0  0  0  0  0
   70.3761   76.3168   91.5771 C   0  0  0  0  0  0  0  0  0  0  0  0
   70.6342   75.1395   92.2780 O   0  0  0  0  0  0  0  0  0  0  0  0
   71.4920   74.9747   92.6172 H   0  0  0  0  0  0  0  0  0  0  0  0
   67.9498   75.6014   91.2676 C   0  0  0  0  0  0  0  0  0  0  0  0
   67.8592   74.5686   90.1307 C   0  0  0  0  0  0  0  0  0  0  0  0
   68.4626   73.2034   90.4938 C   0  0  0  0  0  0  0  0  0  0  0  0
   68.8463   72.7974   92.8217 O   0  0  0  0  0  0  0  0  0  0  0  0
   68.0367   72.7516   91.8576 C   0  0  0  0  0  0  0  0  0  0  0  0
   66.7432   72.2800   92.0589 O   0  0  0  0  0  0  0  0  0  0  0  0
   66.1403   72.2456   91.3425 H   0  0  0  0  0  0  0  0  0  0  0  0
   69.7025   79.9027   89.4570 O   0  0  0  0  0  0  0  0  0  0  0  0
   69.5830   81.1959   90.0550 C   0  0  0  0  0  0  0  0  0  0  0  0
   70.6794   82.1471   89.6022 C   0  0  0  0  0  0  0  0  0  0  0  0
   71.9342   82.1050   90.2425 C   0  0  0  0  0  0  0  0  0  0  0  0
   72.9757   82.9375   89.8379 C   0  0  0  0  0  0  0  0  0  0  0  0
   72.7863   83.8477   88.8027 C   0  0  0  0  0  0  0  0  0  0  0  0
   71.5381   83.9549   88.1770 C   0  0  0  0  0  0  0  0  0  0  0  0
   71.3501   84.9002   87.1562 C   0  0  0  0  0  0  0  0  0  0  0  0
   70.1042   85.0386   86.5457 C   0  0  0  0  0  0  0  0  0  0  0  0
   69.0341   84.2443   86.9530 C   0  0  0  0  0  0  0  0  0  0  0  0
   69.2034   83.2956   87.9644 C   0  0  0  0  0  0  0  0  0  0  0  0
   70.4613   83.1185   88.5840 C   0  0  0  0  0  0  0  0  0  0  0  0
 12 13  2  0  0  0
 13 14  1  0  0  0
 13 11  1  0  0  0
 11 10  1  0  0  0
 10  9  1  0  0  0
  9  1  1  0  0  0
  1  2  2  0  0  0
  2  3  1  0  0  0
  3 16  1  0  0  0
 16 17  1  0  0  0
 17 18  1  0  0  0
 18 19  2  0  0  0
 19 20  1  0  0  0
 20 21  2  0  0  0
 21 22  1  0  0  0
 22 23  2  0  0  0
 23 24  1  0  0  0
 24 25  2  0  0  0
 25 26  1  0  0  0
 26 27  2  0  0  0
  3  4  2  0  0  0
  4  5  1  0  0  0
  5  6  2  0  0  0
  6  7  1  0  0  0
  6  1  1  0  0  0
 27 18  1  0  0  0
 27 22  1  0  0  0
 14 15  1  0  0  0
  7  8  1  0  0  0
M  END
> <score>
0.804191

> <minimizedAffinity>
-8.39511

$$$$
HIPS6969


 27 29  0  0  0  0  0  0  0  0999 V2000
   69.0815   77.0369   91.4169 C   0  0  0  0  0  0  0  0  0  0  0  0
   68.7535   78.2497   90.7866 C   0  0  0  0  0  0  0  0  0  0  0  0
   69.7569   79.0651   90.2289 C   0  0  0  0  0  0  0  0  0  0  0  0
   71.0909   78.6568   90.3114 C   0  0  0  0  0  0  0  0  0  0  0  0
   71.4279   77.4556   90.9372 C   0  0  0  0  0  0  0  0  0  0  0  0
   70.4319   76.6407   91.4910 C   0  0  0  0  0  0  0  0  0  0  0  0
   70.7831   75.4419   92.1101 O   0  0  0  0  0  0  0  0  0  0  0  0
   71.6829   75.1843   92.1560 H   0  0  0  0  0  0  0  0  0  0  0  0
   67.9785   76.1942   92.0166 C   0  0  0  0  0  0  0  0  0  0  0  0
   67.7137   76.5508   93.4897 C   0  0  0  0  0  0  0  0  0  0  0  0
   67.8529   75.3552   94.4441 C   0  0  0  0  0  0  0  0  0  0  0  0
   69.7035   74.0676   95.2497 O   0  0  0  0  0  0  0  0  0  0  0  0
   69.2562   75.2061   94.9482 C   0  0  0  0  0  0  0  0  0  0  0  0
   70.0668   76.3288   95.0839 O   0  0  0  0  0  0  0  0  0  0  0  0
   69.7351   77.1760   94.8600 H   0  0  0  0  0  0  0  0  0  0  0  0
   69.4726   80.2801   89.5827 O   0  0  0  0  0  0  0  0  0  0  0  0
   69.5174   81.5690   90.1998 C   0  0  0  0  0  0  0  0  0  0  0  0
   70.6792   82.4117   89.6979 C   0  0  0  0  0  0  0  0  0  0  0  0
   71.9444   82.2682   90.3021 C   0  0  0  0  0  0  0  0  0  0  0  0
   73.0425   82.9983   89.8522 C   0  0  0  0  0  0  0  0  0  0  0  0
   72.9028   83.9053   88.8064 C   0  0  0  0  0  0  0  0  0  0  0  0
   71.6504   84.1133   88.2154 C   0  0  0  0  0  0  0  0  0  0  0  0
   71.5156   85.0556   87.1833 C   0  0  0  0  0  0  0  0  0  0  0  0
   70.2687   85.2947   86.6070 C   0  0  0  0  0  0  0  0  0  0  0  0
   69.1455   84.6051   87.0597 C   0  0  0  0  0  0  0  0  0  0  0  0
   69.2611   83.6612   88.0830 C   0  0  0  0  0  0  0  0  0  0  0  0
   70.5168   83.3826   88.6689 C   0  0  0  0  0  0  0  0  0  0  0  0
 12 13  2  0  0  0
 13 14  1  0  0  0
 13 11  1  0  0  0
 11 10  1  0  0  0
 10  9  1  0  0  0
  9  1  1  0  0  0
  1  2  2  0  0  0
  2  3  1  0  0  0
  3 16  1  0  0  0
 16 17  1  0  0  0
 17 18  1  0  0  0
 18 19  2  0  0  0
 19 20  1  0  0  0
 20 21  2  0  0  0
 21 22  1  0  0  0
 22 23  2  0  0  0
 23 24  1  0  0  0
 24 25  2  0  0  0
 25 26  1  0  0  0
 26 27  2  0  0  0
  3  4  2  0  0  0
  4  5  1  0  0  0
  5  6  2  0  0  0
  6  7  1  0  0  0
  6  1  1  0  0  0
 27 18  1  0  0  0
 27 22  1  0  0  0
 14 15  1  0  0  0
  7  8  1  0  0  0
M  END
> <score>
0.804191

> <minimizedAffinity>
-8.37919

$$$$
HIPS6978


 35 40  0  0  0  0  0  0  0  0999 V2000
   68.6998   78.1628   89.2412 C   0  0  0  0  0  0  0  0  0  0  0  0
   69.5876   79.1041   89.6811 C   0  0  0  0  0  0  0  0  0  0  0  0
   70.3123   78.5498   90.6692 N   0  0  0  0  0  0  0  0  0  0  0  0
   69.9509   77.2795   90.9120 C   0  0  0  0  0  0  0  0  0  0  0  0
   70.3915   76.3173   91.8106 C   0  0  0  0  0  0  0  0  0  0  0  0
   69.8410   75.0595   91.8583 C   0  0  0  0  0  0  0  0  0  0  0  0
   68.8010   74.8009   90.9417 C   0  0  0  0  0  0  0  0  0  0  0  0
   68.3832   75.7599   90.0678 C   0  0  0  0  0  0  0  0  0  0  0  0
   68.9397   77.0239   90.0225 C   0  0  0  0  0  0  0  0  0  0  0  0
   71.0253   79.0209   91.1580 H   0  0  0  0  0  0  0  0  0  0  0  0
   66.9401   79.1535   88.0124 N   0  0  0  0  0  0  0  0  0  0  0  0
   67.6772   78.1563   88.2229 C   0  0  0  0  0  0  0  0  0  0  0  0
   67.5315   81.4164   86.7320 O   0  0  0  0  0  0  0  0  0  0  0  0
   67.3213   81.5550   87.9623 C   0  0  0  0  0  0  0  0  0  0  0  0
   66.9964   80.3365   88.6862 N   0  0  0  0  0  0  0  0  0  0  0  0
   66.8188   80.3659   89.6541 H   0  0  0  0  0  0  0  0  0  0  0  0
   67.3870   82.8478   88.6760 C   0  0  0  0  0  0  0  0  0  0  0  0
   68.5079   83.7462   88.2238 C   0  0  0  0  0  0  0  0  0  0  0  0
   68.6648   84.8944   89.2453 C   0  0  0  0  0  0  0  0  0  0  0  0
   69.8557   85.7128   88.8797 C   0  0  0  0  0  0  0  0  0  0  0  0
   71.1386   84.9074   88.8673 C   0  0  0  0  0  0  0  0  0  0  0  0
   70.9877   83.8045   87.8699 C   0  0  0  0  0  0  0  0  0  0  0  0
   70.7087   84.3620   86.4985 C   0  0  0  0  0  0  0  0  0  0  0  0
   69.4806   85.2105   86.5330 C   0  0  0  0  0  0  0  0  0  0  0  0
   69.6807   86.3410   87.5194 C   0  0  0  0  0  0  0  0  0  0  0  0
   68.2512   84.3954   86.9043 C   0  0  0  0  0  0  0  0  0  0  0  0
   69.7979   82.9495   88.2565 C   0  0  0  0  0  0  0  0  0  0  0  0
   70.2225   74.0794   92.7037 O   0  0  0  0  0  0  0  0  0  0  0  0
   69.6959   73.1846   93.5556 C   0  0  0  0  0  0  0  0  0  0  0  0
   68.4200   73.6133   94.1743 C   0  0  0  0  0  0  0  0  0  0  0  0
   68.3609   74.3249   95.3398 C   0  0  0  0  0  0  0  0  0  0  0  0
   67.1170   74.6807   95.8628 C   0  0  0  0  0  0  0  0  0  0  0  0
   65.9430   74.3366   95.2391 C   0  0  0  0  0  0  0  0  0  0  0  0
   65.9827   73.6251   94.0721 C   0  0  0  0  0  0  0  0  0  0  0  0
   67.2167   73.2691   93.5487 C   0  0  0  0  0  0  0  0  0  0  0  0
 13 14  2  0  0  0
 14 17  1  0  0  0
 18 17  1  0  0  0
 18 19  1  0  0  0
 20 19  1  0  0  0
 20 21  1  0  0  0
 22 21  1  0  0  0
 22 23  1  0  0  0
 24 23  1  0  0  0
 24 25  1  0  0  0
 24 26  1  0  0  0
 22 27  1  0  0  0
 14 15  1  0  0  0
 15 11  1  0  0  0
 11 12  2  0  0  0
 12  1  1  0  0  0
  1  2  2  0  0  0
  2  3  1  0  0  0
  3  4  1  0  0  0
  4  5  2  0  0  0
  5  6  1  0  0  0
  6 28  1  0  0  0
 28 29  1  0  0  0
 29 30  1  0  0  0
 30 31  2  0  0  0
 31 32  1  0  0  0
 32 33  2  0  0  0
 33 34  1  0  0  0
 34 35  2  0  0  0
  6  7  2  0  0  0
  7  8  1  0  0  0
  8  9  2  0  0  0
 26 18  1  0  0  0
  9  1  1  0  0  0
 27 18  1  0  0  0
  9  4  1  0  0  0
 25 20  1  0  0  0
 35 30  1  0  0  0
 15 16  1  0  0  0
  3 10  1  0  0  0
M  END
> <score>
0.877782

> <minimizedAffinity>
-9.60277

$$$$
HIPS6978


 35 40  0  0  0  0  0  0  0  0999 V2000
   66.7266   77.7803   89.2859 C   0  0  0  0  0  0  0  0  0  0  0  0
   66.7289   77.9552   90.6412 C   0  0  0  0  0  0  0  0  0  0  0  0
   66.9147   79.2652   90.8823 N   0  0  0  0  0  0  0  0  0  0  0  0
   67.0372   79.9769   89.7503 C   0  0  0  0  0  0  0  0  0  0  0  0
   67.2377   81.3255   89.4879 C   0  0  0  0  0  0  0  0  0  0  0  0
   67.3302   81.8118   88.2064 C   0  0  0  0  0  0  0  0  0  0  0  0
   67.2102   80.8621   87.1709 C   0  0  0  0  0  0  0  0  0  0  0  0
   67.0139   79.5425   87.4502 C   0  0  0  0  0  0  0  0  0  0  0  0
   66.9211   79.0570   88.7406 C   0  0  0  0  0  0  0  0  0  0  0  0
   66.9561   79.6571   91.7845 H   0  0  0  0  0  0  0  0  0  0  0  0
   67.1657   75.5427   88.6628 N   0  0  0  0  0  0  0  0  0  0  0  0
   66.5749   76.6284   88.4299 C   0  0  0  0  0  0  0  0  0  0  0  0
   67.5635   73.0571   89.5422 O   0  0  0  0  0  0  0  0  0  0  0  0
   68.1987   73.9389   90.1714 C   0  0  0  0  0  0  0  0  0  0  0  0
   68.0005   75.3046   89.7130 N   0  0  0  0  0  0  0  0  0  0  0  0
   68.4652   76.0502   90.1574 H   0  0  0  0  0  0  0  0  0  0  0  0
   69.1004   73.6608   91.3092 C   0  0  0  0  0  0  0  0  0  0  0  0
   68.6113   74.1953   92.6294 C   0  0  0  0  0  0  0  0  0  0  0  0
   69.4588   73.5719   93.7605 C   0  0  0  0  0  0  0  0  0  0  0  0
   69.0727   74.1941   95.0587 C   0  0  0  0  0  0  0  0  0  0  0  0
   69.2848   75.6940   95.0755 C   0  0  0  0  0  0  0  0  0  0  0  0
   68.4547   76.2950   93.9877 C   0  0  0  0  0  0  0  0  0  0  0  0
   66.9973   75.9721   94.1905 C   0  0  0  0  0  0  0  0  0  0  0  0
   66.8049   74.4924   94.2412 C   0  0  0  0  0  0  0  0  0  0  0  0
   67.6240   73.9197   95.3779 C   0  0  0  0  0  0  0  0  0  0  0  0
   67.1931   73.8353   92.9254 C   0  0  0  0  0  0  0  0  0  0  0  0
   68.8671   75.6897   92.6611 C   0  0  0  0  0  0  0  0  0  0  0  0
   67.5221   83.1076   87.8825 O   0  0  0  0  0  0  0  0  0  0  0  0
   68.0419   83.8628   86.9011 C   0  0  0  0  0  0  0  0  0  0  0  0
   69.3586   84.4588   87.2263 C   0  0  0  0  0  0  0  0  0  0  0  0
   69.5190   85.7779   87.5463 C   0  0  0  0  0  0  0  0  0  0  0  0
   70.7964   86.2636   87.8290 C   0  0  0  0  0  0  0  0  0  0  0  0
   71.9042   85.4527   87.7961 C   0  0  0  0  0  0  0  0  0  0  0  0
   71.7627   84.1303   87.4783 C   0  0  0  0  0  0  0  0  0  0  0  0
   70.4951   83.6433   87.1963 C   0  0  0  0  0  0  0  0  0  0  0  0
 13 14  2  0  0  0
 14 17  1  0  0  0
 18 17  1  0  0  0
 18 19  1  0  0  0
 20 19  1  0  0  0
 20 21  1  0  0  0
 22 21  1  0  0  0
 22 23  1  0  0  0
 24 23  1  0  0  0
 24 25  1  0  0  0
 24 26  1  0  0  0
 22 27  1  0  0  0
 14 15  1  0  0  0
 15 11  1  0  0  0
 11 12  2  0  0  0
 12  1  1  0  0  0
  1  2  2  0  0  0
  2  3  1  0  0  0
  3  4  1  0  0  0
  4  5  2  0  0  0
  5  6  1  0  0  0
  6 28  1  0  0  0
 28 29  1  0  0  0
 29 30  1  0  0  0
 30 31  2  0  0  0
 31 32  1  0  0  0
 32 33  2  0  0  0
 33 34  1  0  0  0
 34 35  2  0  0  0
  6  7  2  0  0  0
  7  8  1  0  0  0
  8  9  2  0  0  0
 26 18  1  0  0  0
  9  1  1  0  0  0
 27 18  1  0  0  0
  9  4  1  0  0  0
 25 20  1  0  0  0
 35 30  1  0  0  0
 15 16  1  0  0  0
  3 10  1  0  0  0
M  END
> <score>
0.877782

> <minimizedAffinity>
-9.17899

$$$$
HIPS6978


 35 40  0  0  0  0  0  0  0  0999 V2000
   68.9476   78.1229   89.4157 C   0  0  0  0  0  0  0  0  0  0  0  0
   69.9586   78.9763   89.7581 C   0  0  0  0  0  0  0  0  0  0  0  0
   70.6814   78.3838   90.7252 N   0  0  0  0  0  0  0  0  0  0  0  0
   70.2012   77.1718   91.0470 C   0  0  0  0  0  0  0  0  0  0  0  0
   70.5923   76.2022   91.9605 C   0  0  0  0  0  0  0  0  0  0  0  0
   69.9130   75.0161   92.0986 C   0  0  0  0  0  0  0  0  0  0  0  0
   68.7941   74.8391   91.2588 C   0  0  0  0  0  0  0  0  0  0  0  0
   68.4269   75.8038   90.3687 C   0  0  0  0  0  0  0  0  0  0  0  0
   69.1128   76.9956   90.2324 C   0  0  0  0  0  0  0  0  0  0  0  0
   71.4714   78.7915   91.1483 H   0  0  0  0  0  0  0  0  0  0  0  0
   67.1891   79.2369   88.2958 N   0  0  0  0  0  0  0  0  0  0  0  0
   67.8666   78.1903   88.4621 C   0  0  0  0  0  0  0  0  0  0  0  0
   67.0606   81.5651   87.0022 O   0  0  0  0  0  0  0  0  0  0  0  0
   67.2930   81.6660   88.2323 C   0  0  0  0  0  0  0  0  0  0  0  0
   67.3685   80.4112   88.9632 N   0  0  0  0  0  0  0  0  0  0  0  0
   67.5476   80.4101   89.9313 H   0  0  0  0  0  0  0  0  0  0  0  0
   67.4850   82.9500   88.9390 C   0  0  0  0  0  0  0  0  0  0  0  0
   68.6453   83.7656   88.4329 C   0  0  0  0  0  0  0  0  0  0  0  0
   68.2233   84.4673   87.1230 C   0  0  0  0  0  0  0  0  0  0  0  0
   69.3165   85.3810   86.6852 C   0  0  0  0  0  0  0  0  0  0  0  0
   69.6374   86.4456   87.7141 C   0  0  0  0  0  0  0  0  0  0  0  0
   70.0564   85.7636   88.9763 C   0  0  0  0  0  0  0  0  0  0  0  0
   71.2607   84.8915   88.7352 C   0  0  0  0  0  0  0  0  0  0  0  0
   70.9592   83.8881   87.6714 C   0  0  0  0  0  0  0  0  0  0  0  0
   70.5801   84.6095   86.3959 C   0  0  0  0  0  0  0  0  0  0  0  0
   69.8453   82.9437   88.0967 C   0  0  0  0  0  0  0  0  0  0  0  0
   68.9343   84.8587   89.4436 C   0  0  0  0  0  0  0  0  0  0  0  0
   70.2402   74.0332   92.9633 O   0  0  0  0  0  0  0  0  0  0  0  0
   69.7543   72.8800   93.4510 C   0  0  0  0  0  0  0  0  0  0  0  0
   70.3341   71.6663   92.8305 C   0  0  0  0  0  0  0  0  0  0  0  0
   71.4887   71.0839   93.2733 C   0  0  0  0  0  0  0  0  0  0  0  0
   71.9747   69.9473   92.6256 C   0  0  0  0  0  0  0  0  0  0  0  0
   71.3252   69.3919   91.5507 C   0  0  0  0  0  0  0  0  0  0  0  0
   70.1687   69.9608   91.0940 C   0  0  0  0  0  0  0  0  0  0  0  0
   69.6820   71.0906   91.7345 C   0  0  0  0  0  0  0  0  0  0  0  0
 13 14  2  0  0  0
 14 17  1  0  0  0
 18 17  1  0  0  0
 18 19  1  0  0  0
 20 19  1  0  0  0
 20 21  1  0  0  0
 22 21  1  0  0  0
 22 23  1  0  0  0
 24 23  1  0  0  0
 24 25  1  0  0  0
 24 26  1  0  0  0
 22 27  1  0  0  0
 14 15  1  0  0  0
 15 11  1  0  0  0
 11 12  2  0  0  0
 12  1  1  0  0  0
  1  2  2  0  0  0
  2  3  1  0  0  0
  3  4  1  0  0  0
  4  5  2  0  0  0
  5  6  1  0  0  0
  6 28  1  0  0  0
 28 29  1  0  0  0
 29 30  1  0  0  0
 30 31  2  0  0  0
 31 32  1  0  0  0
 32 33  2  0  0  0
 33 34  1  0  0  0
 34 35  2  0  0  0
  6  7  2  0  0  0
  7  8  1  0  0  0
  8  9  2  0  0  0
 26 18  1  0  0  0
  9  1  1  0  0  0
 27 18  1  0  0  0
  9  4  1  0  0  0
 25 20  1  0  0  0
 35 30  1  0  0  0
 15 16  1  0  0  0
  3 10  1  0  0  0
M  END
> <score>
0.877782

> <minimizedAffinity>
-9.06939

$$$$
HIPS6980


 33 36  0  0  0  0  0  0  0  0999 V2000
   68.9474   79.1273   89.5788 C   0  0  0  0  0  0  0  0  0  0  0  0
   67.8838   79.8776   89.0557 C   0  0  0  0  0  0  0  0  0  0  0  0
   66.7312   79.2381   88.5962 C   0  0  0  0  0  0  0  0  0  0  0  0
   66.6259   77.8470   88.6608 C   0  0  0  0  0  0  0  0  0  0  0  0
   67.6752   77.0772   89.1941 C   0  0  0  0  0  0  0  0  0  0  0  0
   68.8306   77.7301   89.6614 C   0  0  0  0  0  0  0  0  0  0  0  0
   67.5672   75.5977   89.2574 C   0  0  0  0  0  0  0  0  0  0  0  0
   66.8272   74.8931   88.2909 C   0  0  0  0  0  0  0  0  0  0  0  0
   66.7308   73.5009   88.3512 C   0  0  0  0  0  0  0  0  0  0  0  0
   67.3612   72.7974   89.3793 C   0  0  0  0  0  0  0  0  0  0  0  0
   68.0850   73.4795   90.3625 C   0  0  0  0  0  0  0  0  0  0  0  0
   68.2026   74.8793   90.2867 C   0  0  0  0  0  0  0  0  0  0  0  0
   68.7140   72.7365   91.3725 O   0  0  0  0  0  0  0  0  0  0  0  0
   68.6200   72.9919   92.7487 C   0  0  0  0  0  0  0  0  0  0  0  0
   69.7458   72.9733   93.5903 C   0  0  0  0  0  0  0  0  0  0  0  0
   69.5914   73.2513   94.9506 C   0  0  0  0  0  0  0  0  0  0  0  0
   68.3633   73.5523   95.4501 N   0  0  0  0  0  0  0  0  0  0  0  0
   67.2618   73.5946   94.6545 C   0  0  0  0  0  0  0  0  0  0  0  0
   67.3730   73.3214   93.2888 C   0  0  0  0  0  0  0  0  0  0  0  0
   70.1870   79.8162   90.0878 C   0  0  0  0  0  0  0  0  0  0  0  0
   69.9446   81.2057   90.3141 O   0  0  0  0  0  0  0  0  0  0  0  0
   70.5313   84.1560   88.1444 C   0  0  0  0  0  0  0  0  0  0  0  0
   69.9140   83.0742   88.8001 C   0  0  0  0  0  0  0  0  0  0  0  0
   70.6274   82.2610   89.6873 C   0  0  0  0  0  0  0  0  0  0  0  0
   71.9875   82.5258   89.9188 C   0  0  0  0  0  0  0  0  0  0  0  0
   72.6137   83.5941   89.2771 C   0  0  0  0  0  0  0  0  0  0  0  0
   71.8992   84.4130   88.3924 C   0  0  0  0  0  0  0  0  0  0  0  0
   72.5519   85.4747   87.7656 O   0  0  0  0  0  0  0  0  0  0  0  0
   73.4588   85.6347   87.9383 H   0  0  0  0  0  0  0  0  0  0  0  0
   68.6376   85.5043   87.5817 O   0  0  0  0  0  0  0  0  0  0  0  0
   69.7300   84.9934   87.2152 C   0  0  0  0  0  0  0  0  0  0  0  0
   70.1812   85.2248   85.9179 O   0  0  0  0  0  0  0  0  0  0  0  0
   70.9912   84.8521   85.6302 H   0  0  0  0  0  0  0  0  0  0  0  0
 30 31  2  0  0  0
 31 32  1  0  0  0
 31 22  1  0  0  0
 22 23  2  0  0  0
 23 24  1  0  0  0
 24 21  1  0  0  0
 21 20  1  0  0  0
 20  1  1  0  0  0
  1  2  2  0  0  0
  2  3  1  0  0  0
  3  4  2  0  0  0
  4  5  1  0  0  0
  5  7  1  0  0  0
  7  8  2  0  0  0
  8  9  1  0  0  0
  9 10  2  0  0  0
 10 11  1  0  0  0
 11 13  1  0  0  0
 13 14  1  0  0  0
 14 15  2  0  0  0
 15 16  1  0  0  0
 16 17  2  0  0  0
 17 18  2  0  0  0
 18 19  2  0  0  0
 11 12  2  0  0  0
  5  6  2  0  0  0
 24 25  2  0  0  0
 25 26  1  0  0  0
 26 27  2  0  0  0
 27 28  1  0  0  0
 27 22  1  0  0  0
  6  1  1  0  0  0
 12  7  1  0  0  0
 19 14  1  0  0  0
 32 33  1  0  0  0
 28 29  1  0  0  0
M  END
> <score>
0.540856

> <minimizedAffinity>
-9.27772

$$$$
HIPS6980


 33 36  0  0  0  0  0  0  0  0999 V2000
   68.0472   78.8357   90.6094 C   0  0  0  0  0  0  0  0  0  0  0  0
   66.8271   79.1263   89.9812 C   0  0  0  0  0  0  0  0  0  0  0  0
   66.6876   80.2874   89.2190 C   0  0  0  0  0  0  0  0  0  0  0  0
   67.7642   81.1645   89.0707 C   0  0  0  0  0  0  0  0  0  0  0  0
   69.0000   80.8850   89.6812 C   0  0  0  0  0  0  0  0  0  0  0  0
   69.1343   79.7090   90.4418 C   0  0  0  0  0  0  0  0  0  0  0  0
   70.1436   81.8199   89.5296 C   0  0  0  0  0  0  0  0  0  0  0  0
   71.3498   81.5910   90.2158 C   0  0  0  0  0  0  0  0  0  0  0  0
   72.4249   82.4704   90.0679 C   0  0  0  0  0  0  0  0  0  0  0  0
   72.3068   83.5912   89.2439 C   0  0  0  0  0  0  0  0  0  0  0  0
   71.1099   83.8492   88.5682 C   0  0  0  0  0  0  0  0  0  0  0  0
   70.0362   82.9495   88.6979 C   0  0  0  0  0  0  0  0  0  0  0  0
   71.0342   84.9790   87.7403 O   0  0  0  0  0  0  0  0  0  0  0  0
   71.2124   86.3066   88.1573 C   0  0  0  0  0  0  0  0  0  0  0  0
   70.1393   87.1027   88.5941 C   0  0  0  0  0  0  0  0  0  0  0  0
   70.3819   88.4133   89.0124 C   0  0  0  0  0  0  0  0  0  0  0  0
   71.6488   88.9065   89.0105 N   0  0  0  0  0  0  0  0  0  0  0  0
   72.7061   88.1516   88.6101 C   0  0  0  0  0  0  0  0  0  0  0  0
   72.5062   86.8364   88.1828 C   0  0  0  0  0  0  0  0  0  0  0  0
   68.2043   77.5762   91.4214 C   0  0  0  0  0  0  0  0  0  0  0  0
   67.1564   77.4535   92.3845 O   0  0  0  0  0  0  0  0  0  0  0  0
   68.0568   74.5100   94.4536 C   0  0  0  0  0  0  0  0  0  0  0  0
   68.1243   75.5811   93.5428 C   0  0  0  0  0  0  0  0  0  0  0  0
   67.0140   76.3963   93.2982 C   0  0  0  0  0  0  0  0  0  0  0  0
   65.8079   76.1328   93.9687 C   0  0  0  0  0  0  0  0  0  0  0  0
   65.7248   75.0755   94.8744 C   0  0  0  0  0  0  0  0  0  0  0  0
   66.8376   74.2613   95.1247 C   0  0  0  0  0  0  0  0  0  0  0  0
   66.7249   73.2115   96.0364 O   0  0  0  0  0  0  0  0  0  0  0  0
   65.9113   73.0570   96.4748 H   0  0  0  0  0  0  0  0  0  0  0  0
   69.4015   73.0122   95.7455 O   0  0  0  0  0  0  0  0  0  0  0  0
   69.2646   73.6760   94.6829 C   0  0  0  0  0  0  0  0  0  0  0  0
   70.2672   73.6185   93.7177 O   0  0  0  0  0  0  0  0  0  0  0  0
   70.1804   74.1061   92.9223 H   0  0  0  0  0  0  0  0  0  0  0  0
 30 31  2  0  0  0
 31 32  1  0  0  0
 31 22  1  0  0  0
 22 23  2  0  0  0
 23 24  1  0  0  0
 24 21  1  0  0  0
 21 20  1  0  0  0
 20  1  1  0  0  0
  1  2  2  0  0  0
  2  3  1  0  0  0
  3  4  2  0  0  0
  4  5  1  0  0  0
  5  7  1  0  0  0
  7  8  2  0  0  0
  8  9  1  0  0  0
  9 10  2  0  0  0
 10 11  1  0  0  0
 11 13  1  0  0  0
 13 14  1  0  0  0
 14 15  2  0  0  0
 15 16  1  0  0  0
 16 17  2  0  0  0
 17 18  2  0  0  0
 18 19  2  0  0  0
 11 12  2  0  0  0
  5  6  2  0  0  0
 24 25  2  0  0  0
 25 26  1  0  0  0
 26 27  2  0  0  0
 27 28  1  0  0  0
 27 22  1  0  0  0
  6  1  1  0  0  0
 12  7  1  0  0  0
 19 14  1  0  0  0
 32 33  1  0  0  0
 28 29  1  0  0  0
M  END
> <score>
0.540856

> <minimizedAffinity>
-9.06271

$$$$
HIPS6980


 33 36  0  0  0  0  0  0  0  0999 V2000
   69.7079   76.6894   91.8962 C   0  0  0  0  0  0  0  0  0  0  0  0
   71.1024   76.7873   91.7794 C   0  0  0  0  0  0  0  0  0  0  0  0
   71.6710   77.6926   90.8818 C   0  0  0  0  0  0  0  0  0  0  0  0
   70.8554   78.5123   90.0987 C   0  0  0  0  0  0  0  0  0  0  0  0
   69.4553   78.4394   90.2102 C   0  0  0  0  0  0  0  0  0  0  0  0
   68.8904   77.5292   91.1224 C   0  0  0  0  0  0  0  0  0  0  0  0
   68.5870   79.3058   89.3736 C   0  0  0  0  0  0  0  0  0  0  0  0
   67.6883   78.7398   88.4515 C   0  0  0  0  0  0  0  0  0  0  0  0
   66.8701   79.5576   87.6688 C   0  0  0  0  0  0  0  0  0  0  0  0
   66.9453   80.9466   87.7887 C   0  0  0  0  0  0  0  0  0  0  0  0
   67.8463   81.5313   88.6844 C   0  0  0  0  0  0  0  0  0  0  0  0
   68.6519   80.7064   89.4903 C   0  0  0  0  0  0  0  0  0  0  0  0
   67.8839   82.9299   88.7848 O   0  0  0  0  0  0  0  0  0  0  0  0
   68.7429   83.7743   88.0655 C   0  0  0  0  0  0  0  0  0  0  0  0
   68.4973   85.1520   87.9329 C   0  0  0  0  0  0  0  0  0  0  0  0
   69.3980   85.9447   87.2175 C   0  0  0  0  0  0  0  0  0  0  0  0
   70.5100   85.3877   86.6684 N   0  0  0  0  0  0  0  0  0  0  0  0
   70.7799   84.0616   86.7974 C   0  0  0  0  0  0  0  0  0  0  0  0
   69.9038   83.2337   87.5039 C   0  0  0  0  0  0  0  0  0  0  0  0
   69.0920   75.7226   92.8742 C   0  0  0  0  0  0  0  0  0  0  0  0
   70.0233   74.7043   93.2434 O   0  0  0  0  0  0  0  0  0  0  0  0
   70.3589   71.0147   93.4192 C   0  0  0  0  0  0  0  0  0  0  0  0
   70.4099   72.3836   93.7430 C   0  0  0  0  0  0  0  0  0  0  0  0
   69.9518   73.3579   92.8497 C   0  0  0  0  0  0  0  0  0  0  0  0
   69.4406   72.9601   91.6031 C   0  0  0  0  0  0  0  0  0  0  0  0
   69.3830   71.6077   91.2672 C   0  0  0  0  0  0  0  0  0  0  0  0
   69.8363   70.6301   92.1632 C   0  0  0  0  0  0  0  0  0  0  0  0
   69.7656   69.2851   91.8001 O   0  0  0  0  0  0  0  0  0  0  0  0
   69.4172   69.0430   90.9647 H   0  0  0  0  0  0  0  0  0  0  0  0
   70.7048   70.2016   95.6418 O   0  0  0  0  0  0  0  0  0  0  0  0
   70.8529   70.0179   94.4037 C   0  0  0  0  0  0  0  0  0  0  0  0
   71.4906   68.8599   93.9651 O   0  0  0  0  0  0  0  0  0  0  0  0
   71.6085   68.7086   93.0479 H   0  0  0  0  0  0  0  0  0  0  0  0
 30 31  2  0  0  0
 31 32  1  0  0  0
 31 22  1  0  0  0
 22 23  2  0  0  0
 23 24  1  0  0  0
 24 21  1  0  0  0
 21 20  1  0  0  0
 20  1  1  0  0  0
  1  2  2  0  0  0
  2  3  1  0  0  0
  3  4  2  0  0  0
  4  5  1  0  0  0
  5  7  1  0  0  0
  7  8  2  0  0  0
  8  9  1  0  0  0
  9 10  2  0  0  0
 10 11  1  0  0  0
 11 13  1  0  0  0
 13 14  1  0  0  0
 14 15  2  0  0  0
 15 16  1  0  0  0
 16 17  2  0  0  0
 17 18  2  0  0  0
 18 19  2  0  0  0
 11 12  2  0  0  0
  5  6  2  0  0  0
 24 25  2  0  0  0
 25 26  1  0  0  0
 26 27  2  0  0  0
 27 28  1  0  0  0
 27 22  1  0  0  0
  6  1  1  0  0  0
 12  7  1  0  0  0
 19 14  1  0  0  0
 32 33  1  0  0  0
 28 29  1  0  0  0
M  END
> <score>
0.540856

> <minimizedAffinity>
-9.02216

$$$$
HIPS6981


 34 37  0  0  0  0  0  0  0  0999 V2000
   68.4199   79.1000   89.3647 C   0  0  0  0  0  0  0  0  0  0  0  0
   67.6163   79.6433   88.3514 C   0  0  0  0  0  0  0  0  0  0  0  0
   66.7776   78.8185   87.6005 C   0  0  0  0  0  0  0  0  0  0  0  0
   66.7249   77.4475   87.8598 C   0  0  0  0  0  0  0  0  0  0  0  0
   67.5074   76.8863   88.8842 C   0  0  0  0  0  0  0  0  0  0  0  0
   68.3505   77.7237   89.6370 C   0  0  0  0  0  0  0  0  0  0  0  0
   67.4446   75.4311   89.1659 C   0  0  0  0  0  0  0  0  0  0  0  0
   66.8481   74.5508   88.2459 C   0  0  0  0  0  0  0  0  0  0  0  0
   66.8123   73.1784   88.5033 C   0  0  0  0  0  0  0  0  0  0  0  0
   67.3548   72.6714   89.6862 C   0  0  0  0  0  0  0  0  0  0  0  0
   67.9271   73.5329   90.6276 C   0  0  0  0  0  0  0  0  0  0  0  0
   67.9895   74.9109   90.3540 C   0  0  0  0  0  0  0  0  0  0  0  0
   68.4634   72.9887   91.8043 O   0  0  0  0  0  0  0  0  0  0  0  0
   68.0597   73.3212   93.1061 C   0  0  0  0  0  0  0  0  0  0  0  0
   66.6922   73.4765   93.3694 C   0  0  0  0  0  0  0  0  0  0  0  0
   66.2540   73.8214   94.6525 C   0  0  0  0  0  0  0  0  0  0  0  0
   67.1812   74.0182   95.6804 C   0  0  0  0  0  0  0  0  0  0  0  0
   66.7559   74.3563   96.9226 F   0  0  0  0  0  0  0  0  0  0  0  0
   68.5489   73.8844   95.4224 C   0  0  0  0  0  0  0  0  0  0  0  0
   68.9897   73.5396   94.1407 C   0  0  0  0  0  0  0  0  0  0  0  0
   69.3266   79.9951   90.1681 C   0  0  0  0  0  0  0  0  0  0  0  0
   69.0456   81.3702   89.9032 O   0  0  0  0  0  0  0  0  0  0  0  0
   70.4151   84.2830   88.0583 C   0  0  0  0  0  0  0  0  0  0  0  0
   69.5329   83.3104   88.5680 C   0  0  0  0  0  0  0  0  0  0  0  0
   69.9787   82.3149   89.4444 C   0  0  0  0  0  0  0  0  0  0  0  0
   71.3299   82.2942   89.8305 C   0  0  0  0  0  0  0  0  0  0  0  0
   72.2148   83.2550   89.3404 C   0  0  0  0  0  0  0  0  0  0  0  0
   71.7709   84.2501   88.4583 C   0  0  0  0  0  0  0  0  0  0  0  0
   72.6778   85.2025   87.9913 O   0  0  0  0  0  0  0  0  0  0  0  0
   73.5736   85.1696   88.2640 H   0  0  0  0  0  0  0  0  0  0  0  0
   69.0450   86.1557   87.5057 O   0  0  0  0  0  0  0  0  0  0  0  0
   69.9027   85.3151   87.1191 C   0  0  0  0  0  0  0  0  0  0  0  0
   70.3515   85.3692   85.8018 O   0  0  0  0  0  0  0  0  0  0  0  0
   70.9882   84.7526   85.4980 H   0  0  0  0  0  0  0  0  0  0  0  0
 31 32  2  0  0  0
 32 33  1  0  0  0
 32 23  1  0  0  0
 23 24  2  0  0  0
 24 25  1  0  0  0
 25 22  1  0  0  0
 22 21  1  0  0  0
 21  1  1  0  0  0
  1  2  2  0  0  0
  2  3  1  0  0  0
  3  4  2  0  0  0
  4  5  1  0  0  0
  5  7  1  0  0  0
  7  8  2  0  0  0
  8  9  1  0  0  0
  9 10  2  0  0  0
 10 11  1  0  0  0
 11 13  1  0  0  0
 13 14  1  0  0  0
 14 15  2  0  0  0
 15 16  1  0  0  0
 16 17  2  0  0  0
 17 18  1  0  0  0
 17 19  1  0  0  0
 19 20  2  0  0  0
 11 12  2  0  0  0
  5  6  2  0  0  0
 25 26  2  0  0  0
 26 27  1  0  0  0
 27 28  2  0  0  0
 28 29  1  0  0  0
 28 23  1  0  0  0
  6  1  1  0  0  0
 12  7  1  0  0  0
 20 14  1  0  0  0
 33 34  1  0  0  0
 29 30  1  0  0  0
M  END
> <score>
-0.839276

> <minimizedAffinity>
-9.67560

$$$$
HIPS6981


 34 37  0  0  0  0  0  0  0  0999 V2000
   67.3246   80.2499   88.2632 C   0  0  0  0  0  0  0  0  0  0  0  0
   66.5581   79.3362   87.5246 C   0  0  0  0  0  0  0  0  0  0  0  0
   66.8172   77.9677   87.6127 C   0  0  0  0  0  0  0  0  0  0  0  0
   67.8349   77.4976   88.4451 C   0  0  0  0  0  0  0  0  0  0  0  0
   68.6014   78.3952   89.2089 C   0  0  0  0  0  0  0  0  0  0  0  0
   68.3347   79.7733   89.1150 C   0  0  0  0  0  0  0  0  0  0  0  0
   69.6766   77.8952   90.1003 C   0  0  0  0  0  0  0  0  0  0  0  0
   70.9183   78.5526   90.1597 C   0  0  0  0  0  0  0  0  0  0  0  0
   71.9198   78.0933   91.0180 C   0  0  0  0  0  0  0  0  0  0  0  0
   71.7010   76.9658   91.8129 C   0  0  0  0  0  0  0  0  0  0  0  0
   70.4836   76.2806   91.7479 C   0  0  0  0  0  0  0  0  0  0  0  0
   69.4651   76.7613   90.9056 C   0  0  0  0  0  0  0  0  0  0  0  0
   70.2981   75.1526   92.5614 O   0  0  0  0  0  0  0  0  0  0  0  0
   69.0905   74.7883   93.1753 C   0  0  0  0  0  0  0  0  0  0  0  0
   68.7378   75.3996   94.3860 C   0  0  0  0  0  0  0  0  0  0  0  0
   67.5478   75.0508   95.0337 C   0  0  0  0  0  0  0  0  0  0  0  0
   66.7042   74.0844   94.4772 C   0  0  0  0  0  0  0  0  0  0  0  0
   65.5530   73.7442   95.1077 F   0  0  0  0  0  0  0  0  0  0  0  0
   67.0573   73.4551   93.2796 C   0  0  0  0  0  0  0  0  0  0  0  0
   68.2463   73.8019   92.6300 C   0  0  0  0  0  0  0  0  0  0  0  0
   67.0430   81.7259   88.1597 C   0  0  0  0  0  0  0  0  0  0  0  0
   67.8102   82.3157   87.1091 O   0  0  0  0  0  0  0  0  0  0  0  0
   70.9261   83.9102   88.3387 C   0  0  0  0  0  0  0  0  0  0  0  0
   69.8940   82.9794   88.1100 C   0  0  0  0  0  0  0  0  0  0  0  0
   68.8093   83.2881   87.2818 C   0  0  0  0  0  0  0  0  0  0  0  0
   68.7570   84.5468   86.6586 C   0  0  0  0  0  0  0  0  0  0  0  0
   69.7752   85.4770   86.8690 C   0  0  0  0  0  0  0  0  0  0  0  0
   70.8602   85.1712   87.7025 C   0  0  0  0  0  0  0  0  0  0  0  0
   71.8675   86.1191   87.8872 O   0  0  0  0  0  0  0  0  0  0  0  0
   71.8120   86.9512   87.4598 H   0  0  0  0  0  0  0  0  0  0  0  0
   73.1913   84.0657   89.0697 O   0  0  0  0  0  0  0  0  0  0  0  0
   72.0537   83.5464   89.2365 C   0  0  0  0  0  0  0  0  0  0  0  0
   71.8789   82.6265   90.2675 O   0  0  0  0  0  0  0  0  0  0  0  0
   71.0406   82.2312   90.4055 H   0  0  0  0  0  0  0  0  0  0  0  0
 31 32  2  0  0  0
 32 33  1  0  0  0
 32 23  1  0  0  0
 23 24  2  0  0  0
 24 25  1  0  0  0
 25 22  1  0  0  0
 22 21  1  0  0  0
 21  1  1  0  0  0
  1  2  2  0  0  0
  2  3  1  0  0  0
  3  4  2  0  0  0
  4  5  1  0  0  0
  5  7  1  0  0  0
  7  8  2  0  0  0
  8  9  1  0  0  0
  9 10  2  0  0  0
 10 11  1  0  0  0
 11 13  1  0  0  0
 13 14  1  0  0  0
 14 15  2  0  0  0
 15 16  1  0  0  0
 16 17  2  0  0  0
 17 18  1  0  0  0
 17 19  1  0  0  0
 19 20  2  0  0  0
 11 12  2  0  0  0
  5  6  2  0  0  0
 25 26  2  0  0  0
 26 27  1  0  0  0
 27 28  2  0  0  0
 28 29  1  0  0  0
 28 23  1  0  0  0
  6  1  1  0  0  0
 12  7  1  0  0  0
 20 14  1  0  0  0
 33 34  1  0  0  0
 29 30  1  0  0  0
M  END
> <score>
-0.839276

> <minimizedAffinity>
-9.46840

$$$$
HIPS6981


 34 37  0  0  0  0  0  0  0  0999 V2000
   69.7503   76.3336   91.9652 C   0  0  0  0  0  0  0  0  0  0  0  0
   71.1249   76.6073   91.9051 C   0  0  0  0  0  0  0  0  0  0  0  0
   71.6173   77.5384   90.9896 C   0  0  0  0  0  0  0  0  0  0  0  0
   70.7435   78.2119   90.1338 C   0  0  0  0  0  0  0  0  0  0  0  0
   69.3603   77.9667   90.1918 C   0  0  0  0  0  0  0  0  0  0  0  0
   68.8710   77.0268   91.1170 C   0  0  0  0  0  0  0  0  0  0  0  0
   68.4308   78.6890   89.2890 C   0  0  0  0  0  0  0  0  0  0  0  0
   67.6434   77.9835   88.3619 C   0  0  0  0  0  0  0  0  0  0  0  0
   66.7517   78.6646   87.5301 C   0  0  0  0  0  0  0  0  0  0  0  0
   66.6475   80.0556   87.6016 C   0  0  0  0  0  0  0  0  0  0  0  0
   67.4422   80.7789   88.4967 C   0  0  0  0  0  0  0  0  0  0  0  0
   68.3179   80.0897   89.3545 C   0  0  0  0  0  0  0  0  0  0  0  0
   67.3104   82.1750   88.5423 O   0  0  0  0  0  0  0  0  0  0  0  0
   68.2095   83.0909   87.9761 C   0  0  0  0  0  0  0  0  0  0  0  0
   67.6995   84.1864   87.2666 C   0  0  0  0  0  0  0  0  0  0  0  0
   68.5666   85.1124   86.6767 C   0  0  0  0  0  0  0  0  0  0  0  0
   69.9505   84.9464   86.7883 C   0  0  0  0  0  0  0  0  0  0  0  0
   70.7901   85.8422   86.2130 F   0  0  0  0  0  0  0  0  0  0  0  0
   70.4686   83.8459   87.4777 C   0  0  0  0  0  0  0  0  0  0  0  0
   69.6041   82.9188   88.0684 C   0  0  0  0  0  0  0  0  0  0  0  0
   69.2260   75.3238   92.9522 C   0  0  0  0  0  0  0  0  0  0  0  0
   70.2227   74.3468   93.2555 O   0  0  0  0  0  0  0  0  0  0  0  0
   70.5323   70.6778   93.7094 C   0  0  0  0  0  0  0  0  0  0  0  0
   70.5863   72.0676   93.9320 C   0  0  0  0  0  0  0  0  0  0  0  0
   70.1265   72.9745   92.9707 C   0  0  0  0  0  0  0  0  0  0  0  0
   69.5907   72.4866   91.7665 C   0  0  0  0  0  0  0  0  0  0  0  0
   69.5233   71.1126   91.5340 C   0  0  0  0  0  0  0  0  0  0  0  0
   69.9882   70.2027   92.4939 C   0  0  0  0  0  0  0  0  0  0  0  0
   69.9001   68.8340   92.2362 O   0  0  0  0  0  0  0  0  0  0  0  0
   69.5374   68.5321   91.4267 H   0  0  0  0  0  0  0  0  0  0  0  0
   72.2316   69.8510   95.1648 O   0  0  0  0  0  0  0  0  0  0  0  0
   71.0439   69.7495   94.7517 C   0  0  0  0  0  0  0  0  0  0  0  0
   70.2296   68.7526   95.2835 O   0  0  0  0  0  0  0  0  0  0  0  0
   69.3449   68.6631   94.9880 H   0  0  0  0  0  0  0  0  0  0  0  0
 31 32  2  0  0  0
 32 33  1  0  0  0
 32 23  1  0  0  0
 23 24  2  0  0  0
 24 25  1  0  0  0
 25 22  1  0  0  0
 22 21  1  0  0  0
 21  1  1  0  0  0
  1  2  2  0  0  0
  2  3  1  0  0  0
  3  4  2  0  0  0
  4  5  1  0  0  0
  5  7  1  0  0  0
  7  8  2  0  0  0
  8  9  1  0  0  0
  9 10  2  0  0  0
 10 11  1  0  0  0
 11 13  1  0  0  0
 13 14  1  0  0  0
 14 15  2  0  0  0
 15 16  1  0  0  0
 16 17  2  0  0  0
 17 18  1  0  0  0
 17 19  1  0  0  0
 19 20  2  0  0  0
 11 12  2  0  0  0
  5  6  2  0  0  0
 25 26  2  0  0  0
 26 27  1  0  0  0
 27 28  2  0  0  0
 28 29  1  0  0  0
 28 23  1  0  0  0
  6  1  1  0  0  0
 12  7  1  0  0  0
 20 14  1  0  0  0
 33 34  1  0  0  0
 29 30  1  0  0  0
M  END
> <score>
-0.839276

> <minimizedAffinity>
-9.46183

$$$$
HIPS6982


 33 36  0  0  0  0  0  0  0  0999 V2000
   68.4741   79.0513   89.2605 C   0  0  0  0  0  0  0  0  0  0  0  0
   67.5750   79.6246   88.4018 C   0  0  0  0  0  0  0  0  0  0  0  0
   66.6562   78.8184   87.7714 C   0  0  0  0  0  0  0  0  0  0  0  0
   66.6168   77.4652   87.9785 C   0  0  0  0  0  0  0  0  0  0  0  0
   67.5184   76.8796   88.8412 C   0  0  0  0  0  0  0  0  0  0  0  0
   68.4336   77.7021   89.4656 C   0  0  0  0  0  0  0  0  0  0  0  0
   67.5122   75.4299   89.0919 C   0  0  0  0  0  0  0  0  0  0  0  0
   66.7788   74.6243   88.2383 C   0  0  0  0  0  0  0  0  0  0  0  0
   66.7440   73.2568   88.4347 C   0  0  0  0  0  0  0  0  0  0  0  0
   67.4557   72.7151   89.4989 C   0  0  0  0  0  0  0  0  0  0  0  0
   68.1914   73.4830   90.3620 C   0  0  0  0  0  0  0  0  0  0  0  0
   68.2082   74.8627   90.1388 C   0  0  0  0  0  0  0  0  0  0  0  0
   68.9405   72.8796   91.4927 C   0  0  0  0  0  0  0  0  0  0  0  0
   68.5088   73.4841   92.7086 N   0  0  0  0  0  0  0  0  0  0  0  0
   67.2244   73.0998   93.1875 C   0  0  0  0  0  0  0  0  0  0  0  0
   66.7405   74.1220   94.1952 C   0  0  0  0  0  0  0  0  0  0  0  0
   67.7455   74.9377   94.6592 O   0  0  0  0  0  0  0  0  0  0  0  0
   68.9399   74.2974   94.9322 C   0  0  0  0  0  0  0  0  0  0  0  0
   69.4945   73.5497   93.7372 C   0  0  0  0  0  0  0  0  0  0  0  0
   69.4534   79.9513   89.9230 C   0  0  0  0  0  0  0  0  0  0  0  0
   69.0942   81.2793   89.5897 O   0  0  0  0  0  0  0  0  0  0  0  0
   70.7338   84.2618   88.2609 C   0  0  0  0  0  0  0  0  0  0  0  0
   69.7925   83.2943   88.5411 C   0  0  0  0  0  0  0  0  0  0  0  0
   70.0613   82.2166   89.3387 C   0  0  0  0  0  0  0  0  0  0  0  0
   71.3339   82.1147   89.8742 C   0  0  0  0  0  0  0  0  0  0  0  0
   72.2966   83.0594   89.6171 C   0  0  0  0  0  0  0  0  0  0  0  0
   71.9863   84.1227   88.8132 C   0  0  0  0  0  0  0  0  0  0  0  0
   72.9367   85.0999   88.5304 O   0  0  0  0  0  0  0  0  0  0  0  0
   73.7987   85.0334   88.8916 H   0  0  0  0  0  0  0  0  0  0  0  0
   70.3854   86.5526   87.8320 O   0  0  0  0  0  0  0  0  0  0  0  0
   70.3746   85.3824   87.4009 C   0  0  0  0  0  0  0  0  0  0  0  0
   70.0107   85.1658   86.0760 O   0  0  0  0  0  0  0  0  0  0  0  0
   69.9956   84.2948   85.7308 H   0  0  0  0  0  0  0  0  0  0  0  0
 30 31  2  0  0  0
 31 32  1  0  0  0
 31 22  1  0  0  0
 22 23  2  0  0  0
 23 24  1  0  0  0
 24 21  1  0  0  0
 21 20  1  0  0  0
 20  1  1  0  0  0
  1  2  2  0  0  0
  2  3  1  0  0  0
  3  4  2  0  0  0
  4  5  1  0  0  0
  5  7  1  0  0  0
  7  8  2  0  0  0
  8  9  1  0  0  0
  9 10  2  0  0  0
 10 11  1  0  0  0
 11 13  1  0  0  0
 13 14  1  0  0  0
 14 15  1  0  0  0
 15 16  1  0  0  0
 16 17  1  0  0  0
 17 18  1  0  0  0
 18 19  1  0  0  0
 11 12  2  0  0  0
  5  6  2  0  0  0
 24 25  2  0  0  0
 25 26  1  0  0  0
 26 27  2  0  0  0
 27 28  1  0  0  0
 27 22  1  0  0  0
  6  1  1  0  0  0
 12  7  1  0  0  0
 19 14  1  0  0  0
 32 33  1  0  0  0
 28 29  1  0  0  0
M  END
> <score>
0.61493

> <minimizedAffinity>
-9.16480

$$$$
HIPS6982


 33 36  0  0  0  0  0  0  0  0999 V2000
   67.6112   79.0197   88.6846 C   0  0  0  0  0  0  0  0  0  0  0  0
   66.9625   79.1145   87.4827 C   0  0  0  0  0  0  0  0  0  0  0  0
   66.5462   77.9593   86.8632 C   0  0  0  0  0  0  0  0  0  0  0  0
   66.7619   76.7238   87.4133 C   0  0  0  0  0  0  0  0  0  0  0  0
   67.4144   76.6191   88.6230 C   0  0  0  0  0  0  0  0  0  0  0  0
   67.8257   77.7873   89.2315 C   0  0  0  0  0  0  0  0  0  0  0  0
   67.6680   75.3121   89.2491 C   0  0  0  0  0  0  0  0  0  0  0  0
   66.9800   74.2132   88.7645 C   0  0  0  0  0  0  0  0  0  0  0  0
   67.1862   72.9654   89.3215 C   0  0  0  0  0  0  0  0  0  0  0  0
   68.0916   72.8413   90.3690 C   0  0  0  0  0  0  0  0  0  0  0  0
   68.7889   73.9073   90.8723 C   0  0  0  0  0  0  0  0  0  0  0  0
   68.5600   75.1569   90.2894 C   0  0  0  0  0  0  0  0  0  0  0  0
   69.7483   73.7481   91.9938 C   0  0  0  0  0  0  0  0  0  0  0  0
   69.1629   74.2739   93.1816 N   0  0  0  0  0  0  0  0  0  0  0  0
   68.9434   73.3513   94.2433 C   0  0  0  0  0  0  0  0  0  0  0  0
   67.9442   73.9396   95.2179 C   0  0  0  0  0  0  0  0  0  0  0  0
   67.7686   75.2938   95.0568 O   0  0  0  0  0  0  0  0  0  0  0  0
   68.9282   76.0114   94.8301 C   0  0  0  0  0  0  0  0  0  0  0  0
   69.6995   75.5195   93.6228 C   0  0  0  0  0  0  0  0  0  0  0  0
   68.0486   80.2872   89.3251 C   0  0  0  0  0  0  0  0  0  0  0  0
   67.3387   81.3397   88.6989 O   0  0  0  0  0  0  0  0  0  0  0  0
   70.0329   83.6681   87.8809 C   0  0  0  0  0  0  0  0  0  0  0  0
   69.3148   82.6351   88.4445 C   0  0  0  0  0  0  0  0  0  0  0  0
   68.0134   82.3780   88.1127 C   0  0  0  0  0  0  0  0  0  0  0  0
   67.4155   83.1997   87.1724 C   0  0  0  0  0  0  0  0  0  0  0  0
   68.0999   84.2378   86.5900 C   0  0  0  0  0  0  0  0  0  0  0  0
   69.4013   84.4609   86.9506 C   0  0  0  0  0  0  0  0  0  0  0  0
   70.1266   85.5040   86.3814 O   0  0  0  0  0  0  0  0  0  0  0  0
   69.7243   86.0616   85.7448 H   0  0  0  0  0  0  0  0  0  0  0  0
   71.7624   83.7713   89.4781 O   0  0  0  0  0  0  0  0  0  0  0  0
   71.4169   83.8820   88.2850 C   0  0  0  0  0  0  0  0  0  0  0  0
   72.3831   84.2158   87.3417 O   0  0  0  0  0  0  0  0  0  0  0  0
   72.1461   84.3043   86.4395 H   0  0  0  0  0  0  0  0  0  0  0  0
 30 31  2  0  0  0
 31 32  1  0  0  0
 31 22  1  0  0  0
 22 23  2  0  0  0
 23 24  1  0  0  0
 24 21  1  0  0  0
 21 20  1  0  0  0
 20  1  1  0  0  0
  1  2  2  0  0  0
  2  3  1  0  0  0
  3  4  2  0  0  0
  4  5  1  0  0  0
  5  7  1  0  0  0
  7  8  2  0  0  0
  8  9  1  0  0  0
  9 10  2  0  0  0
 10 11  1  0  0  0
 11 13  1  0  0  0
 13 14  1  0  0  0
 14 15  1  0  0  0
 15 16  1  0  0  0
 16 17  1  0  0  0
 17 18  1  0  0  0
 18 19  1  0  0  0
 11 12  2  0  0  0
  5  6  2  0  0  0
 24 25  2  0  0  0
 25 26  1  0  0  0
 26 27  2  0  0  0
 27 28  1  0  0  0
 27 22  1  0  0  0
  6  1  1  0  0  0
 12  7  1  0  0  0
 19 14  1  0  0  0
 32 33  1  0  0  0
 28 29  1  0  0  0
M  END
> <score>
0.61493

> <minimizedAffinity>
-8.81778

$$$$
HIPS6982


 33 36  0  0  0  0  0  0  0  0999 V2000
   68.4176   79.8433   89.7551 C   0  0  0  0  0  0  0  0  0  0  0  0
   69.7239   80.0784   90.0906 C   0  0  0  0  0  0  0  0  0  0  0  0
   70.5574   79.0039   90.2965 C   0  0  0  0  0  0  0  0  0  0  0  0
   70.1179   77.7124   90.1754 C   0  0  0  0  0  0  0  0  0  0  0  0
   68.8042   77.4666   89.8381 C   0  0  0  0  0  0  0  0  0  0  0  0
   67.9811   78.5553   89.6350 C   0  0  0  0  0  0  0  0  0  0  0  0
   68.2901   76.0952   89.6985 C   0  0  0  0  0  0  0  0  0  0  0  0
   67.4030   75.8336   88.6689 C   0  0  0  0  0  0  0  0  0  0  0  0
   66.8942   74.5599   88.4989 C   0  0  0  0  0  0  0  0  0  0  0  0
   67.2904   73.5582   89.3775 C   0  0  0  0  0  0  0  0  0  0  0  0
   68.1661   73.7825   90.4064 C   0  0  0  0  0  0  0  0  0  0  0  0
   68.6643   75.0801   90.5539 C   0  0  0  0  0  0  0  0  0  0  0  0
   68.5710   72.6953   91.3326 C   0  0  0  0  0  0  0  0  0  0  0  0
   68.5244   73.1855   92.6697 N   0  0  0  0  0  0  0  0  0  0  0  0
   67.2635   73.1172   93.3271 C   0  0  0  0  0  0  0  0  0  0  0  0
   67.2708   74.0510   94.5198 C   0  0  0  0  0  0  0  0  0  0  0  0
   68.5357   74.4480   94.8848 O   0  0  0  0  0  0  0  0  0  0  0  0
   69.4929   73.4509   94.8567 C   0  0  0  0  0  0  0  0  0  0  0  0
   69.6127   72.7866   93.5007 C   0  0  0  0  0  0  0  0  0  0  0  0
   67.5449   81.0269   89.5417 C   0  0  0  0  0  0  0  0  0  0  0  0
   68.3192   82.1760   89.8312 O   0  0  0  0  0  0  0  0  0  0  0  0
   70.5240   84.2901   87.8265 C   0  0  0  0  0  0  0  0  0  0  0  0
   70.0384   83.4700   88.8227 C   0  0  0  0  0  0  0  0  0  0  0  0
   68.7586   82.9886   88.8195 C   0  0  0  0  0  0  0  0  0  0  0  0
   67.9377   83.3519   87.7655 C   0  0  0  0  0  0  0  0  0  0  0  0
   68.3872   84.1667   86.7559 C   0  0  0  0  0  0  0  0  0  0  0  0
   69.6754   84.6271   86.7972 C   0  0  0  0  0  0  0  0  0  0  0  0
   70.1658   85.4551   85.7912 O   0  0  0  0  0  0  0  0  0  0  0  0
   69.6124   85.7025   85.0767 H   0  0  0  0  0  0  0  0  0  0  0  0
   72.8336   83.9903   88.1847 O   0  0  0  0  0  0  0  0  0  0  0  0
   71.8999   84.7655   87.8977 C   0  0  0  0  0  0  0  0  0  0  0  0
   72.1984   86.1005   87.6456 O   0  0  0  0  0  0  0  0  0  0  0  0
   71.5126   86.7008   87.4280 H   0  0  0  0  0  0  0  0  0  0  0  0
 30 31  2  0  0  0
 31 32  1  0  0  0
 31 22  1  0  0  0
 22 23  2  0  0  0
 23 24  1  0  0  0
 24 21  1  0  0  0
 21 20  1  0  0  0
 20  1  1  0  0  0
  1  2  2  0  0  0
  2  3  1  0  0  0
  3  4  2  0  0  0
  4  5  1  0  0  0
  5  7  1  0  0  0
  7  8  2  0  0  0
  8  9  1  0  0  0
  9 10  2  0  0  0
 10 11  1  0  0  0
 11 13  1  0  0  0
 13 14  1  0  0  0
 14 15  1  0  0  0
 15 16  1  0  0  0
 16 17  1  0  0  0
 17 18  1  0  0  0
 18 19  1  0  0  0
 11 12  2  0  0  0
  5  6  2  0  0  0
 24 25  2  0  0  0
 25 26  1  0  0  0
 26 27  2  0  0  0
 27 28  1  0  0  0
 27 22  1  0  0  0
  6  1  1  0  0  0
 12  7  1  0  0  0
 19 14  1  0  0  0
 32 33  1  0  0  0
 28 29  1  0  0  0
M  END
> <score>
0.61493

> <minimizedAffinity>
-8.79095

$$$$
HIPS6983


 32 35  0  0  0  0  0  0  0  0999 V2000
   68.4019   79.0140   89.2642 C   0  0  0  0  0  0  0  0  0  0  0  0
   67.5544   79.6255   88.3638 C   0  0  0  0  0  0  0  0  0  0  0  0
   66.6457   78.8654   87.6377 C   0  0  0  0  0  0  0  0  0  0  0  0
   66.5922   77.4993   87.8181 C   0  0  0  0  0  0  0  0  0  0  0  0
   67.4295   76.8656   88.7126 C   0  0  0  0  0  0  0  0  0  0  0  0
   68.3196   77.6436   89.4183 C   0  0  0  0  0  0  0  0  0  0  0  0
   67.4007   75.4238   88.9294 C   0  0  0  0  0  0  0  0  0  0  0  0
   67.9179   74.9449   90.1125 C   0  0  0  0  0  0  0  0  0  0  0  0
   67.9133   73.5888   90.3648 C   0  0  0  0  0  0  0  0  0  0  0  0
   67.3863   72.7415   89.4172 C   0  0  0  0  0  0  0  0  0  0  0  0
   66.8693   73.2228   88.2342 C   0  0  0  0  0  0  0  0  0  0  0  0
   66.8814   74.5748   87.9984 C   0  0  0  0  0  0  0  0  0  0  0  0
   66.2933   72.2830   87.2160 C   0  0  0  0  0  0  0  0  0  0  0  0
   67.2926   71.6426   86.4259 N   0  0  0  0  0  0  0  0  0  0  0  0
   67.1769   71.7706   85.0144 C   0  0  0  0  0  0  0  0  0  0  0  0
   67.5597   70.4506   84.3859 C   0  0  0  0  0  0  0  0  0  0  0  0
   68.2703   69.7284   85.4976 C   0  0  0  0  0  0  0  0  0  0  0  0
   67.5416   70.2694   86.7331 C   0  0  0  0  0  0  0  0  0  0  0  0
   69.3823   79.8084   90.0517 C   0  0  0  0  0  0  0  0  0  0  0  0
   68.9257   81.1685   89.9850 O   0  0  0  0  0  0  0  0  0  0  0  0
   70.2425   84.0567   88.1361 C   0  0  0  0  0  0  0  0  0  0  0  0
   69.3571   83.1199   88.6123 C   0  0  0  0  0  0  0  0  0  0  0  0
   69.7726   82.1372   89.4741 C   0  0  0  0  0  0  0  0  0  0  0  0
   71.1072   82.0924   89.8681 C   0  0  0  0  0  0  0  0  0  0  0  0
   72.0162   83.0170   89.4077 C   0  0  0  0  0  0  0  0  0  0  0  0
   71.5463   83.9834   88.5435 C   0  0  0  0  0  0  0  0  0  0  0  0
   72.4325   84.9517   88.0436 O   0  0  0  0  0  0  0  0  0  0  0  0
   73.3343   84.9372   88.2977 H   0  0  0  0  0  0  0  0  0  0  0  0
   68.9199   85.9167   87.5783 O   0  0  0  0  0  0  0  0  0  0  0  0
   69.8065   85.1125   87.2130 C   0  0  0  0  0  0  0  0  0  0  0  0
   70.3707   85.2177   85.9502 O   0  0  0  0  0  0  0  0  0  0  0  0
   71.0341   84.6130   85.6816 H   0  0  0  0  0  0  0  0  0  0  0  0
 29 30  2  0  0  0
 30 31  1  0  0  0
 30 21  1  0  0  0
 21 22  2  0  0  0
 22 23  1  0  0  0
 23 20  1  0  0  0
 20 19  1  0  0  0
 19  1  1  0  0  0
  1  2  2  0  0  0
  2  3  1  0  0  0
  3  4  2  0  0  0
  4  5  1  0  0  0
  5  7  1  0  0  0
  7  8  2  0  0  0
  8  9  1  0  0  0
  9 10  2  0  0  0
 10 11  1  0  0  0
 11 13  1  0  0  0
 13 14  1  0  0  0
 14 15  1  0  0  0
 15 16  1  0  0  0
 16 17  1  0  0  0
 17 18  1  0  0  0
 11 12  2  0  0  0
  5  6  2  0  0  0
 23 24  2  0  0  0
 24 25  1  0  0  0
 25 26  2  0  0  0
 26 27  1  0  0  0
 26 21  1  0  0  0
  6  1  1  0  0  0
 12  7  1  0  0  0
 18 14  1  0  0  0
 31 32  1  0  0  0
 27 28  1  0  0  0
M  END
> <score>
0.527388

> <minimizedAffinity>
-9.15212

$$$$
HIPS6983


 32 35  0  0  0  0  0  0  0  0999 V2000
   69.9661   79.1247   90.1831 C   0  0  0  0  0  0  0  0  0  0  0  0
   71.2956   79.1682   90.5487 C   0  0  0  0  0  0  0  0  0  0  0  0
   71.9168   78.0301   91.0484 C   0  0  0  0  0  0  0  0  0  0  0  0
   71.2028   76.8575   91.1785 C   0  0  0  0  0  0  0  0  0  0  0  0
   69.8727   76.7899   90.8196 C   0  0  0  0  0  0  0  0  0  0  0  0
   69.2832   77.9326   90.3275 C   0  0  0  0  0  0  0  0  0  0  0  0
   69.0870   75.5675   90.9433 C   0  0  0  0  0  0  0  0  0  0  0  0
   68.2759   75.2195   89.8860 C   0  0  0  0  0  0  0  0  0  0  0  0
   67.5133   74.0721   89.9545 C   0  0  0  0  0  0  0  0  0  0  0  0
   67.5843   73.2975   91.0896 C   0  0  0  0  0  0  0  0  0  0  0  0
   68.3966   73.6475   92.1461 C   0  0  0  0  0  0  0  0  0  0  0  0
   69.1489   74.7923   92.0623 C   0  0  0  0  0  0  0  0  0  0  0  0
   68.4648   72.7861   93.3729 C   0  0  0  0  0  0  0  0  0  0  0  0
   67.5342   73.1804   94.3786 N   0  0  0  0  0  0  0  0  0  0  0  0
   66.2815   73.6856   93.9337 C   0  0  0  0  0  0  0  0  0  0  0  0
   65.8873   74.8342   94.8333 C   0  0  0  0  0  0  0  0  0  0  0  0
   66.7893   74.6685   96.0256 C   0  0  0  0  0  0  0  0  0  0  0  0
   68.0416   74.0604   95.3837 C   0  0  0  0  0  0  0  0  0  0  0  0
   69.2815   80.3310   89.6461 C   0  0  0  0  0  0  0  0  0  0  0  0
   69.8247   81.4442   90.3731 O   0  0  0  0  0  0  0  0  0  0  0  0
   70.4596   84.2844   88.1317 C   0  0  0  0  0  0  0  0  0  0  0  0
   69.7888   83.2881   88.7994 C   0  0  0  0  0  0  0  0  0  0  0  0
   70.4488   82.4631   89.6739 C   0  0  0  0  0  0  0  0  0  0  0  0
   71.8135   82.6409   89.8845 C   0  0  0  0  0  0  0  0  0  0  0  0
   72.5112   83.6299   89.2303 C   0  0  0  0  0  0  0  0  0  0  0  0
   71.8000   84.4313   88.3621 C   0  0  0  0  0  0  0  0  0  0  0  0
   72.4641   85.4563   87.6684 O   0  0  0  0  0  0  0  0  0  0  0  0
   73.3823   85.5908   87.7974 H   0  0  0  0  0  0  0  0  0  0  0  0
   68.7619   85.8147   87.5876 O   0  0  0  0  0  0  0  0  0  0  0  0
   69.7611   85.1725   87.1935 C   0  0  0  0  0  0  0  0  0  0  0  0
   70.2035   85.2985   85.8849 O   0  0  0  0  0  0  0  0  0  0  0  0
   70.9521   84.8155   85.5948 H   0  0  0  0  0  0  0  0  0  0  0  0
 29 30  2  0  0  0
 30 31  1  0  0  0
 30 21  1  0  0  0
 21 22  2  0  0  0
 22 23  1  0  0  0
 23 20  1  0  0  0
 20 19  1  0  0  0
 19  1  1  0  0  0
  1  2  2  0  0  0
  2  3  1  0  0  0
  3  4  2  0  0  0
  4  5  1  0  0  0
  5  7  1  0  0  0
  7  8  2  0  0  0
  8  9  1  0  0  0
  9 10  2  0  0  0
 10 11  1  0  0  0
 11 13  1  0  0  0
 13 14  1  0  0  0
 14 15  1  0  0  0
 15 16  1  0  0  0
 16 17  1  0  0  0
 17 18  1  0  0  0
 11 12  2  0  0  0
  5  6  2  0  0  0
 23 24  2  0  0  0
 24 25  1  0  0  0
 25 26  2  0  0  0
 26 27  1  0  0  0
 26 21  1  0  0  0
  6  1  1  0  0  0
 12  7  1  0  0  0
 18 14  1  0  0  0
 31 32  1  0  0  0
 27 28  1  0  0  0
M  END
> <score>
0.527388

> <minimizedAffinity>
-9.10792

$$$$
HIPS6983


 32 35  0  0  0  0  0  0  0  0999 V2000
   69.2177   79.7734   90.1870 C   0  0  0  0  0  0  0  0  0  0  0  0
   70.5798   79.9905   90.2092 C   0  0  0  0  0  0  0  0  0  0  0  0
   71.4519   78.9204   90.3678 C   0  0  0  0  0  0  0  0  0  0  0  0
   70.9541   77.6415   90.5031 C   0  0  0  0  0  0  0  0  0  0  0  0
   69.5962   77.3999   90.4841 C   0  0  0  0  0  0  0  0  0  0  0  0
   68.7559   78.4788   90.3254 C   0  0  0  0  0  0  0  0  0  0  0  0
   69.0346   76.0613   90.6240 C   0  0  0  0  0  0  0  0  0  0  0  0
   68.1585   75.6311   89.6524 C   0  0  0  0  0  0  0  0  0  0  0  0
   67.6006   74.3725   89.7397 C   0  0  0  0  0  0  0  0  0  0  0  0
   67.9381   73.5720   90.8068 C   0  0  0  0  0  0  0  0  0  0  0  0
   68.8149   74.0044   91.7776 C   0  0  0  0  0  0  0  0  0  0  0  0
   69.3612   75.2593   91.6763 C   0  0  0  0  0  0  0  0  0  0  0  0
   69.1752   73.1139   92.9305 C   0  0  0  0  0  0  0  0  0  0  0  0
   68.1748   73.0912   93.9461 N   0  0  0  0  0  0  0  0  0  0  0  0
   66.8330   73.3176   93.5329 C   0  0  0  0  0  0  0  0  0  0  0  0
   66.1523   74.1694   94.5794 C   0  0  0  0  0  0  0  0  0  0  0  0
   67.0674   74.0588   95.7680 C   0  0  0  0  0  0  0  0  0  0  0  0
   68.4347   73.9043   95.0922 C   0  0  0  0  0  0  0  0  0  0  0  0
   68.2664   80.9043   90.0184 C   0  0  0  0  0  0  0  0  0  0  0  0
   68.1736   81.1285   88.6028 O   0  0  0  0  0  0  0  0  0  0  0  0
   70.0511   84.1772   87.7816 C   0  0  0  0  0  0  0  0  0  0  0  0
   69.7527   82.9451   88.3120 C   0  0  0  0  0  0  0  0  0  0  0  0
   68.5287   82.3660   88.0939 C   0  0  0  0  0  0  0  0  0  0  0  0
   67.5813   83.0376   87.3259 C   0  0  0  0  0  0  0  0  0  0  0  0
   67.8520   84.2721   86.7822 C   0  0  0  0  0  0  0  0  0  0  0  0
   69.0972   84.8093   87.0320 C   0  0  0  0  0  0  0  0  0  0  0  0
   69.4252   86.0674   86.5004 O   0  0  0  0  0  0  0  0  0  0  0  0
   68.8002   86.5340   85.9811 H   0  0  0  0  0  0  0  0  0  0  0  0
   72.4002   84.1417   87.8040 O   0  0  0  0  0  0  0  0  0  0  0  0
   71.3590   84.8049   88.0098 C   0  0  0  0  0  0  0  0  0  0  0  0
   71.4402   86.1183   88.4486 O   0  0  0  0  0  0  0  0  0  0  0  0
   70.6577   86.6105   88.6012 H   0  0  0  0  0  0  0  0  0  0  0  0
 29 30  2  0  0  0
 30 31  1  0  0  0
 30 21  1  0  0  0
 21 22  2  0  0  0
 22 23  1  0  0  0
 23 20  1  0  0  0
 20 19  1  0  0  0
 19  1  1  0  0  0
  1  2  2  0  0  0
  2  3  1  0  0  0
  3  4  2  0  0  0
  4  5  1  0  0  0
  5  7  1  0  0  0
  7  8  2  0  0  0
  8  9  1  0  0  0
  9 10  2  0  0  0
 10 11  1  0  0  0
 11 13  1  0  0  0
 13 14  1  0  0  0
 14 15  1  0  0  0
 15 16  1  0  0  0
 16 17  1  0  0  0
 17 18  1  0  0  0
 11 12  2  0  0  0
  5  6  2  0  0  0
 23 24  2  0  0  0
 24 25  1  0  0  0
 25 26  2  0  0  0
 26 27  1  0  0  0
 26 21  1  0  0  0
  6  1  1  0  0  0
 12  7  1  0  0  0
 18 14  1  0  0  0
 31 32  1  0  0  0
 27 28  1  0  0  0
M  END
> <score>
0.527388

> <minimizedAffinity>
-9.09874

$$$$
HIPS6984


 33 36  0  0  0  0  0  0  0  0999 V2000
   69.8991   76.7474   91.9293 C   0  0  0  0  0  0  0  0  0  0  0  0
   71.2536   76.8388   91.7241 C   0  0  0  0  0  0  0  0  0  0  0  0
   71.7285   77.7122   90.7626 C   0  0  0  0  0  0  0  0  0  0  0  0
   70.8701   78.4891   90.0098 C   0  0  0  0  0  0  0  0  0  0  0  0
   69.4903   78.4183   90.1950 C   0  0  0  0  0  0  0  0  0  0  0  0
   69.0434   77.5437   91.1556 C   0  0  0  0  0  0  0  0  0  0  0  0
   68.5697   79.2306   89.4081 C   0  0  0  0  0  0  0  0  0  0  0  0
   67.6805   78.6464   88.5231 C   0  0  0  0  0  0  0  0  0  0  0  0
   66.8065   79.3880   87.7682 C   0  0  0  0  0  0  0  0  0  0  0  0
   66.7749   80.7703   87.8593 C   0  0  0  0  0  0  0  0  0  0  0  0
   67.6441   81.3819   88.7281 C   0  0  0  0  0  0  0  0  0  0  0  0
   68.5312   80.5935   89.4911 C   0  0  0  0  0  0  0  0  0  0  0  0
   67.6771   82.7402   88.8774 O   0  0  0  0  0  0  0  0  0  0  0  0
   68.6963   83.5660   88.4524 C   0  0  0  0  0  0  0  0  0  0  0  0
   69.2456   83.1319   87.0881 C   0  0  0  0  0  0  0  0  0  0  0  0
   70.6032   83.7373   86.9259 C   0  0  0  0  0  0  0  0  0  0  0  0
   70.5961   85.1386   87.4906 C   0  0  0  0  0  0  0  0  0  0  0  0
   69.2198   85.7608   87.4144 C   0  0  0  0  0  0  0  0  0  0  0  0
   68.1944   85.0034   88.2042 C   0  0  0  0  0  0  0  0  0  0  0  0
   69.2978   75.8343   92.9557 C   0  0  0  0  0  0  0  0  0  0  0  0
   70.0211   74.7056   93.0957 O   0  0  0  0  0  0  0  0  0  0  0  0
   70.3913   71.0627   93.3898 C   0  0  0  0  0  0  0  0  0  0  0  0
   70.4515   72.3976   93.6875 C   0  0  0  0  0  0  0  0  0  0  0  0
   69.9896   73.3926   92.8563 C   0  0  0  0  0  0  0  0  0  0  0  0
   69.4287   72.9546   91.6325 C   0  0  0  0  0  0  0  0  0  0  0  0
   69.3568   71.6335   91.3119 C   0  0  0  0  0  0  0  0  0  0  0  0
   69.8393   70.6890   92.1934 C   0  0  0  0  0  0  0  0  0  0  0  0
   69.7604   69.3452   91.8552 O   0  0  0  0  0  0  0  0  0  0  0  0
   69.3827   69.0894   91.0367 H   0  0  0  0  0  0  0  0  0  0  0  0
   71.6148   69.0905   93.9255 O   0  0  0  0  0  0  0  0  0  0  0  0
   70.8887   70.0488   94.2950 C   0  0  0  0  0  0  0  0  0  0  0  0
   70.5628   70.1150   95.6393 O   0  0  0  0  0  0  0  0  0  0  0  0
   70.0240   70.8127   95.9570 H   0  0  0  0  0  0  0  0  0  0  0  0
 30 31  2  0  0  0
 31 32  1  0  0  0
 31 22  1  0  0  0
 22 23  2  0  0  0
 23 24  1  0  0  0
 24 21  1  0  0  0
 21 20  1  0  0  0
 20  1  1  0  0  0
  1  2  2  0  0  0
  2  3  1  0  0  0
  3  4  2  0  0  0
  4  5  1  0  0  0
  5  7  1  0  0  0
  7  8  2  0  0  0
  8  9  1  0  0  0
  9 10  2  0  0  0
 10 11  1  0  0  0
 11 13  1  0  0  0
 13 14  1  0  0  0
 14 15  1  0  0  0
 15 16  1  0  0  0
 16 17  1  0  0  0
 17 18  1  0  0  0
 18 19  1  0  0  0
 11 12  2  0  0  0
  5  6  2  0  0  0
 24 25  2  0  0  0
 25 26  1  0  0  0
 26 27  2  0  0  0
 27 28  1  0  0  0
 27 22  1  0  0  0
  6  1  1  0  0  0
 12  7  1  0  0  0
 19 14  1  0  0  0
 32 33  1  0  0  0
 28 29  1  0  0  0
M  END
> <score>
-0.786406

> <minimizedAffinity>
-9.28428

$$$$
HIPS6984


 33 36  0  0  0  0  0  0  0  0999 V2000
   68.2542   79.6838   89.4639 C   0  0  0  0  0  0  0  0  0  0  0  0
   67.5741   80.2137   88.3954 C   0  0  0  0  0  0  0  0  0  0  0  0
   66.8811   79.3631   87.5532 C   0  0  0  0  0  0  0  0  0  0  0  0
   66.8614   77.9988   87.7663 C   0  0  0  0  0  0  0  0  0  0  0  0
   67.5423   77.4314   88.8422 C   0  0  0  0  0  0  0  0  0  0  0  0
   68.2229   78.2968   89.6640 C   0  0  0  0  0  0  0  0  0  0  0  0
   67.5329   75.9928   89.0811 C   0  0  0  0  0  0  0  0  0  0  0  0
   66.8852   75.1298   88.2146 C   0  0  0  0  0  0  0  0  0  0  0  0
   66.8583   73.7728   88.4184 C   0  0  0  0  0  0  0  0  0  0  0  0
   67.4852   73.1996   89.5131 C   0  0  0  0  0  0  0  0  0  0  0  0
   68.1372   74.0277   90.3927 C   0  0  0  0  0  0  0  0  0  0  0  0
   68.1481   75.4188   90.1572 C   0  0  0  0  0  0  0  0  0  0  0  0
   68.7803   73.5427   91.4971 O   0  0  0  0  0  0  0  0  0  0  0  0
   68.5071   73.8986   92.8009 C   0  0  0  0  0  0  0  0  0  0  0  0
   67.2636   73.1785   93.3362 C   0  0  0  0  0  0  0  0  0  0  0  0
   66.7645   73.9428   94.5205 C   0  0  0  0  0  0  0  0  0  0  0  0
   67.9416   74.4329   95.3311 C   0  0  0  0  0  0  0  0  0  0  0  0
   69.1407   73.5252   95.1732 C   0  0  0  0  0  0  0  0  0  0  0  0
   69.6306   73.4492   93.7579 C   0  0  0  0  0  0  0  0  0  0  0  0
   69.0239   80.5318   90.4319 C   0  0  0  0  0  0  0  0  0  0  0  0
   70.1337   81.0445   89.8642 O   0  0  0  0  0  0  0  0  0  0  0  0
   70.5551   84.1982   88.0281 C   0  0  0  0  0  0  0  0  0  0  0  0
   69.9880   83.0538   88.5211 C   0  0  0  0  0  0  0  0  0  0  0  0
   70.6370   82.1708   89.3538 C   0  0  0  0  0  0  0  0  0  0  0  0
   71.9689   82.5138   89.6889 C   0  0  0  0  0  0  0  0  0  0  0  0
   72.5566   83.6455   89.2122 C   0  0  0  0  0  0  0  0  0  0  0  0
   71.8465   84.4865   88.3813 C   0  0  0  0  0  0  0  0  0  0  0  0
   72.4566   85.6374   87.9018 O   0  0  0  0  0  0  0  0  0  0  0  0
   73.3401   85.8347   88.1435 H   0  0  0  0  0  0  0  0  0  0  0  0
   68.7831   85.6991   87.4981 O   0  0  0  0  0  0  0  0  0  0  0  0
   69.8347   85.1001   87.1551 C   0  0  0  0  0  0  0  0  0  0  0  0
   70.3063   85.3316   85.8738 O   0  0  0  0  0  0  0  0  0  0  0  0
   71.0866   84.9056   85.5776 H   0  0  0  0  0  0  0  0  0  0  0  0
 30 31  2  0  0  0
 31 32  1  0  0  0
 31 22  1  0  0  0
 22 23  2  0  0  0
 23 24  1  0  0  0
 24 21  1  0  0  0
 21 20  1  0  0  0
 20  1  1  0  0  0
  1  2  2  0  0  0
  2  3  1  0  0  0
  3  4  2  0  0  0
  4  5  1  0  0  0
  5  7  1  0  0  0
  7  8  2  0  0  0
  8  9  1  0  0  0
  9 10  2  0  0  0
 10 11  1  0  0  0
 11 13  1  0  0  0
 13 14  1  0  0  0
 14 15  1  0  0  0
 15 16  1  0  0  0
 16 17  1  0  0  0
 17 18  1  0  0  0
 18 19  1  0  0  0
 11 12  2  0  0  0
  5  6  2  0  0  0
 24 25  2  0  0  0
 25 26  1  0  0  0
 26 27  2  0  0  0
 27 28  1  0  0  0
 27 22  1  0  0  0
  6  1  1  0  0  0
 12  7  1  0  0  0
 19 14  1  0  0  0
 32 33  1  0  0  0
 28 29  1  0  0  0
M  END
> <score>
-0.786406

> <minimizedAffinity>
-9.20568

$$$$
HIPS6984


 33 36  0  0  0  0  0  0  0  0999 V2000
   66.8194   79.3064   87.9577 C   0  0  0  0  0  0  0  0  0  0  0  0
   66.2729   78.2463   87.2775 C   0  0  0  0  0  0  0  0  0  0  0  0
   66.7763   76.9771   87.4981 C   0  0  0  0  0  0  0  0  0  0  0  0
   67.8123   76.7583   88.3846 C   0  0  0  0  0  0  0  0  0  0  0  0
   68.3876   77.8143   89.0896 C   0  0  0  0  0  0  0  0  0  0  0  0
   67.8704   79.0649   88.8533 C   0  0  0  0  0  0  0  0  0  0  0  0
   69.4829   77.6011   90.0285 C   0  0  0  0  0  0  0  0  0  0  0  0
   70.6403   78.3565   89.9580 C   0  0  0  0  0  0  0  0  0  0  0  0
   71.6869   78.1736   90.8269 C   0  0  0  0  0  0  0  0  0  0  0  0
   71.6311   77.2137   91.8246 C   0  0  0  0  0  0  0  0  0  0  0  0
   70.4967   76.4468   91.9225 C   0  0  0  0  0  0  0  0  0  0  0  0
   69.4369   76.6576   91.0152 C   0  0  0  0  0  0  0  0  0  0  0  0
   70.3616   75.4788   92.8780 O   0  0  0  0  0  0  0  0  0  0  0  0
   69.1653   74.9551   93.3208 C   0  0  0  0  0  0  0  0  0  0  0  0
   69.1406   73.4259   93.2101 C   0  0  0  0  0  0  0  0  0  0  0  0
   67.7117   72.9863   93.2395 C   0  0  0  0  0  0  0  0  0  0  0  0
   66.9495   73.8308   94.2338 C   0  0  0  0  0  0  0  0  0  0  0  0
   67.8510   74.3394   95.3363 C   0  0  0  0  0  0  0  0  0  0  0  0
   68.9555   75.2164   94.8266 C   0  0  0  0  0  0  0  0  0  0  0  0
   66.3305   80.7137   87.7869 C   0  0  0  0  0  0  0  0  0  0  0  0
   67.2293   81.6070   88.2460 O   0  0  0  0  0  0  0  0  0  0  0  0
   70.1774   83.7522   87.7971 C   0  0  0  0  0  0  0  0  0  0  0  0
   69.3679   82.7423   88.2433 C   0  0  0  0  0  0  0  0  0  0  0  0
   68.0612   82.5715   87.8460 C   0  0  0  0  0  0  0  0  0  0  0  0
   67.5749   83.5253   86.9199 C   0  0  0  0  0  0  0  0  0  0  0  0
   68.3587   84.5392   86.4605 C   0  0  0  0  0  0  0  0  0  0  0  0
   69.6608   84.6500   86.9012 C   0  0  0  0  0  0  0  0  0  0  0  0
   70.4500   85.6880   86.4255 O   0  0  0  0  0  0  0  0  0  0  0  0
   70.0966   86.3023   85.8126 H   0  0  0  0  0  0  0  0  0  0  0  0
   72.4880   84.2350   87.4785 O   0  0  0  0  0  0  0  0  0  0  0  0
   71.5477   83.8936   88.2410 C   0  0  0  0  0  0  0  0  0  0  0  0
   71.8647   83.6465   89.5662 O   0  0  0  0  0  0  0  0  0  0  0  0
   71.1942   83.3898   90.1683 H   0  0  0  0  0  0  0  0  0  0  0  0
 30 31  2  0  0  0
 31 32  1  0  0  0
 31 22  1  0  0  0
 22 23  2  0  0  0
 23 24  1  0  0  0
 24 21  1  0  0  0
 21 20  1  0  0  0
 20  1  1  0  0  0
  1  2  2  0  0  0
  2  3  1  0  0  0
  3  4  2  0  0  0
  4  5  1  0  0  0
  5  7  1  0  0  0
  7  8  2  0  0  0
  8  9  1  0  0  0
  9 10  2  0  0  0
 10 11  1  0  0  0
 11 13  1  0  0  0
 13 14  1  0  0  0
 14 15  1  0  0  0
 15 16  1  0  0  0
 16 17  1  0  0  0
 17 18  1  0  0  0
 18 19  1  0  0  0
 11 12  2  0  0  0
  5  6  2  0  0  0
 24 25  2  0  0  0
 25 26  1  0  0  0
 26 27  2  0  0  0
 27 28  1  0  0  0
 27 22  1  0  0  0
  6  1  1  0  0  0
 12  7  1  0  0  0
 19 14  1  0  0  0
 32 33  1  0  0  0
 28 29  1  0  0  0
M  END
> <score>
-0.786406

> <minimizedAffinity>
-9.19712

$$$$
HIPS6985


 32 35  0  0  0  0  0  0  0  0999 V2000
   69.7157   76.3991   91.7158 C   0  0  0  0  0  0  0  0  0  0  0  0
   71.0724   76.6203   91.7128 C   0  0  0  0  0  0  0  0  0  0  0  0
   71.6397   77.6110   90.9147 C   0  0  0  0  0  0  0  0  0  0  0  0
   70.7919   78.3622   90.1273 C   0  0  0  0  0  0  0  0  0  0  0  0
   69.4324   78.1528   90.1194 C   0  0  0  0  0  0  0  0  0  0  0  0
   68.9055   77.1672   90.9188 C   0  0  0  0  0  0  0  0  0  0  0  0
   68.5203   78.9508   89.2805 C   0  0  0  0  0  0  0  0  0  0  0  0
   67.5750   78.3230   88.5045 C   0  0  0  0  0  0  0  0  0  0  0  0
   66.7420   79.0995   87.7344 C   0  0  0  0  0  0  0  0  0  0  0  0
   66.8482   80.4687   87.7370 C   0  0  0  0  0  0  0  0  0  0  0  0
   67.8008   81.1441   88.5161 C   0  0  0  0  0  0  0  0  0  0  0  0
   68.6185   80.3483   89.2743 C   0  0  0  0  0  0  0  0  0  0  0  0
   67.8348   82.5111   88.4565 O   0  0  0  0  0  0  0  0  0  0  0  0
   68.5484   83.2219   87.5194 C   0  0  0  0  0  0  0  0  0  0  0  0
   68.2245   84.7288   87.5706 C   0  0  0  0  0  0  0  0  0  0  0  0
   69.2895   85.2729   86.6553 C   0  0  0  0  0  0  0  0  0  0  0  0
   70.4780   84.3689   86.8328 C   0  0  0  0  0  0  0  0  0  0  0  0
   70.0376   83.2900   87.8220 C   0  0  0  0  0  0  0  0  0  0  0  0
   69.1411   75.3463   92.5672 C   0  0  0  0  0  0  0  0  0  0  0  0
   70.1582   74.5142   93.0902 O   0  0  0  0  0  0  0  0  0  0  0  0
   70.5051   70.8908   93.6115 C   0  0  0  0  0  0  0  0  0  0  0  0
   70.5712   72.2470   93.8075 C   0  0  0  0  0  0  0  0  0  0  0  0
   70.0781   73.1499   92.8660 C   0  0  0  0  0  0  0  0  0  0  0  0
   69.5108   72.6619   91.7111 C   0  0  0  0  0  0  0  0  0  0  0  0
   69.4436   71.3010   91.5129 C   0  0  0  0  0  0  0  0  0  0  0  0
   69.9382   70.4129   92.4578 C   0  0  0  0  0  0  0  0  0  0  0  0
   69.8451   69.0287   92.2068 O   0  0  0  0  0  0  0  0  0  0  0  0
   69.4542   68.7219   91.4124 H   0  0  0  0  0  0  0  0  0  0  0  0
   70.2851   69.1053   95.1764 O   0  0  0  0  0  0  0  0  0  0  0  0
   71.0176   69.9547   94.5907 C   0  0  0  0  0  0  0  0  0  0  0  0
   72.3594   69.9469   94.9365 O   0  0  0  0  0  0  0  0  0  0  0  0
   72.9502   70.5535   94.5353 H   0  0  0  0  0  0  0  0  0  0  0  0
 29 30  2  0  0  0
 30 31  1  0  0  0
 30 21  1  0  0  0
 21 22  2  0  0  0
 22 23  1  0  0  0
 23 20  1  0  0  0
 20 19  1  0  0  0
 19  1  1  0  0  0
  1  2  2  0  0  0
  2  3  1  0  0  0
  3  4  2  0  0  0
  4  5  1  0  0  0
  5  7  1  0  0  0
  7  8  2  0  0  0
  8  9  1  0  0  0
  9 10  2  0  0  0
 10 11  1  0  0  0
 11 13  1  0  0  0
 13 14  1  0  0  0
 14 15  1  0  0  0
 15 16  1  0  0  0
 16 17  1  0  0  0
 17 18  1  0  0  0
 11 12  2  0  0  0
  5  6  2  0  0  0
 23 24  2  0  0  0
 24 25  1  0  0  0
 25 26  2  0  0  0
 26 27  1  0  0  0
 26 21  1  0  0  0
  6  1  1  0  0  0
 12  7  1  0  0  0
 18 14  1  0  0  0
 31 32  1  0  0  0
 27 28  1  0  0  0
M  END
> <score>
-0.646155

> <minimizedAffinity>
-9.02485

$$$$
HIPS6985


 32 35  0  0  0  0  0  0  0  0999 V2000
   68.4504   80.4653   89.5233 C   0  0  0  0  0  0  0  0  0  0  0  0
   67.6708   80.8310   88.4518 C   0  0  0  0  0  0  0  0  0  0  0  0
   66.9001   79.8940   87.7676 C   0  0  0  0  0  0  0  0  0  0  0  0
   66.9468   78.5858   88.2035 C   0  0  0  0  0  0  0  0  0  0  0  0
   67.7219   78.2045   89.2740 C   0  0  0  0  0  0  0  0  0  0  0  0
   68.4701   79.1543   89.9266 C   0  0  0  0  0  0  0  0  0  0  0  0
   67.7775   76.8090   89.7450 C   0  0  0  0  0  0  0  0  0  0  0  0
   67.4895   75.7802   88.8798 C   0  0  0  0  0  0  0  0  0  0  0  0
   67.5510   74.4915   89.3543 C   0  0  0  0  0  0  0  0  0  0  0  0
   67.8909   74.2336   90.6596 C   0  0  0  0  0  0  0  0  0  0  0  0
   68.1912   75.2579   91.5714 C   0  0  0  0  0  0  0  0  0  0  0  0
   68.1230   76.5327   91.0742 C   0  0  0  0  0  0  0  0  0  0  0  0
   68.5200   74.9083   92.8531 O   0  0  0  0  0  0  0  0  0  0  0  0
   67.6579   74.2838   93.7245 C   0  0  0  0  0  0  0  0  0  0  0  0
   68.1354   74.3963   95.1865 C   0  0  0  0  0  0  0  0  0  0  0  0
   66.9255   73.8731   95.9148 C   0  0  0  0  0  0  0  0  0  0  0  0
   65.7422   74.2805   95.0811 C   0  0  0  0  0  0  0  0  0  0  0  0
   66.3189   74.9932   93.8581 C   0  0  0  0  0  0  0  0  0  0  0  0
   69.2558   81.4738   90.2287 C   0  0  0  0  0  0  0  0  0  0  0  0
   70.5887   81.4710   89.7557 O   0  0  0  0  0  0  0  0  0  0  0  0
   70.8314   84.6867   87.9889 C   0  0  0  0  0  0  0  0  0  0  0  0
   70.3334   83.5118   88.4927 C   0  0  0  0  0  0  0  0  0  0  0  0
   71.1178   82.6509   89.2597 C   0  0  0  0  0  0  0  0  0  0  0  0
   72.4257   82.9941   89.5152 C   0  0  0  0  0  0  0  0  0  0  0  0
   72.9269   84.1729   89.0104 C   0  0  0  0  0  0  0  0  0  0  0  0
   72.1359   85.0211   88.2482 C   0  0  0  0  0  0  0  0  0  0  0  0
   72.6971   86.2164   87.7546 O   0  0  0  0  0  0  0  0  0  0  0  0
   73.5905   86.4272   87.9427 H   0  0  0  0  0  0  0  0  0  0  0  0
   69.6351   86.7135   87.6063 O   0  0  0  0  0  0  0  0  0  0  0  0
   70.0150   85.5796   87.1926 C   0  0  0  0  0  0  0  0  0  0  0  0
   69.6055   85.2255   85.9171 O   0  0  0  0  0  0  0  0  0  0  0  0
   69.8565   84.3974   85.5575 H   0  0  0  0  0  0  0  0  0  0  0  0
 29 30  2  0  0  0
 30 31  1  0  0  0
 30 21  1  0  0  0
 21 22  2  0  0  0
 22 23  1  0  0  0
 23 20  1  0  0  0
 20 19  1  0  0  0
 19  1  1  0  0  0
  1  2  2  0  0  0
  2  3  1  0  0  0
  3  4  2  0  0  0
  4  5  1  0  0  0
  5  7  1  0  0  0
  7  8  2  0  0  0
  8  9  1  0  0  0
  9 10  2  0  0  0
 10 11  1  0  0  0
 11 13  1  0  0  0
 13 14  1  0  0  0
 14 15  1  0  0  0
 15 16  1  0  0  0
 16 17  1  0  0  0
 17 18  1  0  0  0
 11 12  2  0  0  0
  5  6  2  0  0  0
 23 24  2  0  0  0
 24 25  1  0  0  0
 25 26  2  0  0  0
 26 27  1  0  0  0
 26 21  1  0  0  0
  6  1  1  0  0  0
 12  7  1  0  0  0
 18 14  1  0  0  0
 31 32  1  0  0  0
 27 28  1  0  0  0
M  END
> <score>
-0.646155

> <minimizedAffinity>
-9.01824

$$$$
HIPS6985


 32 35  0  0  0  0  0  0  0  0999 V2000
   68.4268   78.9617   89.3450 C   0  0  0  0  0  0  0  0  0  0  0  0
   67.5943   79.2997   88.3047 C   0  0  0  0  0  0  0  0  0  0  0  0
   66.7718   78.3509   87.7019 C   0  0  0  0  0  0  0  0  0  0  0  0
   66.8222   77.0599   88.1859 C   0  0  0  0  0  0  0  0  0  0  0  0
   67.6500   76.7064   89.2261 C   0  0  0  0  0  0  0  0  0  0  0  0
   68.4485   77.6671   89.7981 C   0  0  0  0  0  0  0  0  0  0  0  0
   67.7098   75.3294   89.7481 C   0  0  0  0  0  0  0  0  0  0  0  0
   67.2736   74.2814   88.9727 C   0  0  0  0  0  0  0  0  0  0  0  0
   67.3439   73.0108   89.4928 C   0  0  0  0  0  0  0  0  0  0  0  0
   67.8369   72.7893   90.7553 C   0  0  0  0  0  0  0  0  0  0  0  0
   68.2912   73.8341   91.5754 C   0  0  0  0  0  0  0  0  0  0  0  0
   68.2107   75.0901   91.0345 C   0  0  0  0  0  0  0  0  0  0  0  0
   68.7665   73.5207   92.8201 O   0  0  0  0  0  0  0  0  0  0  0  0
   67.9976   73.5288   93.9608 C   0  0  0  0  0  0  0  0  0  0  0  0
   68.1995   74.8184   94.7820 C   0  0  0  0  0  0  0  0  0  0  0  0
   67.0938   74.6785   95.7948 C   0  0  0  0  0  0  0  0  0  0  0  0
   65.9818   73.9569   95.0849 C   0  0  0  0  0  0  0  0  0  0  0  0
   66.5079   73.6575   93.6813 C   0  0  0  0  0  0  0  0  0  0  0  0
   69.2864   79.9821   89.9643 C   0  0  0  0  0  0  0  0  0  0  0  0
   68.8196   81.2821   89.6602 O   0  0  0  0  0  0  0  0  0  0  0  0
   70.2715   84.2908   88.1238 C   0  0  0  0  0  0  0  0  0  0  0  0
   69.3769   83.3158   88.4860 C   0  0  0  0  0  0  0  0  0  0  0  0
   69.7437   82.2525   89.3104 C   0  0  0  0  0  0  0  0  0  0  0  0
   71.0390   82.1845   89.7702 C   0  0  0  0  0  0  0  0  0  0  0  0
   71.9379   83.1623   89.4075 C   0  0  0  0  0  0  0  0  0  0  0  0
   71.5603   84.2154   88.5863 C   0  0  0  0  0  0  0  0  0  0  0  0
   72.5190   85.1908   88.2442 O   0  0  0  0  0  0  0  0  0  0  0  0
   73.3947   85.1217   88.5704 H   0  0  0  0  0  0  0  0  0  0  0  0
   69.8144   86.5885   87.6798 O   0  0  0  0  0  0  0  0  0  0  0  0
   69.8885   85.3945   87.2676 C   0  0  0  0  0  0  0  0  0  0  0  0
   69.5803   85.1884   85.9324 O   0  0  0  0  0  0  0  0  0  0  0  0
   69.6177   84.3248   85.5709 H   0  0  0  0  0  0  0  0  0  0  0  0
 29 30  2  0  0  0
 30 31  1  0  0  0
 30 21  1  0  0  0
 21 22  2  0  0  0
 22 23  1  0  0  0
 23 20  1  0  0  0
 20 19  1  0  0  0
 19  1  1  0  0  0
  1  2  2  0  0  0
  2  3  1  0  0  0
  3  4  2  0  0  0
  4  5  1  0  0  0
  5  7  1  0  0  0
  7  8  2  0  0  0
  8  9  1  0  0  0
  9 10  2  0  0  0
 10 11  1  0  0  0
 11 13  1  0  0  0
 13 14  1  0  0  0
 14 15  1  0  0  0
 15 16  1  0  0  0
 16 17  1  0  0  0
 17 18  1  0  0  0
 11 12  2  0  0  0
  5  6  2  0  0  0
 23 24  2  0  0  0
 24 25  1  0  0  0
 25 26  2  0  0  0
 26 27  1  0  0  0
 26 21  1  0  0  0
  6  1  1  0  0  0
 12  7  1  0  0  0
 18 14  1  0  0  0
 31 32  1  0  0  0
 27 28  1  0  0  0
M  END
> <score>
-0.646155

> <minimizedAffinity>
-8.99266

$$$$
HIPS6986


 30 32  0  0  0  0  0  0  0  0999 V2000
   68.7807   77.0869   90.3120 C   0  0  0  0  0  0  0  0  0  0  0  0
   67.5807   77.7448   89.9873 C   0  0  0  0  0  0  0  0  0  0  0  0
   67.5727   79.1186   89.7343 C   0  0  0  0  0  0  0  0  0  0  0  0
   68.7594   79.8513   89.7958 C   0  0  0  0  0  0  0  0  0  0  0  0
   69.9695   79.2104   90.0990 C   0  0  0  0  0  0  0  0  0  0  0  0
   69.9729   77.8329   90.3705 C   0  0  0  0  0  0  0  0  0  0  0  0
   69.6254   73.7280   91.8899 C   0  0  0  0  0  0  0  0  0  0  0  0
   68.8077   72.8696   91.1301 C   0  0  0  0  0  0  0  0  0  0  0  0
   67.9926   73.3842   90.1195 C   0  0  0  0  0  0  0  0  0  0  0  0
   67.9798   74.7534   89.8518 C   0  0  0  0  0  0  0  0  0  0  0  0
   68.7880   75.6289   90.5953 C   0  0  0  0  0  0  0  0  0  0  0  0
   69.6057   75.1018   91.6115 C   0  0  0  0  0  0  0  0  0  0  0  0
   70.4739   73.2969   92.9279 O   0  0  0  0  0  0  0  0  0  0  0  0
   69.7689   73.1878   95.2909 C   0  0  0  0  0  0  0  0  0  0  0  0
   70.1929   72.4243   94.0313 C   0  0  0  0  0  0  0  0  0  0  0  0
   71.3170   71.4124   94.2813 C   0  0  0  0  0  0  0  0  0  0  0  0
   71.2402   80.0021   90.2020 C   0  0  0  0  0  0  0  0  0  0  0  0
   70.9226   81.3565   90.5097 O   0  0  0  0  0  0  0  0  0  0  0  0
   71.2686   82.4571   89.7112 C   0  0  0  0  0  0  0  0  0  0  0  0
   72.5572   82.9805   89.8319 C   0  0  0  0  0  0  0  0  0  0  0  0
   72.9526   84.0729   89.0609 C   0  0  0  0  0  0  0  0  0  0  0  0
   72.0633   84.6627   88.1525 C   0  0  0  0  0  0  0  0  0  0  0  0
   72.4868   85.7550   87.3953 O   0  0  0  0  0  0  0  0  0  0  0  0
   70.7534   84.1492   88.0141 C   0  0  0  0  0  0  0  0  0  0  0  0
   70.3692   83.0443   88.8010 C   0  0  0  0  0  0  0  0  0  0  0  0
   73.3576   86.0858   87.4964 H   0  0  0  0  0  0  0  0  0  0  0  0
   69.7789   84.7450   87.0621 C   0  0  0  0  0  0  0  0  0  0  0  0
   68.5399   84.6039   87.2506 O   0  0  0  0  0  0  0  0  0  0  0  0
   70.2117   85.4647   85.9516 O   0  0  0  0  0  0  0  0  0  0  0  0
   71.1286   85.5795   85.7960 H   0  0  0  0  0  0  0  0  0  0  0  0
 14 15  1  0  0  0
 15 16  1  0  0  0
 15 13  1  0  0  0
 13  7  1  0  0  0
  7  8  2  0  0  0
  8  9  1  0  0  0
  9 10  2  0  0  0
 10 11  1  0  0  0
 11  1  1  0  0  0
  1  2  2  0  0  0
  2  3  1  0  0  0
  3  4  2  0  0  0
  4  5  1  0  0  0
  5 17  1  0  0  0
 17 18  1  0  0  0
 18 19  1  0  0  0
 19 20  2  0  0  0
 20 21  1  0  0  0
 21 22  2  0  0  0
 22 23  1  0  0  0
 22 24  1  0  0  0
 24 27  1  0  0  0
 27 28  2  0  0  0
 27 29  1  0  0  0
 24 25  2  0  0  0
  5  6  2  0  0  0
 11 12  2  0  0  0
 12  7  1  0  0  0
  6  1  1  0  0  0
 25 19  1  0  0  0
 23 26  1  0  0  0
 29 30  1  0  0  0
M  END
> <score>
-0.442309

> <minimizedAffinity>
-8.89427

$$$$
HIPS6986


 30 32  0  0  0  0  0  0  0  0999 V2000
   69.7028   76.3130   91.0842 C   0  0  0  0  0  0  0  0  0  0  0  0
   71.0761   76.3478   91.3862 C   0  0  0  0  0  0  0  0  0  0  0  0
   71.8296   77.4945   91.1242 C   0  0  0  0  0  0  0  0  0  0  0  0
   71.2236   78.6208   90.5645 C   0  0  0  0  0  0  0  0  0  0  0  0
   69.8516   78.6129   90.2740 C   0  0  0  0  0  0  0  0  0  0  0  0
   69.0994   77.4534   90.5214 C   0  0  0  0  0  0  0  0  0  0  0  0
   67.8375   73.5589   92.9339 C   0  0  0  0  0  0  0  0  0  0  0  0
   67.3961   72.7714   91.8532 C   0  0  0  0  0  0  0  0  0  0  0  0
   67.7036   73.1386   90.5413 C   0  0  0  0  0  0  0  0  0  0  0  0
   68.4511   74.2889   90.2873 C   0  0  0  0  0  0  0  0  0  0  0  0
   68.9037   75.0894   91.3490 C   0  0  0  0  0  0  0  0  0  0  0  0
   68.5891   74.7119   92.6672 C   0  0  0  0  0  0  0  0  0  0  0  0
   67.5712   73.2663   94.2854 O   0  0  0  0  0  0  0  0  0  0  0  0
   65.5917   74.7338   94.4300 C   0  0  0  0  0  0  0  0  0  0  0  0
   66.4632   73.6677   95.1033 C   0  0  0  0  0  0  0  0  0  0  0  0
   66.8890   74.0393   96.5283 C   0  0  0  0  0  0  0  0  0  0  0  0
   69.2057   79.8091   89.6383 C   0  0  0  0  0  0  0  0  0  0  0  0
   69.6760   80.9903   90.2812 O   0  0  0  0  0  0  0  0  0  0  0  0
   70.3112   82.0555   89.6250 C   0  0  0  0  0  0  0  0  0  0  0  0
   71.6463   82.3199   89.9361 C   0  0  0  0  0  0  0  0  0  0  0  0
   72.3247   83.3660   89.3120 C   0  0  0  0  0  0  0  0  0  0  0  0
   71.6776   84.1685   88.3626 C   0  0  0  0  0  0  0  0  0  0  0  0
   72.3817   85.2084   87.7553 O   0  0  0  0  0  0  0  0  0  0  0  0
   70.3258   83.9189   88.0325 C   0  0  0  0  0  0  0  0  0  0  0  0
   69.6541   82.8573   88.6725 C   0  0  0  0  0  0  0  0  0  0  0  0
   73.2773   85.3634   87.9830 H   0  0  0  0  0  0  0  0  0  0  0  0
   69.6024   84.7459   87.0307 C   0  0  0  0  0  0  0  0  0  0  0  0
   68.3642   84.9520   87.1529 O   0  0  0  0  0  0  0  0  0  0  0  0
   70.2725   85.3045   85.9456 O   0  0  0  0  0  0  0  0  0  0  0  0
   71.1924   85.1618   85.8391 H   0  0  0  0  0  0  0  0  0  0  0  0
 14 15  1  0  0  0
 15 16  1  0  0  0
 15 13  1  0  0  0
 13  7  1  0  0  0
  7  8  2  0  0  0
  8  9  1  0  0  0
  9 10  2  0  0  0
 10 11  1  0  0  0
 11  1  1  0  0  0
  1  2  2  0  0  0
  2  3  1  0  0  0
  3  4  2  0  0  0
  4  5  1  0  0  0
  5 17  1  0  0  0
 17 18  1  0  0  0
 18 19  1  0  0  0
 19 20  2  0  0  0
 20 21  1  0  0  0
 21 22  2  0  0  0
 22 23  1  0  0  0
 22 24  1  0  0  0
 24 27  1  0  0  0
 27 28  2  0  0  0
 27 29  1  0  0  0
 24 25  2  0  0  0
  5  6  2  0  0  0
 11 12  2  0  0  0
 12  7  1  0  0  0
  6  1  1  0  0  0
 25 19  1  0  0  0
 23 26  1  0  0  0
 29 30  1  0  0  0
M  END
> <score>
-0.442309

> <minimizedAffinity>
-8.87161

$$$$
HIPS6986


 30 32  0  0  0  0  0  0  0  0999 V2000
   70.5216   79.5554   90.3503 C   0  0  0  0  0  0  0  0  0  0  0  0
   71.5770   78.6335   90.4717 C   0  0  0  0  0  0  0  0  0  0  0  0
   71.3186   77.3013   90.8030 C   0  0  0  0  0  0  0  0  0  0  0  0
   70.0069   76.8708   91.0111 C   0  0  0  0  0  0  0  0  0  0  0  0
   68.9392   77.7699   90.8758 C   0  0  0  0  0  0  0  0  0  0  0  0
   69.2021   79.1126   90.5603 C   0  0  0  0  0  0  0  0  0  0  0  0
   70.0236   83.1376   89.1647 C   0  0  0  0  0  0  0  0  0  0  0  0
   71.3151   83.6613   89.3666 C   0  0  0  0  0  0  0  0  0  0  0  0
   72.3303   82.8538   89.8841 C   0  0  0  0  0  0  0  0  0  0  0  0
   72.0762   81.5203   90.2063 C   0  0  0  0  0  0  0  0  0  0  0  0
   70.7965   80.9753   90.0122 C   0  0  0  0  0  0  0  0  0  0  0  0
   69.7799   81.7960   89.4906 C   0  0  0  0  0  0  0  0  0  0  0  0
   68.9417   83.8790   88.6520 O   0  0  0  0  0  0  0  0  0  0  0  0
   69.2288   85.7674   87.0886 C   0  0  0  0  0  0  0  0  0  0  0  0
   68.7077   84.3438   87.3152 C   0  0  0  0  0  0  0  0  0  0  0  0
   67.2534   84.1492   86.8715 C   0  0  0  0  0  0  0  0  0  0  0  0
   67.5318   77.3182   91.1352 C   0  0  0  0  0  0  0  0  0  0  0  0
   67.2522   77.4382   92.5271 O   0  0  0  0  0  0  0  0  0  0  0  0
   67.1751   76.3588   93.4201 C   0  0  0  0  0  0  0  0  0  0  0  0
   65.9686   76.1397   94.0876 C   0  0  0  0  0  0  0  0  0  0  0  0
   65.8382   75.0805   94.9848 C   0  0  0  0  0  0  0  0  0  0  0  0
   66.9156   74.2188   95.2308 C   0  0  0  0  0  0  0  0  0  0  0  0
   66.7558   73.1680   96.1342 O   0  0  0  0  0  0  0  0  0  0  0  0
   68.1467   74.4220   94.5662 C   0  0  0  0  0  0  0  0  0  0  0  0
   68.2622   75.4976   93.6621 C   0  0  0  0  0  0  0  0  0  0  0  0
   65.9347   73.0441   96.5682 H   0  0  0  0  0  0  0  0  0  0  0  0
   69.3144   73.5311   94.7981 C   0  0  0  0  0  0  0  0  0  0  0  0
   69.4091   72.8753   95.8713 O   0  0  0  0  0  0  0  0  0  0  0  0
   70.3190   73.4044   93.8427 O   0  0  0  0  0  0  0  0  0  0  0  0
   70.2650   73.8842   93.0396 H   0  0  0  0  0  0  0  0  0  0  0  0
 14 15  1  0  0  0
 15 16  1  0  0  0
 15 13  1  0  0  0
 13  7  1  0  0  0
  7  8  2  0  0  0
  8  9  1  0  0  0
  9 10  2  0  0  0
 10 11  1  0  0  0
 11  1  1  0  0  0
  1  2  2  0  0  0
  2  3  1  0  0  0
  3  4  2  0  0  0
  4  5  1  0  0  0
  5 17  1  0  0  0
 17 18  1  0  0  0
 18 19  1  0  0  0
 19 20  2  0  0  0
 20 21  1  0  0  0
 21 22  2  0  0  0
 22 23  1  0  0  0
 22 24  1  0  0  0
 24 27  1  0  0  0
 27 28  2  0  0  0
 27 29  1  0  0  0
 24 25  2  0  0  0
  5  6  2  0  0  0
 11 12  2  0  0  0
 12  7  1  0  0  0
  6  1  1  0  0  0
 25 19  1  0  0  0
 23 26  1  0  0  0
 29 30  1  0  0  0
M  END
> <score>
-0.442309

> <minimizedAffinity>
-8.76947

$$$$
HIPS6987


 33 36  0  0  0  0  0  0  0  0999 V2000
   68.9533   79.1268   89.5734 C   0  0  0  0  0  0  0  0  0  0  0  0
   67.9061   79.8843   89.0281 C   0  0  0  0  0  0  0  0  0  0  0  0
   66.7608   79.2523   88.5399 C   0  0  0  0  0  0  0  0  0  0  0  0
   66.6516   77.8602   88.5873 C   0  0  0  0  0  0  0  0  0  0  0  0
   67.6945   77.0821   89.1204 C   0  0  0  0  0  0  0  0  0  0  0  0
   68.8505   77.7260   89.5978 C   0  0  0  0  0  0  0  0  0  0  0  0
   67.5739   75.6044   89.1905 C   0  0  0  0  0  0  0  0  0  0  0  0
   66.7867   74.9052   88.2586 C   0  0  0  0  0  0  0  0  0  0  0  0
   66.6804   73.5140   88.3259 C   0  0  0  0  0  0  0  0  0  0  0  0
   67.3465   72.8064   89.3285 C   0  0  0  0  0  0  0  0  0  0  0  0
   68.1184   73.4907   90.2828 C   0  0  0  0  0  0  0  0  0  0  0  0
   68.2428   74.8820   90.1963 C   0  0  0  0  0  0  0  0  0  0  0  0
   68.8091   72.8162   91.2999 O   0  0  0  0  0  0  0  0  0  0  0  0
   68.7163   73.0967   92.6709 C   0  0  0  0  0  0  0  0  0  0  0  0
   69.8773   73.3847   93.3911 C   0  0  0  0  0  0  0  0  0  0  0  0
   69.8036   73.6759   94.7156 N   0  0  0  0  0  0  0  0  0  0  0  0
   68.6074   73.7063   95.3580 C   0  0  0  0  0  0  0  0  0  0  0  0
   67.4616   73.4502   94.6754 N   0  0  0  0  0  0  0  0  0  0  0  0
   67.4902   73.1513   93.3508 C   0  0  0  0  0  0  0  0  0  0  0  0
   70.1967   79.8080   90.0851 C   0  0  0  0  0  0  0  0  0  0  0  0
   69.9610   81.1959   90.3288 O   0  0  0  0  0  0  0  0  0  0  0  0
   70.4975   84.1230   88.1177 C   0  0  0  0  0  0  0  0  0  0  0  0
   69.8922   83.0571   88.8072 C   0  0  0  0  0  0  0  0  0  0  0  0
   70.6246   82.2556   89.6893 C   0  0  0  0  0  0  0  0  0  0  0  0
   71.9867   82.5304   89.8962 C   0  0  0  0  0  0  0  0  0  0  0  0
   72.5956   83.5976   89.2348 C   0  0  0  0  0  0  0  0  0  0  0  0
   71.8635   84.4111   88.3631 C   0  0  0  0  0  0  0  0  0  0  0  0
   72.5172   85.5071   87.7948 O   0  0  0  0  0  0  0  0  0  0  0  0
   73.4219   85.6622   87.9830 H   0  0  0  0  0  0  0  0  0  0  0  0
   68.4960   85.2080   87.4081 O   0  0  0  0  0  0  0  0  0  0  0  0
   69.6825   84.8782   87.1405 C   0  0  0  0  0  0  0  0  0  0  0  0
   70.2473   85.2825   85.9339 O   0  0  0  0  0  0  0  0  0  0  0  0
   71.1287   85.0425   85.7254 H   0  0  0  0  0  0  0  0  0  0  0  0
 30 31  2  0  0  0
 31 32  1  0  0  0
 31 22  1  0  0  0
 22 23  2  0  0  0
 23 24  1  0  0  0
 24 21  1  0  0  0
 21 20  1  0  0  0
 20  1  1  0  0  0
  1  2  2  0  0  0
  2  3  1  0  0  0
  3  4  2  0  0  0
  4  5  1  0  0  0
  5  7  1  0  0  0
  7  8  2  0  0  0
  8  9  1  0  0  0
  9 10  2  0  0  0
 10 11  1  0  0  0
 11 13  1  0  0  0
 13 14  1  0  0  0
 14 15  2  0  0  0
 15 16  2  0  0  0
 16 17  2  0  0  0
 17 18  2  0  0  0
 18 19  2  0  0  0
 11 12  2  0  0  0
  5  6  2  0  0  0
 24 25  2  0  0  0
 25 26  1  0  0  0
 26 27  2  0  0  0
 27 28  1  0  0  0
 27 22  1  0  0  0
  6  1  1  0  0  0
 12  7  1  0  0  0
 19 14  1  0  0  0
 32 33  1  0  0  0
 28 29  1  0  0  0
M  END
> <score>
0.113247

> <minimizedAffinity>
-9.30549

$$$$
HIPS6987


 33 36  0  0  0  0  0  0  0  0999 V2000
   69.9071   78.7466   90.1199 C   0  0  0  0  0  0  0  0  0  0  0  0
   68.7128   79.2718   89.6044 C   0  0  0  0  0  0  0  0  0  0  0  0
   67.5910   78.4539   89.4559 C   0  0  0  0  0  0  0  0  0  0  0  0
   67.6516   77.1052   89.8158 C   0  0  0  0  0  0  0  0  0  0  0  0
   68.8423   76.5570   90.3246 C   0  0  0  0  0  0  0  0  0  0  0  0
   69.9717   77.3849   90.4585 C   0  0  0  0  0  0  0  0  0  0  0  0
   68.9047   75.1295   90.7266 C   0  0  0  0  0  0  0  0  0  0  0  0
   68.0840   74.1734   90.1025 C   0  0  0  0  0  0  0  0  0  0  0  0
   68.1501   72.8304   90.4810 C   0  0  0  0  0  0  0  0  0  0  0  0
   69.0245   72.4279   91.4924 C   0  0  0  0  0  0  0  0  0  0  0  0
   69.8349   73.3734   92.1436 C   0  0  0  0  0  0  0  0  0  0  0  0
   69.7840   74.7137   91.7437 C   0  0  0  0  0  0  0  0  0  0  0  0
   70.7318   73.0084   93.1580 O   0  0  0  0  0  0  0  0  0  0  0  0
   70.9864   71.6973   93.5860 C   0  0  0  0  0  0  0  0  0  0  0  0
   70.4816   71.2679   94.8149 C   0  0  0  0  0  0  0  0  0  0  0  0
   70.7038   69.9961   95.2366 N   0  0  0  0  0  0  0  0  0  0  0  0
   71.4040   69.1193   94.4713 C   0  0  0  0  0  0  0  0  0  0  0  0
   71.8878   69.5063   93.2628 N   0  0  0  0  0  0  0  0  0  0  0  0
   71.6915   70.7696   92.8043 C   0  0  0  0  0  0  0  0  0  0  0  0
   71.1230   79.6256   90.2646 C   0  0  0  0  0  0  0  0  0  0  0  0
   70.7514   80.9836   90.5080 O   0  0  0  0  0  0  0  0  0  0  0  0
   70.7601   83.7804   88.0744 C   0  0  0  0  0  0  0  0  0  0  0  0
   70.3544   82.6788   88.8489 C   0  0  0  0  0  0  0  0  0  0  0  0
   71.2153   82.0936   89.7834 C   0  0  0  0  0  0  0  0  0  0  0  0
   72.5039   82.6257   89.9566 C   0  0  0  0  0  0  0  0  0  0  0  0
   72.9127   83.7314   89.2101 C   0  0  0  0  0  0  0  0  0  0  0  0
   72.0499   84.3293   88.2850 C   0  0  0  0  0  0  0  0  0  0  0  0
   72.4970   85.4785   87.6287 O   0  0  0  0  0  0  0  0  0  0  0  0
   73.3576   85.8090   87.7965 H   0  0  0  0  0  0  0  0  0  0  0  0
   68.6018   84.0043   87.0851 O   0  0  0  0  0  0  0  0  0  0  0  0
   69.8269   84.2980   87.0494 C   0  0  0  0  0  0  0  0  0  0  0  0
   70.2916   85.1672   86.0661 O   0  0  0  0  0  0  0  0  0  0  0  0
   71.2005   85.3919   86.0309 H   0  0  0  0  0  0  0  0  0  0  0  0
 30 31  2  0  0  0
 31 32  1  0  0  0
 31 22  1  0  0  0
 22 23  2  0  0  0
 23 24  1  0  0  0
 24 21  1  0  0  0
 21 20  1  0  0  0
 20  1  1  0  0  0
  1  2  2  0  0  0
  2  3  1  0  0  0
  3  4  2  0  0  0
  4  5  1  0  0  0
  5  7  1  0  0  0
  7  8  2  0  0  0
  8  9  1  0  0  0
  9 10  2  0  0  0
 10 11  1  0  0  0
 11 13  1  0  0  0
 13 14  1  0  0  0
 14 15  2  0  0  0
 15 16  2  0  0  0
 16 17  2  0  0  0
 17 18  2  0  0  0
 18 19  2  0  0  0
 11 12  2  0  0  0
  5  6  2  0  0  0
 24 25  2  0  0  0
 25 26  1  0  0  0
 26 27  2  0  0  0
 27 28  1  0  0  0
 27 22  1  0  0  0
  6  1  1  0  0  0
 12  7  1  0  0  0
 19 14  1  0  0  0
 32 33  1  0  0  0
 28 29  1  0  0  0
M  END
> <score>
0.113247

> <minimizedAffinity>
-9.25344

$$$$
HIPS6987


 33 36  0  0  0  0  0  0  0  0999 V2000
   67.7872   79.2380   88.9368 C   0  0  0  0  0  0  0  0  0  0  0  0
   68.8794   79.5944   89.7420 C   0  0  0  0  0  0  0  0  0  0  0  0
   69.5991   78.6128   90.4259 C   0  0  0  0  0  0  0  0  0  0  0  0
   69.2338   77.2686   90.3164 C   0  0  0  0  0  0  0  0  0  0  0  0
   68.1359   76.8917   89.5228 C   0  0  0  0  0  0  0  0  0  0  0  0
   67.4081   77.8884   88.8478 C   0  0  0  0  0  0  0  0  0  0  0  0
   67.7570   75.4628   89.3883 C   0  0  0  0  0  0  0  0  0  0  0  0
   66.9564   75.0323   88.3156 C   0  0  0  0  0  0  0  0  0  0  0  0
   66.6068   73.6857   88.1908 C   0  0  0  0  0  0  0  0  0  0  0  0
   67.0402   72.7566   89.1388 C   0  0  0  0  0  0  0  0  0  0  0  0
   67.8211   73.1729   90.2304 C   0  0  0  0  0  0  0  0  0  0  0  0
   68.1903   74.5186   90.3377 C   0  0  0  0  0  0  0  0  0  0  0  0
   68.2830   72.2700   91.1990 O   0  0  0  0  0  0  0  0  0  0  0  0
   68.7738   72.6166   92.4662 C   0  0  0  0  0  0  0  0  0  0  0  0
   67.8770   72.9880   93.4699 C   0  0  0  0  0  0  0  0  0  0  0  0
   68.3340   73.3096   94.7078 N   0  0  0  0  0  0  0  0  0  0  0  0
   69.6604   73.2635   94.9960 C   0  0  0  0  0  0  0  0  0  0  0  0
   70.5511   72.8854   94.0431 N   0  0  0  0  0  0  0  0  0  0  0  0
   70.1376   72.5588   92.7912 C   0  0  0  0  0  0  0  0  0  0  0  0
   67.0001   80.2994   88.2118 C   0  0  0  0  0  0  0  0  0  0  0  0
   67.2706   81.5968   88.7456 O   0  0  0  0  0  0  0  0  0  0  0  0
   70.1378   83.7719   87.8553 C   0  0  0  0  0  0  0  0  0  0  0  0
   69.3485   82.7711   88.4496 C   0  0  0  0  0  0  0  0  0  0  0  0
   68.0051   82.6032   88.0975 C   0  0  0  0  0  0  0  0  0  0  0  0
   67.4407   83.4442   87.1239 C   0  0  0  0  0  0  0  0  0  0  0  0
   68.2175   84.4279   86.5108 C   0  0  0  0  0  0  0  0  0  0  0  0
   69.5655   84.5897   86.8489 C   0  0  0  0  0  0  0  0  0  0  0  0
   70.3026   85.5421   86.1411 O   0  0  0  0  0  0  0  0  0  0  0  0
   69.8858   86.0628   85.4830 H   0  0  0  0  0  0  0  0  0  0  0  0
   71.8213   83.7559   89.5443 O   0  0  0  0  0  0  0  0  0  0  0  0
   71.5275   83.9444   88.3333 C   0  0  0  0  0  0  0  0  0  0  0  0
   72.5367   84.2609   87.4279 O   0  0  0  0  0  0  0  0  0  0  0  0
   72.3288   84.4030   86.5254 H   0  0  0  0  0  0  0  0  0  0  0  0
 30 31  2  0  0  0
 31 32  1  0  0  0
 31 22  1  0  0  0
 22 23  2  0  0  0
 23 24  1  0  0  0
 24 21  1  0  0  0
 21 20  1  0  0  0
 20  1  1  0  0  0
  1  2  2  0  0  0
  2  3  1  0  0  0
  3  4  2  0  0  0
  4  5  1  0  0  0
  5  7  1  0  0  0
  7  8  2  0  0  0
  8  9  1  0  0  0
  9 10  2  0  0  0
 10 11  1  0  0  0
 11 13  1  0  0  0
 13 14  1  0  0  0
 14 15  2  0  0  0
 15 16  2  0  0  0
 16 17  2  0  0  0
 17 18  2  0  0  0
 18 19  2  0  0  0
 11 12  2  0  0  0
  5  6  2  0  0  0
 24 25  2  0  0  0
 25 26  1  0  0  0
 26 27  2  0  0  0
 27 28  1  0  0  0
 27 22  1  0  0  0
  6  1  1  0  0  0
 12  7  1  0  0  0
 19 14  1  0  0  0
 32 33  1  0  0  0
 28 29  1  0  0  0
M  END
> <score>
0.113247

> <minimizedAffinity>
-9.12284

$$$$
HIPS6988


 33 36  0  0  0  0  0  0  0  0999 V2000
   69.2349   78.9334   89.8295 C   0  0  0  0  0  0  0  0  0  0  0  0
   68.0024   79.4462   89.3990 C   0  0  0  0  0  0  0  0  0  0  0  0
   66.9162   78.5911   89.1968 C   0  0  0  0  0  0  0  0  0  0  0  0
   67.0427   77.2221   89.4473 C   0  0  0  0  0  0  0  0  0  0  0  0
   68.2651   76.6937   89.8962 C   0  0  0  0  0  0  0  0  0  0  0  0
   69.3633   77.5559   90.0614 C   0  0  0  0  0  0  0  0  0  0  0  0
   68.3917   75.2563   90.2375 C   0  0  0  0  0  0  0  0  0  0  0  0
   67.5863   74.2911   89.6097 C   0  0  0  0  0  0  0  0  0  0  0  0
   67.7168   72.9399   89.9426 C   0  0  0  0  0  0  0  0  0  0  0  0
   68.6549   72.5383   90.8972 C   0  0  0  0  0  0  0  0  0  0  0  0
   69.4751   73.4826   91.5234 C   0  0  0  0  0  0  0  0  0  0  0  0
   69.3232   74.8435   91.2069 C   0  0  0  0  0  0  0  0  0  0  0  0
   70.3970   73.0467   92.4874 O   0  0  0  0  0  0  0  0  0  0  0  0
   70.4725   71.7448   93.0060 C   0  0  0  0  0  0  0  0  0  0  0  0
   69.9620   70.6321   92.3154 C   0  0  0  0  0  0  0  0  0  0  0  0
   70.0529   69.3590   92.8806 C   0  0  0  0  0  0  0  0  0  0  0  0
   70.6413   69.2097   94.1377 C   0  0  0  0  0  0  0  0  0  0  0  0
   71.1131   70.2981   94.8019 N   0  0  0  0  0  0  0  0  0  0  0  0
   71.0359   71.5482   94.2714 C   0  0  0  0  0  0  0  0  0  0  0  0
   70.3809   79.8676   90.1122 C   0  0  0  0  0  0  0  0  0  0  0  0
   69.9264   81.2217   90.0993 O   0  0  0  0  0  0  0  0  0  0  0  0
   70.5356   84.2238   88.0061 C   0  0  0  0  0  0  0  0  0  0  0  0
   69.9210   83.1079   88.6058 C   0  0  0  0  0  0  0  0  0  0  0  0
   70.6107   82.3037   89.5198 C   0  0  0  0  0  0  0  0  0  0  0  0
   71.9512   82.6003   89.8177 C   0  0  0  0  0  0  0  0  0  0  0  0
   72.5726   83.7049   89.2363 C   0  0  0  0  0  0  0  0  0  0  0  0
   71.8778   84.5220   88.3354 C   0  0  0  0  0  0  0  0  0  0  0  0
   72.5256   85.6216   87.7718 O   0  0  0  0  0  0  0  0  0  0  0  0
   73.4154   85.8080   87.9986 H   0  0  0  0  0  0  0  0  0  0  0  0
   68.6069   85.4749   87.3466 O   0  0  0  0  0  0  0  0  0  0  0  0
   69.7578   85.0542   87.0512 C   0  0  0  0  0  0  0  0  0  0  0  0
   70.2967   85.3800   85.8088 O   0  0  0  0  0  0  0  0  0  0  0  0
   71.1510   85.0749   85.5742 H   0  0  0  0  0  0  0  0  0  0  0  0
 30 31  2  0  0  0
 31 32  1  0  0  0
 31 22  1  0  0  0
 22 23  2  0  0  0
 23 24  1  0  0  0
 24 21  1  0  0  0
 21 20  1  0  0  0
 20  1  1  0  0  0
  1  2  2  0  0  0
  2  3  1  0  0  0
  3  4  2  0  0  0
  4  5  1  0  0  0
  5  7  1  0  0  0
  7  8  2  0  0  0
  8  9  1  0  0  0
  9 10  2  0  0  0
 10 11  1  0  0  0
 11 13  1  0  0  0
 13 14  1  0  0  0
 14 15  2  0  0  0
 15 16  1  0  0  0
 16 17  2  0  0  0
 17 18  2  0  0  0
 18 19  2  0  0  0
 11 12  2  0  0  0
  5  6  2  0  0  0
 24 25  2  0  0  0
 25 26  1  0  0  0
 26 27  2  0  0  0
 27 28  1  0  0  0
 27 22  1  0  0  0
  6  1  1  0  0  0
 12  7  1  0  0  0
 19 14  1  0  0  0
 32 33  1  0  0  0
 28 29  1  0  0  0
M  END
> <score>
0.503819

> <minimizedAffinity>
-9.36098

$$$$
HIPS6988


 33 36  0  0  0  0  0  0  0  0999 V2000
   68.1212   79.7307   89.3957 C   0  0  0  0  0  0  0  0  0  0  0  0
   67.4137   80.1181   88.2483 C   0  0  0  0  0  0  0  0  0  0  0  0
   66.8108   79.1555   87.4347 C   0  0  0  0  0  0  0  0  0  0  0  0
   66.8864   77.8017   87.7727 C   0  0  0  0  0  0  0  0  0  0  0  0
   67.5761   77.3972   88.9283 C   0  0  0  0  0  0  0  0  0  0  0  0
   68.2112   78.3692   89.7211 C   0  0  0  0  0  0  0  0  0  0  0  0
   67.6002   75.9725   89.3391 C   0  0  0  0  0  0  0  0  0  0  0  0
   67.0670   74.9723   88.5086 C   0  0  0  0  0  0  0  0  0  0  0  0
   67.0963   73.6338   88.9099 C   0  0  0  0  0  0  0  0  0  0  0  0
   67.6633   73.2798   90.1370 C   0  0  0  0  0  0  0  0  0  0  0  0
   68.2113   74.2595   90.9716 C   0  0  0  0  0  0  0  0  0  0  0  0
   68.1561   75.6076   90.5782 C   0  0  0  0  0  0  0  0  0  0  0  0
   68.7604   73.8710   92.2031 O   0  0  0  0  0  0  0  0  0  0  0  0
   68.0636   73.8174   93.4201 C   0  0  0  0  0  0  0  0  0  0  0  0
   66.6936   74.1176   93.5133 C   0  0  0  0  0  0  0  0  0  0  0  0
   66.0498   74.0596   94.7505 C   0  0  0  0  0  0  0  0  0  0  0  0
   66.7833   73.7151   95.8872 C   0  0  0  0  0  0  0  0  0  0  0  0
   68.1120   73.4464   95.7841 N   0  0  0  0  0  0  0  0  0  0  0  0
   68.7608   73.4961   94.5897 C   0  0  0  0  0  0  0  0  0  0  0  0
   68.7092   80.7760   90.3055 C   0  0  0  0  0  0  0  0  0  0  0  0
   70.1053   80.9271   90.0436 O   0  0  0  0  0  0  0  0  0  0  0  0
   70.4982   84.0103   88.0178 C   0  0  0  0  0  0  0  0  0  0  0  0
   69.9655   82.8398   88.5910 C   0  0  0  0  0  0  0  0  0  0  0  0
   70.7100   82.0685   89.4903 C   0  0  0  0  0  0  0  0  0  0  0  0
   72.0245   82.4558   89.7998 C   0  0  0  0  0  0  0  0  0  0  0  0
   72.5647   83.6152   89.2447 C   0  0  0  0  0  0  0  0  0  0  0  0
   71.8141   84.3987   88.3587 C   0  0  0  0  0  0  0  0  0  0  0  0
   72.3811   85.5546   87.8215 O   0  0  0  0  0  0  0  0  0  0  0  0
   73.2543   85.8007   88.0558 H   0  0  0  0  0  0  0  0  0  0  0  0
   68.4294   84.9562   87.2794 O   0  0  0  0  0  0  0  0  0  0  0  0
   69.6640   84.8021   87.0778 C   0  0  0  0  0  0  0  0  0  0  0  0
   70.2422   85.3880   85.9542 O   0  0  0  0  0  0  0  0  0  0  0  0
   71.1587   85.2827   85.7902 H   0  0  0  0  0  0  0  0  0  0  0  0
 30 31  2  0  0  0
 31 32  1  0  0  0
 31 22  1  0  0  0
 22 23  2  0  0  0
 23 24  1  0  0  0
 24 21  1  0  0  0
 21 20  1  0  0  0
 20  1  1  0  0  0
  1  2  2  0  0  0
  2  3  1  0  0  0
  3  4  2  0  0  0
  4  5  1  0  0  0
  5  7  1  0  0  0
  7  8  2  0  0  0
  8  9  1  0  0  0
  9 10  2  0  0  0
 10 11  1  0  0  0
 11 13  1  0  0  0
 13 14  1  0  0  0
 14 15  2  0  0  0
 15 16  1  0  0  0
 16 17  2  0  0  0
 17 18  2  0  0  0
 18 19  2  0  0  0
 11 12  2  0  0  0
  5  6  2  0  0  0
 24 25  2  0  0  0
 25 26  1  0  0  0
 26 27  2  0  0  0
 27 28  1  0  0  0
 27 22  1  0  0  0
  6  1  1  0  0  0
 12  7  1  0  0  0
 19 14  1  0  0  0
 32 33  1  0  0  0
 28 29  1  0  0  0
M  END
> <score>
0.503819

> <minimizedAffinity>
-9.34478

$$$$
HIPS6988


 33 36  0  0  0  0  0  0  0  0999 V2000
   67.4490   79.0858   88.8470 C   0  0  0  0  0  0  0  0  0  0  0  0
   67.0652   79.2410   87.5069 C   0  0  0  0  0  0  0  0  0  0  0  0
   66.8547   78.1195   86.7008 C   0  0  0  0  0  0  0  0  0  0  0  0
   66.9996   76.8349   87.2312 C   0  0  0  0  0  0  0  0  0  0  0  0
   67.3662   76.6608   88.5766 C   0  0  0  0  0  0  0  0  0  0  0  0
   67.6122   77.7947   89.3705 C   0  0  0  0  0  0  0  0  0  0  0  0
   67.4500   75.3052   89.1719 C   0  0  0  0  0  0  0  0  0  0  0  0
   66.9456   74.1846   88.4905 C   0  0  0  0  0  0  0  0  0  0  0  0
   67.0312   72.9134   89.0649 C   0  0  0  0  0  0  0  0  0  0  0  0
   67.6263   72.7466   90.3182 C   0  0  0  0  0  0  0  0  0  0  0  0
   68.1463   73.8479   91.0062 C   0  0  0  0  0  0  0  0  0  0  0  0
   68.0345   75.1289   90.4387 C   0  0  0  0  0  0  0  0  0  0  0  0
   68.7247   73.6470   92.2687 O   0  0  0  0  0  0  0  0  0  0  0  0
   68.0355   73.6816   93.4907 C   0  0  0  0  0  0  0  0  0  0  0  0
   66.6612   73.9661   93.5682 C   0  0  0  0  0  0  0  0  0  0  0  0
   66.0250   73.9990   94.8102 C   0  0  0  0  0  0  0  0  0  0  0  0
   66.7702   73.7603   95.9663 C   0  0  0  0  0  0  0  0  0  0  0  0
   68.1027   73.5057   95.8767 N   0  0  0  0  0  0  0  0  0  0  0  0
   68.7442   73.4683   94.6779 C   0  0  0  0  0  0  0  0  0  0  0  0
   67.6068   80.2954   89.7291 C   0  0  0  0  0  0  0  0  0  0  0  0
   67.6735   81.4796   88.9330 O   0  0  0  0  0  0  0  0  0  0  0  0
   71.1335   82.7635   89.3136 C   0  0  0  0  0  0  0  0  0  0  0  0
   69.9230   82.0804   89.5387 C   0  0  0  0  0  0  0  0  0  0  0  0
   68.8418   82.2113   88.6602 C   0  0  0  0  0  0  0  0  0  0  0  0
   68.9598   83.0659   87.5514 C   0  0  0  0  0  0  0  0  0  0  0  0
   70.1536   83.7452   87.3116 C   0  0  0  0  0  0  0  0  0  0  0  0
   71.2434   83.6008   88.1797 C   0  0  0  0  0  0  0  0  0  0  0  0
   72.4256   84.2915   87.9120 O   0  0  0  0  0  0  0  0  0  0  0  0
   72.4851   84.8433   87.1570 H   0  0  0  0  0  0  0  0  0  0  0  0
   72.0542   82.1394   91.4308 O   0  0  0  0  0  0  0  0  0  0  0  0
   72.2569   82.5824   90.2684 C   0  0  0  0  0  0  0  0  0  0  0  0
   73.5574   82.9025   89.8858 O   0  0  0  0  0  0  0  0  0  0  0  0
   73.7246   83.2330   89.0251 H   0  0  0  0  0  0  0  0  0  0  0  0
 30 31  2  0  0  0
 31 32  1  0  0  0
 31 22  1  0  0  0
 22 23  2  0  0  0
 23 24  1  0  0  0
 24 21  1  0  0  0
 21 20  1  0  0  0
 20  1  1  0  0  0
  1  2  2  0  0  0
  2  3  1  0  0  0
  3  4  2  0  0  0
  4  5  1  0  0  0
  5  7  1  0  0  0
  7  8  2  0  0  0
  8  9  1  0  0  0
  9 10  2  0  0  0
 10 11  1  0  0  0
 11 13  1  0  0  0
 13 14  1  0  0  0
 14 15  2  0  0  0
 15 16  1  0  0  0
 16 17  2  0  0  0
 17 18  2  0  0  0
 18 19  2  0  0  0
 11 12  2  0  0  0
  5  6  2  0  0  0
 24 25  2  0  0  0
 25 26  1  0  0  0
 26 27  2  0  0  0
 27 28  1  0  0  0
 27 22  1  0  0  0
  6  1  1  0  0  0
 12  7  1  0  0  0
 19 14  1  0  0  0
 32 33  1  0  0  0
 28 29  1  0  0  0
M  END
> <score>
0.503819

> <minimizedAffinity>
-9.09941

$$$$
HIPS6989


 37 40  0  0  0  0  0  0  0  0999 V2000
   67.3588   80.6527   88.2873 C   0  0  0  0  0  0  0  0  0  0  0  0
   66.4939   79.7542   87.6453 C   0  0  0  0  0  0  0  0  0  0  0  0
   66.6834   78.3777   87.7804 C   0  0  0  0  0  0  0  0  0  0  0  0
   67.7401   77.8851   88.5496 C   0  0  0  0  0  0  0  0  0  0  0  0
   68.6275   78.7687   89.1894 C   0  0  0  0  0  0  0  0  0  0  0  0
   68.4323   80.1550   89.0436 C   0  0  0  0  0  0  0  0  0  0  0  0
   69.7496   78.2504   90.0130 C   0  0  0  0  0  0  0  0  0  0  0  0
   70.9582   78.9635   90.1073 C   0  0  0  0  0  0  0  0  0  0  0  0
   72.0137   78.4675   90.8763 C   0  0  0  0  0  0  0  0  0  0  0  0
   71.8817   77.2507   91.5481 C   0  0  0  0  0  0  0  0  0  0  0  0
   70.6967   76.5149   91.4514 C   0  0  0  0  0  0  0  0  0  0  0  0
   69.6235   77.0306   90.7029 C   0  0  0  0  0  0  0  0  0  0  0  0
   70.5999   75.2987   92.1439 O   0  0  0  0  0  0  0  0  0  0  0  0
   69.6139   74.9789   93.0898 C   0  0  0  0  0  0  0  0  0  0  0  0
   69.4358   75.8268   94.1874 C   0  0  0  0  0  0  0  0  0  0  0  0
   68.4683   75.5412   95.1554 C   0  0  0  0  0  0  0  0  0  0  0  0
   67.6563   74.4001   95.0354 C   0  0  0  0  0  0  0  0  0  0  0  0
   67.8702   73.5227   93.9582 C   0  0  0  0  0  0  0  0  0  0  0  0
   68.8392   73.8097   92.9928 C   0  0  0  0  0  0  0  0  0  0  0  0
   66.6445   74.0676   96.1028 C   0  0  0  0  0  0  0  0  0  0  0  0
   66.3620   75.1838   96.8715 F   0  0  0  0  0  0  0  0  0  0  0  0
   65.4625   73.6232   95.5354 F   0  0  0  0  0  0  0  0  0  0  0  0
   67.1534   73.0749   96.9194 F   0  0  0  0  0  0  0  0  0  0  0  0
   67.1612   82.1390   88.1378 C   0  0  0  0  0  0  0  0  0  0  0  0
   67.9710   82.6600   87.0824 O   0  0  0  0  0  0  0  0  0  0  0  0
   71.1985   84.0023   88.3189 C   0  0  0  0  0  0  0  0  0  0  0  0
   70.0886   83.1647   88.1047 C   0  0  0  0  0  0  0  0  0  0  0  0
   69.0495   83.5440   87.2489 C   0  0  0  0  0  0  0  0  0  0  0  0
   69.1229   84.7816   86.5882 C   0  0  0  0  0  0  0  0  0  0  0  0
   70.2078   85.6310   86.8069 C   0  0  0  0  0  0  0  0  0  0  0  0
   71.2362   85.2668   87.6824 C   0  0  0  0  0  0  0  0  0  0  0  0
   72.2501   86.1977   87.9179 O   0  0  0  0  0  0  0  0  0  0  0  0
   72.2391   87.0241   87.4765 H   0  0  0  0  0  0  0  0  0  0  0  0
   73.3579   84.1910   89.2903 O   0  0  0  0  0  0  0  0  0  0  0  0
   72.3012   83.5129   89.1749 C   0  0  0  0  0  0  0  0  0  0  0  0
   72.1622   82.3372   89.9070 O   0  0  0  0  0  0  0  0  0  0  0  0
   71.3809   81.8260   89.8284 H   0  0  0  0  0  0  0  0  0  0  0  0
 34 35  2  0  0  0
 35 36  1  0  0  0
 35 26  1  0  0  0
 26 27  2  0  0  0
 27 28  1  0  0  0
 28 25  1  0  0  0
 25 24  1  0  0  0
 24  1  1  0  0  0
  1  2  2  0  0  0
  2  3  1  0  0  0
  3  4  2  0  0  0
  4  5  1  0  0  0
  5  7  1  0  0  0
  7  8  2  0  0  0
  8  9  1  0  0  0
  9 10  2  0  0  0
 10 11  1  0  0  0
 11 13  1  0  0  0
 13 14  1  0  0  0
 14 15  2  0  0  0
 15 16  1  0  0  0
 16 17  2  0  0  0
 17 20  1  0  0  0
 20 21  1  0  0  0
 20 22  1  0  0  0
 20 23  1  0  0  0
 17 18  1  0  0  0
 18 19  2  0  0  0
 11 12  2  0  0  0
  5  6  2  0  0  0
 28 29  2  0  0  0
 29 30  1  0  0  0
 30 31  2  0  0  0
 31 32  1  0  0  0
 31 26  1  0  0  0
  6  1  1  0  0  0
 12  7  1  0  0  0
 19 14  1  0  0  0
 36 37  1  0  0  0
 32 33  1  0  0  0
M  END
> <score>
-1.273758

> <minimizedAffinity>
-10.01343

$$$$
HIPS6989


 37 40  0  0  0  0  0  0  0  0999 V2000
   69.0209   73.7206   90.9354 C   0  0  0  0  0  0  0  0  0  0  0  0
   68.2162   72.7055   90.3973 C   0  0  0  0  0  0  0  0  0  0  0  0
   67.2606   73.0068   89.4253 C   0  0  0  0  0  0  0  0  0  0  0  0
   67.0934   74.3224   88.9869 C   0  0  0  0  0  0  0  0  0  0  0  0
   67.8795   75.3573   89.5241 C   0  0  0  0  0  0  0  0  0  0  0  0
   68.8371   75.0455   90.5075 C   0  0  0  0  0  0  0  0  0  0  0  0
   67.7097   76.7572   89.0577 C   0  0  0  0  0  0  0  0  0  0  0  0
   67.1232   77.0302   87.8089 C   0  0  0  0  0  0  0  0  0  0  0  0
   66.9736   78.3482   87.3709 C   0  0  0  0  0  0  0  0  0  0  0  0
   67.4181   79.4068   88.1654 C   0  0  0  0  0  0  0  0  0  0  0  0
   68.0230   79.1576   89.4011 C   0  0  0  0  0  0  0  0  0  0  0  0
   68.1443   77.8319   89.8550 C   0  0  0  0  0  0  0  0  0  0  0  0
   68.4533   80.2471   90.1731 O   0  0  0  0  0  0  0  0  0  0  0  0
   69.4100   81.1947   89.7786 C   0  0  0  0  0  0  0  0  0  0  0  0
   70.7164   81.0717   90.2618 C   0  0  0  0  0  0  0  0  0  0  0  0
   71.6982   81.9980   89.8975 C   0  0  0  0  0  0  0  0  0  0  0  0
   71.3868   83.0631   89.0347 C   0  0  0  0  0  0  0  0  0  0  0  0
   70.0620   83.2138   88.5897 C   0  0  0  0  0  0  0  0  0  0  0  0
   69.0821   82.2873   88.9568 C   0  0  0  0  0  0  0  0  0  0  0  0
   72.4341   84.0879   88.6785 C   0  0  0  0  0  0  0  0  0  0  0  0
   72.8690   83.9084   87.3766 F   0  0  0  0  0  0  0  0  0  0  0  0
   71.9228   85.3696   88.7905 F   0  0  0  0  0  0  0  0  0  0  0  0
   73.5107   83.9559   89.5357 F   0  0  0  0  0  0  0  0  0  0  0  0
   70.0484   73.3999   91.9897 C   0  0  0  0  0  0  0  0  0  0  0  0
   69.9490   74.3016   93.0934 O   0  0  0  0  0  0  0  0  0  0  0  0
   66.9851   76.2574   94.1601 C   0  0  0  0  0  0  0  0  0  0  0  0
   68.1731   75.8678   93.5151 C   0  0  0  0  0  0  0  0  0  0  0  0
   68.7624   74.6255   93.7713 C   0  0  0  0  0  0  0  0  0  0  0  0
   68.1498   73.7516   94.6848 C   0  0  0  0  0  0  0  0  0  0  0  0
   66.9826   74.1333   95.3467 C   0  0  0  0  0  0  0  0  0  0  0  0
   66.4045   75.3854   95.1131 C   0  0  0  0  0  0  0  0  0  0  0  0
   65.2840   75.7358   95.8690 O   0  0  0  0  0  0  0  0  0  0  0  0
   64.9296   75.1301   96.4898 H   0  0  0  0  0  0  0  0  0  0  0  0
   65.1682   77.7859   94.0939 O   0  0  0  0  0  0  0  0  0  0  0  0
   66.3692   77.5506   93.7906 C   0  0  0  0  0  0  0  0  0  0  0  0
   67.1206   78.5402   93.1632 O   0  0  0  0  0  0  0  0  0  0  0  0
   68.0139   78.3754   92.9337 H   0  0  0  0  0  0  0  0  0  0  0  0
 34 35  2  0  0  0
 35 36  1  0  0  0
 35 26  1  0  0  0
 26 27  2  0  0  0
 27 28  1  0  0  0
 28 25  1  0  0  0
 25 24  1  0  0  0
 24  1  1  0  0  0
  1  2  2  0  0  0
  2  3  1  0  0  0
  3  4  2  0  0  0
  4  5  1  0  0  0
  5  7  1  0  0  0
  7  8  2  0  0  0
  8  9  1  0  0  0
  9 10  2  0  0  0
 10 11  1  0  0  0
 11 13  1  0  0  0
 13 14  1  0  0  0
 14 15  2  0  0  0
 15 16  1  0  0  0
 16 17  2  0  0  0
 17 20  1  0  0  0
 20 21  1  0  0  0
 20 22  1  0  0  0
 20 23  1  0  0  0
 17 18  1  0  0  0
 18 19  2  0  0  0
 11 12  2  0  0  0
  5  6  2  0  0  0
 28 29  2  0  0  0
 29 30  1  0  0  0
 30 31  2  0  0  0
 31 32  1  0  0  0
 31 26  1  0  0  0
  6  1  1  0  0  0
 12  7  1  0  0  0
 19 14  1  0  0  0
 36 37  1  0  0  0
 32 33  1  0  0  0
M  END
> <score>
-1.273758

> <minimizedAffinity>
-9.88434

$$$$
HIPS6989


 37 40  0  0  0  0  0  0  0  0999 V2000
   68.5827   77.5279   90.5527 C   0  0  0  0  0  0  0  0  0  0  0  0
   69.9655   77.3045   90.6267 C   0  0  0  0  0  0  0  0  0  0  0  0
   70.8583   78.3674   90.4782 C   0  0  0  0  0  0  0  0  0  0  0  0
   70.3814   79.6598   90.2473 C   0  0  0  0  0  0  0  0  0  0  0  0
   68.9995   79.9029   90.1548 C   0  0  0  0  0  0  0  0  0  0  0  0
   68.1065   78.8248   90.3005 C   0  0  0  0  0  0  0  0  0  0  0  0
   68.4867   81.2762   89.9148 C   0  0  0  0  0  0  0  0  0  0  0  0
   67.4031   81.7765   90.6588 C   0  0  0  0  0  0  0  0  0  0  0  0
   66.9190   83.0655   90.4233 C   0  0  0  0  0  0  0  0  0  0  0  0
   67.4998   83.8643   89.4363 C   0  0  0  0  0  0  0  0  0  0  0  0
   68.5643   83.3794   88.6706 C   0  0  0  0  0  0  0  0  0  0  0  0
   69.0714   82.0935   88.9301 C   0  0  0  0  0  0  0  0  0  0  0  0
   69.1246   84.2127   87.6908 O   0  0  0  0  0  0  0  0  0  0  0  0
   70.1129   85.1826   87.9178 C   0  0  0  0  0  0  0  0  0  0  0  0
   71.4553   84.7912   87.8986 C   0  0  0  0  0  0  0  0  0  0  0  0
   72.4703   85.7254   88.1257 C   0  0  0  0  0  0  0  0  0  0  0  0
   72.1556   87.0733   88.3705 C   0  0  0  0  0  0  0  0  0  0  0  0
   70.8046   87.4553   88.4387 C   0  0  0  0  0  0  0  0  0  0  0  0
   69.7917   86.5191   88.2130 C   0  0  0  0  0  0  0  0  0  0  0  0
   73.2480   88.0715   88.6607 C   0  0  0  0  0  0  0  0  0  0  0  0
   74.3953   87.4275   89.0909 F   0  0  0  0  0  0  0  0  0  0  0  0
   73.5606   88.7989   87.5249 F   0  0  0  0  0  0  0  0  0  0  0  0
   72.8210   88.9396   89.6482 F   0  0  0  0  0  0  0  0  0  0  0  0
   67.6166   76.3817   90.7055 C   0  0  0  0  0  0  0  0  0  0  0  0
   66.8206   76.5358   91.8818 O   0  0  0  0  0  0  0  0  0  0  0  0
   68.1995   74.1164   94.3298 C   0  0  0  0  0  0  0  0  0  0  0  0
   68.0507   74.9483   93.2050 C   0  0  0  0  0  0  0  0  0  0  0  0
   66.9040   75.7294   93.0285 C   0  0  0  0  0  0  0  0  0  0  0  0
   65.8882   75.6844   93.9979 C   0  0  0  0  0  0  0  0  0  0  0  0
   66.0136   74.8487   95.1079 C   0  0  0  0  0  0  0  0  0  0  0  0
   67.1470   74.0461   95.2747 C   0  0  0  0  0  0  0  0  0  0  0  0
   67.1715   73.1733   96.3644 O   0  0  0  0  0  0  0  0  0  0  0  0
   66.4548   73.1570   96.9677 H   0  0  0  0  0  0  0  0  0  0  0  0
   70.2976   73.3198   93.5516 O   0  0  0  0  0  0  0  0  0  0  0  0
   69.4673   73.3732   94.4990 C   0  0  0  0  0  0  0  0  0  0  0  0
   69.7845   72.7807   95.7179 O   0  0  0  0  0  0  0  0  0  0  0  0
   69.1745   72.8148   96.4282 H   0  0  0  0  0  0  0  0  0  0  0  0
 34 35  2  0  0  0
 35 36  1  0  0  0
 35 26  1  0  0  0
 26 27  2  0  0  0
 27 28  1  0  0  0
 28 25  1  0  0  0
 25 24  1  0  0  0
 24  1  1  0  0  0
  1  2  2  0  0  0
  2  3  1  0  0  0
  3  4  2  0  0  0
  4  5  1  0  0  0
  5  7  1  0  0  0
  7  8  2  0  0  0
  8  9  1  0  0  0
  9 10  2  0  0  0
 10 11  1  0  0  0
 11 13  1  0  0  0
 13 14  1  0  0  0
 14 15  2  0  0  0
 15 16  1  0  0  0
 16 17  2  0  0  0
 17 20  1  0  0  0
 20 21  1  0  0  0
 20 22  1  0  0  0
 20 23  1  0  0  0
 17 18  1  0  0  0
 18 19  2  0  0  0
 11 12  2  0  0  0
  5  6  2  0  0  0
 28 29  2  0  0  0
 29 30  1  0  0  0
 30 31  2  0  0  0
 31 32  1  0  0  0
 31 26  1  0  0  0
  6  1  1  0  0  0
 12  7  1  0  0  0
 19 14  1  0  0  0
 36 37  1  0  0  0
 32 33  1  0  0  0
M  END
> <score>
-1.273758

> <minimizedAffinity>
-9.70209

$$$$
HIPS6990


 35 38  0  0  0  0  0  0  0  0999 V2000
   69.8797   76.7971   91.9565 C   0  0  0  0  0  0  0  0  0  0  0  0
   71.1900   76.9240   91.4623 C   0  0  0  0  0  0  0  0  0  0  0  0
   71.4786   77.8491   90.4581 C   0  0  0  0  0  0  0  0  0  0  0  0
   70.4705   78.6601   89.9403 C   0  0  0  0  0  0  0  0  0  0  0  0
   69.1567   78.5552   90.4236 C   0  0  0  0  0  0  0  0  0  0  0  0
   68.8677   77.6187   91.4297 C   0  0  0  0  0  0  0  0  0  0  0  0
   69.2141   73.5103   93.7462 C   0  0  0  0  0  0  0  0  0  0  0  0
   68.8686   73.9683   95.0194 C   0  0  0  0  0  0  0  0  0  0  0  0
   68.8955   75.3337   95.3096 C   0  0  0  0  0  0  0  0  0  0  0  0
   69.2537   76.2546   94.3255 C   0  0  0  0  0  0  0  0  0  0  0  0
   69.5713   75.8178   93.0271 C   0  0  0  0  0  0  0  0  0  0  0  0
   69.5507   74.4401   92.7446 C   0  0  0  0  0  0  0  0  0  0  0  0
   69.1535   72.1339   93.4856 O   0  0  0  0  0  0  0  0  0  0  0  0
   72.5354   69.7517   92.6609 C   0  0  0  0  0  0  0  0  0  0  0  0
   71.3696   69.5991   91.8875 C   0  0  0  0  0  0  0  0  0  0  0  0
   70.2436   70.3825   92.1536 C   0  0  0  0  0  0  0  0  0  0  0  0
   70.2554   71.3146   93.2091 C   0  0  0  0  0  0  0  0  0  0  0  0
   71.4209   71.4683   93.9703 C   0  0  0  0  0  0  0  0  0  0  0  0
   72.5485   70.6861   93.7043 C   0  0  0  0  0  0  0  0  0  0  0  0
   74.1666   68.6286   91.1286 C   0  0  0  0  0  0  0  0  0  0  0  0
   73.6985   69.0087   92.4177 O   0  0  0  0  0  0  0  0  0  0  0  0
   68.0665   79.3576   89.7763 C   0  0  0  0  0  0  0  0  0  0  0  0
   66.9889   78.5439   89.3084 O   0  0  0  0  0  0  0  0  0  0  0  0
   67.1045   77.5965   88.2833 C   0  0  0  0  0  0  0  0  0  0  0  0
   67.5141   77.9480   86.9899 C   0  0  0  0  0  0  0  0  0  0  0  0
   67.5329   76.9856   85.9787 C   0  0  0  0  0  0  0  0  0  0  0  0
   67.2044   75.6502   86.2515 C   0  0  0  0  0  0  0  0  0  0  0  0
   67.1599   74.7603   85.1757 O   0  0  0  0  0  0  0  0  0  0  0  0
   66.8972   75.2617   87.5820 C   0  0  0  0  0  0  0  0  0  0  0  0
   66.7995   76.2607   88.5735 C   0  0  0  0  0  0  0  0  0  0  0  0
   67.3703   75.0579   84.3125 H   0  0  0  0  0  0  0  0  0  0  0  0
   66.7498   73.8419   87.9911 C   0  0  0  0  0  0  0  0  0  0  0  0
   67.1199   73.4790   89.1462 O   0  0  0  0  0  0  0  0  0  0  0  0
   66.3049   72.8820   87.0818 O   0  0  0  0  0  0  0  0  0  0  0  0
   66.0289   73.1410   86.2246 H   0  0  0  0  0  0  0  0  0  0  0  0
 20 21  1  0  0  0
 21 14  1  0  0  0
 14 15  2  0  0  0
 15 16  1  0  0  0
 16 17  2  0  0  0
 17 13  1  0  0  0
 13  7  1  0  0  0
  7  8  2  0  0  0
  8  9  1  0  0  0
  9 10  2  0  0  0
 10 11  1  0  0  0
 11  1  1  0  0  0
  1  2  2  0  0  0
  2  3  1  0  0  0
  3  4  2  0  0  0
  4  5  1  0  0  0
  5 22  1  0  0  0
 22 23  1  0  0  0
 23 24  1  0  0  0
 24 25  2  0  0  0
 25 26  1  0  0  0
 26 27  2  0  0  0
 27 28  1  0  0  0
 27 29  1  0  0  0
 29 32  1  0  0  0
 32 33  2  0  0  0
 32 34  1  0  0  0
 29 30  2  0  0  0
  5  6  2  0  0  0
 11 12  2  0  0  0
 17 18  1  0  0  0
 18 19  2  0  0  0
 19 14  1  0  0  0
 12  7  1  0  0  0
  6  1  1  0  0  0
 30 24  1  0  0  0
 28 31  1  0  0  0
 34 35  1  0  0  0
M  END
> <score>
-0.524576

> <minimizedAffinity>
-9.04837

$$$$
HIPS6990


 35 38  0  0  0  0  0  0  0  0999 V2000
   69.3769   76.6148   91.5196 C   0  0  0  0  0  0  0  0  0  0  0  0
   68.4207   76.4617   90.5002 C   0  0  0  0  0  0  0  0  0  0  0  0
   68.4457   77.2923   89.3791 C   0  0  0  0  0  0  0  0  0  0  0  0
   69.4237   78.2778   89.2575 C   0  0  0  0  0  0  0  0  0  0  0  0
   70.3924   78.4438   90.2599 C   0  0  0  0  0  0  0  0  0  0  0  0
   70.3608   77.6108   91.3903 C   0  0  0  0  0  0  0  0  0  0  0  0
   69.2654   73.4899   93.6812 C   0  0  0  0  0  0  0  0  0  0  0  0
   69.1906   74.0539   94.9566 C   0  0  0  0  0  0  0  0  0  0  0  0
   69.2224   75.4402   95.1183 C   0  0  0  0  0  0  0  0  0  0  0  0
   69.3143   76.2757   94.0056 C   0  0  0  0  0  0  0  0  0  0  0  0
   69.3553   75.7301   92.7101 C   0  0  0  0  0  0  0  0  0  0  0  0
   69.3319   74.3323   92.5555 C   0  0  0  0  0  0  0  0  0  0  0  0
   69.2078   72.0945   93.5567 O   0  0  0  0  0  0  0  0  0  0  0  0
   72.5529   69.6760   92.6891 C   0  0  0  0  0  0  0  0  0  0  0  0
   71.3973   69.5797   91.8918 C   0  0  0  0  0  0  0  0  0  0  0  0
   70.2834   70.3755   92.1718 C   0  0  0  0  0  0  0  0  0  0  0  0
   70.2970   71.2637   93.2645 C   0  0  0  0  0  0  0  0  0  0  0  0
   71.4526   71.3617   94.0496 C   0  0  0  0  0  0  0  0  0  0  0  0
   72.5681   70.5670   93.7698 C   0  0  0  0  0  0  0  0  0  0  0  0
   74.7001   69.2503   91.4729 C   0  0  0  0  0  0  0  0  0  0  0  0
   73.7043   68.9187   92.4342 O   0  0  0  0  0  0  0  0  0  0  0  0
   71.3667   79.5808   90.1628 C   0  0  0  0  0  0  0  0  0  0  0  0
   70.7362   80.8571   90.2874 O   0  0  0  0  0  0  0  0  0  0  0  0
   71.1804   82.0212   89.6472 C   0  0  0  0  0  0  0  0  0  0  0  0
   72.4790   82.5171   89.8252 C   0  0  0  0  0  0  0  0  0  0  0  0
   72.8507   83.7264   89.2349 C   0  0  0  0  0  0  0  0  0  0  0  0
   71.9589   84.4280   88.4114 C   0  0  0  0  0  0  0  0  0  0  0  0
   72.3668   85.6724   87.9255 O   0  0  0  0  0  0  0  0  0  0  0  0
   70.6800   83.8775   88.1342 C   0  0  0  0  0  0  0  0  0  0  0  0
   70.2898   82.6997   88.8058 C   0  0  0  0  0  0  0  0  0  0  0  0
   73.2203   85.9993   88.1322 H   0  0  0  0  0  0  0  0  0  0  0  0
   69.7654   84.4446   87.1110 C   0  0  0  0  0  0  0  0  0  0  0  0
   68.7939   83.7540   86.6845 O   0  0  0  0  0  0  0  0  0  0  0  0
   70.0241   85.6897   86.5374 O   0  0  0  0  0  0  0  0  0  0  0  0
   70.7410   86.2081   86.8463 H   0  0  0  0  0  0  0  0  0  0  0  0
 20 21  1  0  0  0
 21 14  1  0  0  0
 14 15  2  0  0  0
 15 16  1  0  0  0
 16 17  2  0  0  0
 17 13  1  0  0  0
 13  7  1  0  0  0
  7  8  2  0  0  0
  8  9  1  0  0  0
  9 10  2  0  0  0
 10 11  1  0  0  0
 11  1  1  0  0  0
  1  2  2  0  0  0
  2  3  1  0  0  0
  3  4  2  0  0  0
  4  5  1  0  0  0
  5 22  1  0  0  0
 22 23  1  0  0  0
 23 24  1  0  0  0
 24 25  2  0  0  0
 25 26  1  0  0  0
 26 27  2  0  0  0
 27 28  1  0  0  0
 27 29  1  0  0  0
 29 32  1  0  0  0
 32 33  2  0  0  0
 32 34  1  0  0  0
 29 30  2  0  0  0
  5  6  2  0  0  0
 11 12  2  0  0  0
 17 18  1  0  0  0
 18 19  2  0  0  0
 19 14  1  0  0  0
 12  7  1  0  0  0
  6  1  1  0  0  0
 30 24  1  0  0  0
 28 31  1  0  0  0
 34 35  1  0  0  0
M  END
> <score>
-0.524576

> <minimizedAffinity>
-9.02993

$$$$
HIPS6990


 35 38  0  0  0  0  0  0  0  0999 V2000
   67.3534   78.3477   87.0060 C   0  0  0  0  0  0  0  0  0  0  0  0
   67.6861   78.1860   85.6494 C   0  0  0  0  0  0  0  0  0  0  0  0
   67.7158   76.9136   85.0771 C   0  0  0  0  0  0  0  0  0  0  0  0
   67.4096   75.7915   85.8449 C   0  0  0  0  0  0  0  0  0  0  0  0
   67.0681   75.9301   87.1995 C   0  0  0  0  0  0  0  0  0  0  0  0
   67.0455   77.2114   87.7745 C   0  0  0  0  0  0  0  0  0  0  0  0
   67.6463   82.1135   87.4324 C   0  0  0  0  0  0  0  0  0  0  0  0
   67.3678   82.2473   88.7944 C   0  0  0  0  0  0  0  0  0  0  0  0
   67.0416   81.1273   89.5614 C   0  0  0  0  0  0  0  0  0  0  0  0
   67.0054   79.8616   88.9772 C   0  0  0  0  0  0  0  0  0  0  0  0
   67.3167   79.6996   87.6154 C   0  0  0  0  0  0  0  0  0  0  0  0
   67.6356   80.8336   86.8470 C   0  0  0  0  0  0  0  0  0  0  0  0
   67.9919   83.2578   86.6996 O   0  0  0  0  0  0  0  0  0  0  0  0
   71.2897   85.7243   87.6122 C   0  0  0  0  0  0  0  0  0  0  0  0
   69.9906   86.2655   87.6212 C   0  0  0  0  0  0  0  0  0  0  0  0
   68.8917   85.4571   87.3189 C   0  0  0  0  0  0  0  0  0  0  0  0
   69.0735   84.1020   86.9817 C   0  0  0  0  0  0  0  0  0  0  0  0
   70.3675   83.5665   86.9824 C   0  0  0  0  0  0  0  0  0  0  0  0
   71.4677   84.3739   87.2859 C   0  0  0  0  0  0  0  0  0  0  0  0
   72.3982   87.7134   88.6541 C   0  0  0  0  0  0  0  0  0  0  0  0
   72.4211   86.4867   87.9329 O   0  0  0  0  0  0  0  0  0  0  0  0
   66.8510   74.7026   88.0346 C   0  0  0  0  0  0  0  0  0  0  0  0
   66.8846   74.9784   89.4364 O   0  0  0  0  0  0  0  0  0  0  0  0
   67.8671   74.4965   90.3108 C   0  0  0  0  0  0  0  0  0  0  0  0
   68.2063   73.1381   90.3707 C   0  0  0  0  0  0  0  0  0  0  0  0
   69.1304   72.6911   91.3170 C   0  0  0  0  0  0  0  0  0  0  0  0
   69.7746   73.5941   92.1745 C   0  0  0  0  0  0  0  0  0  0  0  0
   70.6206   73.0680   93.1536 O   0  0  0  0  0  0  0  0  0  0  0  0
   69.5215   74.9851   92.0458 C   0  0  0  0  0  0  0  0  0  0  0  0
   68.5233   75.4111   91.1443 C   0  0  0  0  0  0  0  0  0  0  0  0
   70.7605   72.1428   93.2040 H   0  0  0  0  0  0  0  0  0  0  0  0
   70.3146   76.0161   92.7621 C   0  0  0  0  0  0  0  0  0  0  0  0
   70.0397   76.2966   93.9657 O   0  0  0  0  0  0  0  0  0  0  0  0
   71.2917   76.7538   92.0933 O   0  0  0  0  0  0  0  0  0  0  0  0
   71.5020   76.5536   91.2024 H   0  0  0  0  0  0  0  0  0  0  0  0
 20 21  1  0  0  0
 21 14  1  0  0  0
 14 15  2  0  0  0
 15 16  1  0  0  0
 16 17  2  0  0  0
 17 13  1  0  0  0
 13  7  1  0  0  0
  7  8  2  0  0  0
  8  9  1  0  0  0
  9 10  2  0  0  0
 10 11  1  0  0  0
 11  1  1  0  0  0
  1  2  2  0  0  0
  2  3  1  0  0  0
  3  4  2  0  0  0
  4  5  1  0  0  0
  5 22  1  0  0  0
 22 23  1  0  0  0
 23 24  1  0  0  0
 24 25  2  0  0  0
 25 26  1  0  0  0
 26 27  2  0  0  0
 27 28  1  0  0  0
 27 29  1  0  0  0
 29 32  1  0  0  0
 32 33  2  0  0  0
 32 34  1  0  0  0
 29 30  2  0  0  0
  5  6  2  0  0  0
 11 12  2  0  0  0
 17 18  1  0  0  0
 18 19  2  0  0  0
 19 14  1  0  0  0
 12  7  1  0  0  0
  6  1  1  0  0  0
 30 24  1  0  0  0
 28 31  1  0  0  0
 34 35  1  0  0  0
M  END
> <score>
-0.524576

> <minimizedAffinity>
-8.91486

$$$$
HIPS6991


 34 37  0  0  0  0  0  0  0  0999 V2000
   69.3662   78.2736   90.1875 C   0  0  0  0  0  0  0  0  0  0  0  0
   70.7180   78.4618   89.8625 C   0  0  0  0  0  0  0  0  0  0  0  0
   71.7114   77.7750   90.5626 C   0  0  0  0  0  0  0  0  0  0  0  0
   71.3660   76.8909   91.5873 C   0  0  0  0  0  0  0  0  0  0  0  0
   70.0161   76.6767   91.9176 C   0  0  0  0  0  0  0  0  0  0  0  0
   69.0206   77.3678   91.2035 C   0  0  0  0  0  0  0  0  0  0  0  0
   69.6464   75.7444   93.0115 C   0  0  0  0  0  0  0  0  0  0  0  0
   69.3835   76.2294   94.3049 C   0  0  0  0  0  0  0  0  0  0  0  0
   69.0286   75.3499   95.3307 C   0  0  0  0  0  0  0  0  0  0  0  0
   68.9449   73.9786   95.0820 C   0  0  0  0  0  0  0  0  0  0  0  0
   69.2273   73.4724   93.8093 C   0  0  0  0  0  0  0  0  0  0  0  0
   69.5574   74.3613   92.7701 C   0  0  0  0  0  0  0  0  0  0  0  0
   69.1303   72.0892   93.5973 O   0  0  0  0  0  0  0  0  0  0  0  0
   70.1412   71.2783   93.0603 C   0  0  0  0  0  0  0  0  0  0  0  0
   69.8282   70.4325   91.9892 C   0  0  0  0  0  0  0  0  0  0  0  0
   70.8063   69.6009   91.4348 C   0  0  0  0  0  0  0  0  0  0  0  0
   72.1037   69.5995   91.9576 C   0  0  0  0  0  0  0  0  0  0  0  0
   73.3300   68.5559   91.2622 Cl  0  0  0  0  0  0  0  0  0  0  0  0
   72.4197   70.4263   93.0406 C   0  0  0  0  0  0  0  0  0  0  0  0
   71.4428   71.2581   93.5960 C   0  0  0  0  0  0  0  0  0  0  0  0
   68.2907   79.0213   89.4430 C   0  0  0  0  0  0  0  0  0  0  0  0
   67.1781   78.1700   89.1629 O   0  0  0  0  0  0  0  0  0  0  0  0
   66.9219   74.8652   87.4112 C   0  0  0  0  0  0  0  0  0  0  0  0
   66.9418   75.8213   88.4437 C   0  0  0  0  0  0  0  0  0  0  0  0
   67.1404   77.1857   88.1612 C   0  0  0  0  0  0  0  0  0  0  0  0
   67.3040   77.5893   86.8345 C   0  0  0  0  0  0  0  0  0  0  0  0
   67.3025   76.6507   85.8028 C   0  0  0  0  0  0  0  0  0  0  0  0
   67.1377   75.2891   86.0773 C   0  0  0  0  0  0  0  0  0  0  0  0
   67.2305   74.3939   85.0096 O   0  0  0  0  0  0  0  0  0  0  0  0
   67.3740   74.7141   84.1408 H   0  0  0  0  0  0  0  0  0  0  0  0
   66.7041   73.0751   88.9576 O   0  0  0  0  0  0  0  0  0  0  0  0
   66.6395   73.4547   87.7570 C   0  0  0  0  0  0  0  0  0  0  0  0
   66.2434   72.5503   86.7760 O   0  0  0  0  0  0  0  0  0  0  0  0
   66.1922   72.8227   85.8809 H   0  0  0  0  0  0  0  0  0  0  0  0
 31 32  2  0  0  0
 32 33  1  0  0  0
 32 23  1  0  0  0
 23 24  2  0  0  0
 24 25  1  0  0  0
 25 22  1  0  0  0
 22 21  1  0  0  0
 21  1  1  0  0  0
  1  2  2  0  0  0
  2  3  1  0  0  0
  3  4  2  0  0  0
  4  5  1  0  0  0
  5  7  1  0  0  0
  7  8  2  0  0  0
  8  9  1  0  0  0
  9 10  2  0  0  0
 10 11  1  0  0  0
 11 13  1  0  0  0
 13 14  1  0  0  0
 14 15  2  0  0  0
 15 16  1  0  0  0
 16 17  2  0  0  0
 17 18  1  0  0  0
 17 19  1  0  0  0
 19 20  2  0  0  0
 11 12  2  0  0  0
  5  6  2  0  0  0
 25 26  2  0  0  0
 26 27  1  0  0  0
 27 28  2  0  0  0
 28 29  1  0  0  0
 28 23  1  0  0  0
  6  1  1  0  0  0
 12  7  1  0  0  0
 20 14  1  0  0  0
 33 34  1  0  0  0
 29 30  1  0  0  0
M  END
> <score>
-1.070214

> <minimizedAffinity>
-9.34276

$$$$
HIPS6991


 34 37  0  0  0  0  0  0  0  0999 V2000
   69.7814   78.5906   90.2865 C   0  0  0  0  0  0  0  0  0  0  0  0
   71.1343   78.5609   89.9159 C   0  0  0  0  0  0  0  0  0  0  0  0
   72.0131   77.6703   90.5349 C   0  0  0  0  0  0  0  0  0  0  0  0
   71.5503   76.7982   91.5229 C   0  0  0  0  0  0  0  0  0  0  0  0
   70.1949   76.8018   91.8972 C   0  0  0  0  0  0  0  0  0  0  0  0
   69.3143   77.6979   91.2646 C   0  0  0  0  0  0  0  0  0  0  0  0
   69.7019   75.8823   92.9527 C   0  0  0  0  0  0  0  0  0  0  0  0
   69.3794   76.3703   94.2315 C   0  0  0  0  0  0  0  0  0  0  0  0
   68.9086   75.5034   95.2206 C   0  0  0  0  0  0  0  0  0  0  0  0
   68.7669   74.1409   94.9504 C   0  0  0  0  0  0  0  0  0  0  0  0
   69.1062   73.6305   93.6934 C   0  0  0  0  0  0  0  0  0  0  0  0
   69.5537   74.5083   92.6893 C   0  0  0  0  0  0  0  0  0  0  0  0
   68.9481   72.2566   93.4587 O   0  0  0  0  0  0  0  0  0  0  0  0
   69.9557   71.3892   93.0113 C   0  0  0  0  0  0  0  0  0  0  0  0
   71.2046   71.4250   93.6435 C   0  0  0  0  0  0  0  0  0  0  0  0
   72.2375   70.5837   93.2179 C   0  0  0  0  0  0  0  0  0  0  0  0
   72.0324   69.7085   92.1463 C   0  0  0  0  0  0  0  0  0  0  0  0
   73.3284   68.6540   91.6127 Cl  0  0  0  0  0  0  0  0  0  0  0  0
   70.7944   69.6809   91.4960 C   0  0  0  0  0  0  0  0  0  0  0  0
   69.7608   70.5215   91.9202 C   0  0  0  0  0  0  0  0  0  0  0  0
   68.8311   79.5581   89.6300 C   0  0  0  0  0  0  0  0  0  0  0  0
   68.9980   80.8749   90.1584 O   0  0  0  0  0  0  0  0  0  0  0  0
   70.0265   83.7249   87.9504 C   0  0  0  0  0  0  0  0  0  0  0  0
   69.2377   82.7143   88.5309 C   0  0  0  0  0  0  0  0  0  0  0  0
   69.7480   81.9013   89.5602 C   0  0  0  0  0  0  0  0  0  0  0  0
   71.0501   82.1170   90.0159 C   0  0  0  0  0  0  0  0  0  0  0  0
   71.8485   83.1043   89.4387 C   0  0  0  0  0  0  0  0  0  0  0  0
   71.3607   83.8957   88.3937 C   0  0  0  0  0  0  0  0  0  0  0  0
   72.2381   84.8078   87.8035 O   0  0  0  0  0  0  0  0  0  0  0  0
   73.1139   84.8913   88.1260 H   0  0  0  0  0  0  0  0  0  0  0  0
   68.1784   84.8286   86.9457 O   0  0  0  0  0  0  0  0  0  0  0  0
   69.4174   84.5959   86.9213 C   0  0  0  0  0  0  0  0  0  0  0  0
   70.2084   85.2127   85.9565 O   0  0  0  0  0  0  0  0  0  0  0  0
   71.1302   85.0463   85.9300 H   0  0  0  0  0  0  0  0  0  0  0  0
 31 32  2  0  0  0
 32 33  1  0  0  0
 32 23  1  0  0  0
 23 24  2  0  0  0
 24 25  1  0  0  0
 25 22  1  0  0  0
 22 21  1  0  0  0
 21  1  1  0  0  0
  1  2  2  0  0  0
  2  3  1  0  0  0
  3  4  2  0  0  0
  4  5  1  0  0  0
  5  7  1  0  0  0
  7  8  2  0  0  0
  8  9  1  0  0  0
  9 10  2  0  0  0
 10 11  1  0  0  0
 11 13  1  0  0  0
 13 14  1  0  0  0
 14 15  2  0  0  0
 15 16  1  0  0  0
 16 17  2  0  0  0
 17 18  1  0  0  0
 17 19  1  0  0  0
 19 20  2  0  0  0
 11 12  2  0  0  0
  5  6  2  0  0  0
 25 26  2  0  0  0
 26 27  1  0  0  0
 27 28  2  0  0  0
 28 29  1  0  0  0
 28 23  1  0  0  0
  6  1  1  0  0  0
 12  7  1  0  0  0
 20 14  1  0  0  0
 33 34  1  0  0  0
 29 30  1  0  0  0
M  END
> <score>
-1.070214

> <minimizedAffinity>
-9.30366

$$$$
HIPS6991


 34 37  0  0  0  0  0  0  0  0999 V2000
   69.7172   76.5643   91.9585 C   0  0  0  0  0  0  0  0  0  0  0  0
   71.1104   76.6933   91.8544 C   0  0  0  0  0  0  0  0  0  0  0  0
   71.6671   77.5823   90.9334 C   0  0  0  0  0  0  0  0  0  0  0  0
   70.8407   78.3543   90.1135 C   0  0  0  0  0  0  0  0  0  0  0  0
   69.4420   78.2510   90.2135 C   0  0  0  0  0  0  0  0  0  0  0  0
   68.8885   77.3574   91.1483 C   0  0  0  0  0  0  0  0  0  0  0  0
   68.5614   79.0636   89.3378 C   0  0  0  0  0  0  0  0  0  0  0  0
   67.7016   78.4419   88.4151 C   0  0  0  0  0  0  0  0  0  0  0  0
   66.8687   79.2094   87.5974 C   0  0  0  0  0  0  0  0  0  0  0  0
   66.8933   80.6029   87.6810 C   0  0  0  0  0  0  0  0  0  0  0  0
   67.7593   81.2423   88.5737 C   0  0  0  0  0  0  0  0  0  0  0  0
   68.5776   80.4682   89.4164 C   0  0  0  0  0  0  0  0  0  0  0  0
   67.7540   82.6439   88.6309 O   0  0  0  0  0  0  0  0  0  0  0  0
   68.8653   83.4690   88.4024 C   0  0  0  0  0  0  0  0  0  0  0  0
   69.0585   84.5824   89.2293 C   0  0  0  0  0  0  0  0  0  0  0  0
   70.1482   85.4349   89.0251 C   0  0  0  0  0  0  0  0  0  0  0  0
   71.0466   85.1868   87.9821 C   0  0  0  0  0  0  0  0  0  0  0  0
   72.4128   86.2566   87.7262 Cl  0  0  0  0  0  0  0  0  0  0  0  0
   70.8495   84.0885   87.1388 C   0  0  0  0  0  0  0  0  0  0  0  0
   69.7605   83.2354   87.3416 C   0  0  0  0  0  0  0  0  0  0  0  0
   69.1114   75.5976   92.9426 C   0  0  0  0  0  0  0  0  0  0  0  0
   70.0622   74.6062   93.3350 O   0  0  0  0  0  0  0  0  0  0  0  0
   70.4702   70.8799   93.3984 C   0  0  0  0  0  0  0  0  0  0  0  0
   70.5273   72.2277   93.7995 C   0  0  0  0  0  0  0  0  0  0  0  0
   70.0148   73.2485   92.9772 C   0  0  0  0  0  0  0  0  0  0  0  0
   69.4300   72.9093   91.7555 C   0  0  0  0  0  0  0  0  0  0  0  0
   69.3810   71.5792   91.3382 C   0  0  0  0  0  0  0  0  0  0  0  0
   69.9165   70.5616   92.1343 C   0  0  0  0  0  0  0  0  0  0  0  0
   69.9114   69.2628   91.6213 O   0  0  0  0  0  0  0  0  0  0  0  0
   69.5351   69.0928   90.7802 H   0  0  0  0  0  0  0  0  0  0  0  0
   70.6188   69.8735   95.5450 O   0  0  0  0  0  0  0  0  0  0  0  0
   70.9598   69.8416   94.3316 C   0  0  0  0  0  0  0  0  0  0  0  0
   71.7482   68.7907   93.8720 O   0  0  0  0  0  0  0  0  0  0  0  0
   72.0069   68.7579   92.9720 H   0  0  0  0  0  0  0  0  0  0  0  0
 31 32  2  0  0  0
 32 33  1  0  0  0
 32 23  1  0  0  0
 23 24  2  0  0  0
 24 25  1  0  0  0
 25 22  1  0  0  0
 22 21  1  0  0  0
 21  1  1  0  0  0
  1  2  2  0  0  0
  2  3  1  0  0  0
  3  4  2  0  0  0
  4  5  1  0  0  0
  5  7  1  0  0  0
  7  8  2  0  0  0
  8  9  1  0  0  0
  9 10  2  0  0  0
 10 11  1  0  0  0
 11 13  1  0  0  0
 13 14  1  0  0  0
 14 15  2  0  0  0
 15 16  1  0  0  0
 16 17  2  0  0  0
 17 18  1  0  0  0
 17 19  1  0  0  0
 19 20  2  0  0  0
 11 12  2  0  0  0
  5  6  2  0  0  0
 25 26  2  0  0  0
 26 27  1  0  0  0
 27 28  2  0  0  0
 28 29  1  0  0  0
 28 23  1  0  0  0
  6  1  1  0  0  0
 12  7  1  0  0  0
 20 14  1  0  0  0
 33 34  1  0  0  0
 29 30  1  0  0  0
M  END
> <score>
-1.070214

> <minimizedAffinity>
-9.28105

$$$$
HIPS6992


 35 38  0  0  0  0  0  0  0  0999 V2000
   69.1091   79.8886   90.2322 C   0  0  0  0  0  0  0  0  0  0  0  0
   70.4984   79.6823   90.1989 C   0  0  0  0  0  0  0  0  0  0  0  0
   71.0232   78.3951   90.3218 C   0  0  0  0  0  0  0  0  0  0  0  0
   70.1706   77.3027   90.4876 C   0  0  0  0  0  0  0  0  0  0  0  0
   68.7800   77.4844   90.5265 C   0  0  0  0  0  0  0  0  0  0  0  0
   68.2539   78.7810   90.3722 C   0  0  0  0  0  0  0  0  0  0  0  0
   68.4383   83.4365   89.0520 C   0  0  0  0  0  0  0  0  0  0  0  0
   67.4423   83.8309   89.9513 C   0  0  0  0  0  0  0  0  0  0  0  0
   67.0115   82.9607   90.9548 C   0  0  0  0  0  0  0  0  0  0  0  0
   67.5618   81.6811   91.0579 C   0  0  0  0  0  0  0  0  0  0  0  0
   68.5543   81.2606   90.1560 C   0  0  0  0  0  0  0  0  0  0  0  0
   68.9889   82.1462   89.1532 C   0  0  0  0  0  0  0  0  0  0  0  0
   68.8167   84.3253   88.0358 O   0  0  0  0  0  0  0  0  0  0  0  0
   72.1768   86.8554   88.2180 C   0  0  0  0  0  0  0  0  0  0  0  0
   72.3459   85.5098   87.8676 C   0  0  0  0  0  0  0  0  0  0  0  0
   71.2374   84.6615   87.7867 C   0  0  0  0  0  0  0  0  0  0  0  0
   69.9476   85.1541   88.0575 C   0  0  0  0  0  0  0  0  0  0  0  0
   69.7877   86.4982   88.4146 C   0  0  0  0  0  0  0  0  0  0  0  0
   70.8948   87.3488   88.4871 C   0  0  0  0  0  0  0  0  0  0  0  0
   74.2356   88.4281   88.3909 N   0  0  0  0  0  0  0  0  0  0  0  0
   73.3179   87.7273   88.3136 C   0  0  0  0  0  0  0  0  0  0  0  0
   67.8964   76.2713   90.7021 C   0  0  0  0  0  0  0  0  0  0  0  0
   67.0302   76.3628   91.8352 O   0  0  0  0  0  0  0  0  0  0  0  0
   67.0904   75.5481   92.9780 C   0  0  0  0  0  0  0  0  0  0  0  0
   65.9877   75.5358   93.8335 C   0  0  0  0  0  0  0  0  0  0  0  0
   65.9910   74.7456   94.9814 C   0  0  0  0  0  0  0  0  0  0  0  0
   67.1088   73.9742   95.3143 C   0  0  0  0  0  0  0  0  0  0  0  0
   67.0278   73.1705   96.4534 O   0  0  0  0  0  0  0  0  0  0  0  0
   68.2546   74.0074   94.4809 C   0  0  0  0  0  0  0  0  0  0  0  0
   68.2165   74.7669   93.2974 C   0  0  0  0  0  0  0  0  0  0  0  0
   66.2514   73.1779   96.9778 H   0  0  0  0  0  0  0  0  0  0  0  0
   69.5094   73.3027   94.8219 C   0  0  0  0  0  0  0  0  0  0  0  0
   70.4544   73.2328   93.9914 O   0  0  0  0  0  0  0  0  0  0  0  0
   69.6285   72.6546   96.0483 O   0  0  0  0  0  0  0  0  0  0  0  0
   68.9311   72.7009   96.6723 H   0  0  0  0  0  0  0  0  0  0  0  0
 20 21  3  0  0  0
 21 14  1  0  0  0
 14 15  2  0  0  0
 15 16  1  0  0  0
 16 17  2  0  0  0
 17 13  1  0  0  0
 13  7  1  0  0  0
  7  8  2  0  0  0
  8  9  1  0  0  0
  9 10  2  0  0  0
 10 11  1  0  0  0
 11  1  1  0  0  0
  1  2  2  0  0  0
  2  3  1  0  0  0
  3  4  2  0  0  0
  4  5  1  0  0  0
  5 22  1  0  0  0
 22 23  1  0  0  0
 23 24  1  0  0  0
 24 25  2  0  0  0
 25 26  1  0  0  0
 26 27  2  0  0  0
 27 28  1  0  0  0
 27 29  1  0  0  0
 29 32  1  0  0  0
 32 33  2  0  0  0
 32 34  1  0  0  0
 29 30  2  0  0  0
  5  6  2  0  0  0
 11 12  2  0  0  0
 17 18  1  0  0  0
 18 19  2  0  0  0
 19 14  1  0  0  0
 12  7  1  0  0  0
  6  1  1  0  0  0
 30 24  1  0  0  0
 28 31  1  0  0  0
 34 35  1  0  0  0
M  END
> <score>
-0.960538

> <minimizedAffinity>
-9.02722

$$$$
HIPS6992


 35 38  0  0  0  0  0  0  0  0999 V2000
   67.7344   74.9972   89.4765 C   0  0  0  0  0  0  0  0  0  0  0  0
   67.0543   73.8786   88.9667 C   0  0  0  0  0  0  0  0  0  0  0  0
   67.3384   72.6003   89.4493 C   0  0  0  0  0  0  0  0  0  0  0  0
   68.3081   72.4229   90.4373 C   0  0  0  0  0  0  0  0  0  0  0  0
   69.0021   73.5246   90.9597 C   0  0  0  0  0  0  0  0  0  0  0  0
   68.6910   74.8153   90.4912 C   0  0  0  0  0  0  0  0  0  0  0  0
   67.4429   78.7747   89.2013 C   0  0  0  0  0  0  0  0  0  0  0  0
   67.0608   78.9141   87.8631 C   0  0  0  0  0  0  0  0  0  0  0  0
   66.8695   77.7867   87.0618 C   0  0  0  0  0  0  0  0  0  0  0  0
   67.0745   76.5091   87.5877 C   0  0  0  0  0  0  0  0  0  0  0  0
   67.4714   76.3478   88.9262 C   0  0  0  0  0  0  0  0  0  0  0  0
   67.6538   77.4882   89.7292 C   0  0  0  0  0  0  0  0  0  0  0  0
   67.6611   79.9321   89.9622 O   0  0  0  0  0  0  0  0  0  0  0  0
   71.1421   82.2858   89.7010 C   0  0  0  0  0  0  0  0  0  0  0  0
   69.9053   82.8444   89.3542 C   0  0  0  0  0  0  0  0  0  0  0  0
   68.7386   82.0800   89.4517 C   0  0  0  0  0  0  0  0  0  0  0  0
   68.8005   80.7470   89.8973 C   0  0  0  0  0  0  0  0  0  0  0  0
   70.0414   80.1935   90.2347 C   0  0  0  0  0  0  0  0  0  0  0  0
   71.2070   80.9601   90.1456 C   0  0  0  0  0  0  0  0  0  0  0  0
   73.3138   83.6948   89.5001 N   0  0  0  0  0  0  0  0  0  0  0  0
   72.3457   83.0670   89.5898 C   0  0  0  0  0  0  0  0  0  0  0  0
   70.0391   73.2843   92.0321 C   0  0  0  0  0  0  0  0  0  0  0  0
   69.9773   74.2321   93.1000 O   0  0  0  0  0  0  0  0  0  0  0  0
   68.8031   74.6841   93.7248 C   0  0  0  0  0  0  0  0  0  0  0  0
   68.1619   73.8234   94.6171 C   0  0  0  0  0  0  0  0  0  0  0  0
   66.9943   74.2190   95.2670 C   0  0  0  0  0  0  0  0  0  0  0  0
   66.4263   75.4717   95.0156 C   0  0  0  0  0  0  0  0  0  0  0  0
   65.2819   75.8225   95.7348 O   0  0  0  0  0  0  0  0  0  0  0  0
   67.0389   76.3422   94.0799 C   0  0  0  0  0  0  0  0  0  0  0  0
   68.2463   75.9517   93.4728 C   0  0  0  0  0  0  0  0  0  0  0  0
   64.9078   75.2172   96.3445 H   0  0  0  0  0  0  0  0  0  0  0  0
   66.4415   77.6361   93.6846 C   0  0  0  0  0  0  0  0  0  0  0  0
   65.2737   77.9426   94.0450 O   0  0  0  0  0  0  0  0  0  0  0  0
   67.1489   78.5006   92.8537 O   0  0  0  0  0  0  0  0  0  0  0  0
   68.0179   78.2813   92.5804 H   0  0  0  0  0  0  0  0  0  0  0  0
 20 21  3  0  0  0
 21 14  1  0  0  0
 14 15  2  0  0  0
 15 16  1  0  0  0
 16 17  2  0  0  0
 17 13  1  0  0  0
 13  7  1  0  0  0
  7  8  2  0  0  0
  8  9  1  0  0  0
  9 10  2  0  0  0
 10 11  1  0  0  0
 11  1  1  0  0  0
  1  2  2  0  0  0
  2  3  1  0  0  0
  3  4  2  0  0  0
  4  5  1  0  0  0
  5 22  1  0  0  0
 22 23  1  0  0  0
 23 24  1  0  0  0
 24 25  2  0  0  0
 25 26  1  0  0  0
 26 27  2  0  0  0
 27 28  1  0  0  0
 27 29  1  0  0  0
 29 32  1  0  0  0
 32 33  2  0  0  0
 32 34  1  0  0  0
 29 30  2  0  0  0
  5  6  2  0  0  0
 11 12  2  0  0  0
 17 18  1  0  0  0
 18 19  2  0  0  0
 19 14  1  0  0  0
 12  7  1  0  0  0
  6  1  1  0  0  0
 30 24  1  0  0  0
 28 31  1  0  0  0
 34 35  1  0  0  0
M  END
> <score>
-0.960538

> <minimizedAffinity>
-9.00685

$$$$
HIPS6992


 35 38  0  0  0  0  0  0  0  0999 V2000
   68.5504   78.5208   89.1199 C   0  0  0  0  0  0  0  0  0  0  0  0
   67.8657   77.7019   88.2063 C   0  0  0  0  0  0  0  0  0  0  0  0
   66.9509   78.2567   87.3103 C   0  0  0  0  0  0  0  0  0  0  0  0
   66.7027   79.6300   87.3212 C   0  0  0  0  0  0  0  0  0  0  0  0
   67.3724   80.4673   88.2260 C   0  0  0  0  0  0  0  0  0  0  0  0
   68.3164   79.9075   89.1078 C   0  0  0  0  0  0  0  0  0  0  0  0
   69.9044   76.3757   91.9475 C   0  0  0  0  0  0  0  0  0  0  0  0
   71.2580   76.7269   91.9215 C   0  0  0  0  0  0  0  0  0  0  0  0
   71.7241   77.6773   91.0108 C   0  0  0  0  0  0  0  0  0  0  0  0
   70.8427   78.2737   90.1063 C   0  0  0  0  0  0  0  0  0  0  0  0
   69.4812   77.9251   90.1071 C   0  0  0  0  0  0  0  0  0  0  0  0
   69.0180   76.9731   91.0333 C   0  0  0  0  0  0  0  0  0  0  0  0
   69.4828   75.3902   92.8513 O   0  0  0  0  0  0  0  0  0  0  0  0
   69.6935   71.2151   92.3522 C   0  0  0  0  0  0  0  0  0  0  0  0
   69.2739   72.0164   91.2827 C   0  0  0  0  0  0  0  0  0  0  0  0
   69.2148   73.4057   91.4283 C   0  0  0  0  0  0  0  0  0  0  0  0
   69.5752   74.0057   92.6488 C   0  0  0  0  0  0  0  0  0  0  0  0
   69.9862   73.1975   93.7154 C   0  0  0  0  0  0  0  0  0  0  0  0
   70.0537   71.8090   93.5674 C   0  0  0  0  0  0  0  0  0  0  0  0
   69.7832   68.6332   92.0921 N   0  0  0  0  0  0  0  0  0  0  0  0
   69.7435   69.7839   92.2082 C   0  0  0  0  0  0  0  0  0  0  0  0
   67.0754   81.9486   88.1970 C   0  0  0  0  0  0  0  0  0  0  0  0
   67.7981   82.6498   87.1828 O   0  0  0  0  0  0  0  0  0  0  0  0
   68.9202   83.4676   87.3960 C   0  0  0  0  0  0  0  0  0  0  0  0
   69.0335   84.6356   86.6403 C   0  0  0  0  0  0  0  0  0  0  0  0
   70.1247   85.4857   86.8103 C   0  0  0  0  0  0  0  0  0  0  0  0
   71.1410   85.1707   87.7176 C   0  0  0  0  0  0  0  0  0  0  0  0
   72.1821   86.0886   87.8716 O   0  0  0  0  0  0  0  0  0  0  0  0
   71.0653   83.9673   88.4622 C   0  0  0  0  0  0  0  0  0  0  0  0
   69.9317   83.1465   88.3202 C   0  0  0  0  0  0  0  0  0  0  0  0
   72.1947   86.8730   87.3592 H   0  0  0  0  0  0  0  0  0  0  0  0
   72.1497   83.5161   89.3610 C   0  0  0  0  0  0  0  0  0  0  0  0
   73.3523   83.7955   89.1093 O   0  0  0  0  0  0  0  0  0  0  0  0
   71.8496   82.7211   90.4638 O   0  0  0  0  0  0  0  0  0  0  0  0
   70.9583   82.5079   90.6590 H   0  0  0  0  0  0  0  0  0  0  0  0
 20 21  3  0  0  0
 21 14  1  0  0  0
 14 15  2  0  0  0
 15 16  1  0  0  0
 16 17  2  0  0  0
 17 13  1  0  0  0
 13  7  1  0  0  0
  7  8  2  0  0  0
  8  9  1  0  0  0
  9 10  2  0  0  0
 10 11  1  0  0  0
 11  1  1  0  0  0
  1  2  2  0  0  0
  2  3  1  0  0  0
  3  4  2  0  0  0
  4  5  1  0  0  0
  5 22  1  0  0  0
 22 23  1  0  0  0
 23 24  1  0  0  0
 24 25  2  0  0  0
 25 26  1  0  0  0
 26 27  2  0  0  0
 27 28  1  0  0  0
 27 29  1  0  0  0
 29 32  1  0  0  0
 32 33  2  0  0  0
 32 34  1  0  0  0
 29 30  2  0  0  0
  5  6  2  0  0  0
 11 12  2  0  0  0
 17 18  1  0  0  0
 18 19  2  0  0  0
 19 14  1  0  0  0
 12  7  1  0  0  0
  6  1  1  0  0  0
 30 24  1  0  0  0
 28 31  1  0  0  0
 34 35  1  0  0  0
M  END
> <score>
-0.960538

> <minimizedAffinity>
-8.99733

$$$$
HIPS6993


 36 39  0  0  0  0  0  0  0  0999 V2000
   67.6201   78.2685   88.8586 C   0  0  0  0  0  0  0  0  0  0  0  0
   66.9438   78.8187   87.7570 C   0  0  0  0  0  0  0  0  0  0  0  0
   66.9628   80.1977   87.5350 C   0  0  0  0  0  0  0  0  0  0  0  0
   67.6758   81.0371   88.3938 C   0  0  0  0  0  0  0  0  0  0  0  0
   68.3708   80.5023   89.4887 C   0  0  0  0  0  0  0  0  0  0  0  0
   68.3161   79.1202   89.7323 C   0  0  0  0  0  0  0  0  0  0  0  0
   68.3623   74.8718   90.3780 C   0  0  0  0  0  0  0  0  0  0  0  0
   67.6593   74.0309   89.5090 C   0  0  0  0  0  0  0  0  0  0  0  0
   66.9332   74.5671   88.4426 C   0  0  0  0  0  0  0  0  0  0  0  0
   66.9145   75.9479   88.2296 C   0  0  0  0  0  0  0  0  0  0  0  0
   67.6446   76.8041   89.0706 C   0  0  0  0  0  0  0  0  0  0  0  0
   68.3771   76.2570   90.1374 C   0  0  0  0  0  0  0  0  0  0  0  0
   69.0618   74.3050   91.4531 O   0  0  0  0  0  0  0  0  0  0  0  0
   67.0453   73.4283   96.6536 N   0  0  0  0  0  0  0  0  0  0  0  0
   67.5458   73.6520   95.3329 C   0  0  0  0  0  0  0  0  0  0  0  0
   66.6603   73.9069   94.2767 C   0  0  0  0  0  0  0  0  0  0  0  0
   67.1499   74.1250   92.9857 C   0  0  0  0  0  0  0  0  0  0  0  0
   68.5350   74.1024   92.7379 C   0  0  0  0  0  0  0  0  0  0  0  0
   69.4141   73.8274   93.7917 C   0  0  0  0  0  0  0  0  0  0  0  0
   68.9249   73.6100   95.0836 C   0  0  0  0  0  0  0  0  0  0  0  0
   66.0762   73.4587   96.8245 H   0  0  0  0  0  0  0  0  0  0  0  0
   67.6698   73.2439   97.3920 H   0  0  0  0  0  0  0  0  0  0  0  0
   69.2098   81.4013   90.3590 C   0  0  0  0  0  0  0  0  0  0  0  0
   70.5253   81.5402   89.8178 O   0  0  0  0  0  0  0  0  0  0  0  0
   71.0527   82.7159   89.2565 C   0  0  0  0  0  0  0  0  0  0  0  0
   72.3955   83.0162   89.4931 C   0  0  0  0  0  0  0  0  0  0  0  0
   72.9550   84.1954   89.0005 C   0  0  0  0  0  0  0  0  0  0  0  0
   72.1822   85.0996   88.2640 C   0  0  0  0  0  0  0  0  0  0  0  0
   72.7804   86.3020   87.8800 O   0  0  0  0  0  0  0  0  0  0  0  0
   70.8323   84.7859   87.9665 C   0  0  0  0  0  0  0  0  0  0  0  0
   70.2821   83.5952   88.4738 C   0  0  0  0  0  0  0  0  0  0  0  0
   73.6764   86.4698   88.0970 H   0  0  0  0  0  0  0  0  0  0  0  0
   69.9755   85.6470   87.1208 C   0  0  0  0  0  0  0  0  0  0  0  0
   69.5629   86.7603   87.5421 O   0  0  0  0  0  0  0  0  0  0  0  0
   69.6700   85.2541   85.8203 O   0  0  0  0  0  0  0  0  0  0  0  0
   69.9721   84.4280   85.4973 H   0  0  0  0  0  0  0  0  0  0  0  0
 14 15  1  0  0  0
 15 16  2  0  0  0
 16 17  1  0  0  0
 17 18  2  0  0  0
 18 13  1  0  0  0
 13  7  1  0  0  0
  7  8  2  0  0  0
  8  9  1  0  0  0
  9 10  2  0  0  0
 10 11  1  0  0  0
 11  1  1  0  0  0
  1  2  2  0  0  0
  2  3  1  0  0  0
  3  4  2  0  0  0
  4  5  1  0  0  0
  5 23  1  0  0  0
 23 24  1  0  0  0
 24 25  1  0  0  0
 25 26  2  0  0  0
 26 27  1  0  0  0
 27 28  2  0  0  0
 28 29  1  0  0  0
 28 30  1  0  0  0
 30 33  1  0  0  0
 33 34  2  0  0  0
 33 35  1  0  0  0
 30 31  2  0  0  0
  5  6  2  0  0  0
 11 12  2  0  0  0
 18 19  1  0  0  0
 19 20  2  0  0  0
 20 15  1  0  0  0
 12  7  1  0  0  0
  6  1  1  0  0  0
 31 25  1  0  0  0
 14 21  1  0  0  0
 14 22  1  0  0  0
 29 32  1  0  0  0
 35 36  1  0  0  0
M  END
> <score>
-0.223454

> <minimizedAffinity>
-9.48172

$$$$
HIPS6993


 36 39  0  0  0  0  0  0  0  0999 V2000
   68.6502   78.5024   89.1789 C   0  0  0  0  0  0  0  0  0  0  0  0
   67.9576   77.6188   88.3344 C   0  0  0  0  0  0  0  0  0  0  0  0
   66.9633   78.0964   87.4773 C   0  0  0  0  0  0  0  0  0  0  0  0
   66.6678   79.4608   87.4365 C   0  0  0  0  0  0  0  0  0  0  0  0
   67.3617   80.3591   88.2607 C   0  0  0  0  0  0  0  0  0  0  0  0
   68.3324   79.8704   89.1505 C   0  0  0  0  0  0  0  0  0  0  0  0
   70.5333   76.4635   91.7662 C   0  0  0  0  0  0  0  0  0  0  0  0
   71.8070   77.0355   91.6818 C   0  0  0  0  0  0  0  0  0  0  0  0
   72.0572   78.0691   90.7757 C   0  0  0  0  0  0  0  0  0  0  0  0
   71.0322   78.5472   89.9552 C   0  0  0  0  0  0  0  0  0  0  0  0
   69.7381   78.0094   90.0527 C   0  0  0  0  0  0  0  0  0  0  0  0
   69.4928   76.9743   90.9704 C   0  0  0  0  0  0  0  0  0  0  0  0
   70.3201   75.4116   92.6686 O   0  0  0  0  0  0  0  0  0  0  0  0
   65.2935   73.8272   94.6940 N   0  0  0  0  0  0  0  0  0  0  0  0
   66.5662   74.2203   94.1737 C   0  0  0  0  0  0  0  0  0  0  0  0
   67.1666   73.4813   93.1451 C   0  0  0  0  0  0  0  0  0  0  0  0
   68.4109   73.8656   92.6373 C   0  0  0  0  0  0  0  0  0  0  0  0
   69.0652   75.0031   93.1455 C   0  0  0  0  0  0  0  0  0  0  0  0
   68.4712   75.7260   94.1864 C   0  0  0  0  0  0  0  0  0  0  0  0
   67.2260   75.3425   94.6943 C   0  0  0  0  0  0  0  0  0  0  0  0
   64.8334   73.0386   94.3257 H   0  0  0  0  0  0  0  0  0  0  0  0
   64.8774   74.3453   95.4204 H   0  0  0  0  0  0  0  0  0  0  0  0
   67.1008   81.8385   88.1483 C   0  0  0  0  0  0  0  0  0  0  0  0
   67.9252   82.4190   87.1352 O   0  0  0  0  0  0  0  0  0  0  0  0
   68.9861   83.3120   87.3644 C   0  0  0  0  0  0  0  0  0  0  0  0
   68.9518   84.5552   86.7298 C   0  0  0  0  0  0  0  0  0  0  0  0
   70.0035   85.4585   86.8842 C   0  0  0  0  0  0  0  0  0  0  0  0
   71.1124   85.1357   87.6739 C   0  0  0  0  0  0  0  0  0  0  0  0
   72.1699   86.0475   87.7112 O   0  0  0  0  0  0  0  0  0  0  0  0
   71.1397   83.9014   88.3702 C   0  0  0  0  0  0  0  0  0  0  0  0
   70.0736   83.0001   88.2008 C   0  0  0  0  0  0  0  0  0  0  0  0
   72.1112   86.8528   87.2359 H   0  0  0  0  0  0  0  0  0  0  0  0
   72.2341   83.5241   89.2928 C   0  0  0  0  0  0  0  0  0  0  0  0
   73.3517   84.1031   89.2400 O   0  0  0  0  0  0  0  0  0  0  0  0
   72.0105   82.5610   90.2732 O   0  0  0  0  0  0  0  0  0  0  0  0
   71.1827   82.1245   90.3211 H   0  0  0  0  0  0  0  0  0  0  0  0
 14 15  1  0  0  0
 15 16  2  0  0  0
 16 17  1  0  0  0
 17 18  2  0  0  0
 18 13  1  0  0  0
 13  7  1  0  0  0
  7  8  2  0  0  0
  8  9  1  0  0  0
  9 10  2  0  0  0
 10 11  1  0  0  0
 11  1  1  0  0  0
  1  2  2  0  0  0
  2  3  1  0  0  0
  3  4  2  0  0  0
  4  5  1  0  0  0
  5 23  1  0  0  0
 23 24  1  0  0  0
 24 25  1  0  0  0
 25 26  2  0  0  0
 26 27  1  0  0  0
 27 28  2  0  0  0
 28 29  1  0  0  0
 28 30  1  0  0  0
 30 33  1  0  0  0
 33 34  2  0  0  0
 33 35  1  0  0  0
 30 31  2  0  0  0
  5  6  2  0  0  0
 11 12  2  0  0  0
 18 19  1  0  0  0
 19 20  2  0  0  0
 20 15  1  0  0  0
 12  7  1  0  0  0
  6  1  1  0  0  0
 31 25  1  0  0  0
 14 21  1  0  0  0
 14 22  1  0  0  0
 29 32  1  0  0  0
 35 36  1  0  0  0
M  END
> <score>
-0.223454

> <minimizedAffinity>
-9.45020

$$$$
HIPS6993


 36 39  0  0  0  0  0  0  0  0999 V2000
   69.7577   76.7156   91.5530 C   0  0  0  0  0  0  0  0  0  0  0  0
   71.1537   76.5740   91.4814 C   0  0  0  0  0  0  0  0  0  0  0  0
   71.9261   77.5294   90.8167 C   0  0  0  0  0  0  0  0  0  0  0  0
   71.3174   78.6459   90.2393 C   0  0  0  0  0  0  0  0  0  0  0  0
   69.9266   78.8115   90.3164 C   0  0  0  0  0  0  0  0  0  0  0  0
   69.1488   77.8287   90.9501 C   0  0  0  0  0  0  0  0  0  0  0  0
   68.7632   73.6271   93.5200 C   0  0  0  0  0  0  0  0  0  0  0  0
   67.4081   73.8836   93.7530 C   0  0  0  0  0  0  0  0  0  0  0  0
   66.8234   75.0637   93.2867 C   0  0  0  0  0  0  0  0  0  0  0  0
   67.5866   75.9912   92.5729 C   0  0  0  0  0  0  0  0  0  0  0  0
   68.9398   75.7329   92.2981 C   0  0  0  0  0  0  0  0  0  0  0  0
   69.5193   74.5412   92.7652 C   0  0  0  0  0  0  0  0  0  0  0  0
   69.3263   72.4449   94.0217 O   0  0  0  0  0  0  0  0  0  0  0  0
   72.3410   68.7503   90.9982 N   0  0  0  0  0  0  0  0  0  0  0  0
   71.5686   69.6837   91.7579 C   0  0  0  0  0  0  0  0  0  0  0  0
   70.2268   69.9211   91.4298 C   0  0  0  0  0  0  0  0  0  0  0  0
   69.4724   70.8340   92.1722 C   0  0  0  0  0  0  0  0  0  0  0  0
   70.0494   71.5129   93.2615 C   0  0  0  0  0  0  0  0  0  0  0  0
   71.3952   71.2877   93.5727 C   0  0  0  0  0  0  0  0  0  0  0  0
   72.1502   70.3739   92.8307 C   0  0  0  0  0  0  0  0  0  0  0  0
   71.9289   68.2677   90.2456 H   0  0  0  0  0  0  0  0  0  0  0  0
   73.2849   68.5903   91.2279 H   0  0  0  0  0  0  0  0  0  0  0  0
   69.2864   80.0609   89.7697 C   0  0  0  0  0  0  0  0  0  0  0  0
   69.8902   81.2252   90.3377 O   0  0  0  0  0  0  0  0  0  0  0  0
   70.4849   82.2694   89.6087 C   0  0  0  0  0  0  0  0  0  0  0  0
   71.8287   82.5614   89.8497 C   0  0  0  0  0  0  0  0  0  0  0  0
   72.4531   83.6198   89.1891 C   0  0  0  0  0  0  0  0  0  0  0  0
   71.7452   84.4095   88.2766 C   0  0  0  0  0  0  0  0  0  0  0  0
   72.4050   85.5080   87.7207 O   0  0  0  0  0  0  0  0  0  0  0  0
   70.3960   84.0941   87.9777 C   0  0  0  0  0  0  0  0  0  0  0  0
   69.7800   83.0266   88.6551 C   0  0  0  0  0  0  0  0  0  0  0  0
   73.2981   85.6810   87.9453 H   0  0  0  0  0  0  0  0  0  0  0  0
   69.6068   84.8254   86.9613 C   0  0  0  0  0  0  0  0  0  0  0  0
   68.3729   85.0234   87.1213 O   0  0  0  0  0  0  0  0  0  0  0  0
   70.2433   85.3564   85.8424 O   0  0  0  0  0  0  0  0  0  0  0  0
   71.1606   85.2149   85.7141 H   0  0  0  0  0  0  0  0  0  0  0  0
 14 15  1  0  0  0
 15 16  2  0  0  0
 16 17  1  0  0  0
 17 18  2  0  0  0
 18 13  1  0  0  0
 13  7  1  0  0  0
  7  8  2  0  0  0
  8  9  1  0  0  0
  9 10  2  0  0  0
 10 11  1  0  0  0
 11  1  1  0  0  0
  1  2  2  0  0  0
  2  3  1  0  0  0
  3  4  2  0  0  0
  4  5  1  0  0  0
  5 23  1  0  0  0
 23 24  1  0  0  0
 24 25  1  0  0  0
 25 26  2  0  0  0
 26 27  1  0  0  0
 27 28  2  0  0  0
 28 29  1  0  0  0
 28 30  1  0  0  0
 30 33  1  0  0  0
 33 34  2  0  0  0
 33 35  1  0  0  0
 30 31  2  0  0  0
  5  6  2  0  0  0
 11 12  2  0  0  0
 18 19  1  0  0  0
 19 20  2  0  0  0
 20 15  1  0  0  0
 12  7  1  0  0  0
  6  1  1  0  0  0
 31 25  1  0  0  0
 14 21  1  0  0  0
 14 22  1  0  0  0
 29 32  1  0  0  0
 35 36  1  0  0  0
M  END
> <score>
-0.223454

> <minimizedAffinity>
-9.30969

$$$$
HIPS6994


 34 37  0  0  0  0  0  0  0  0999 V2000
   67.5711   78.0109   88.7671 C   0  0  0  0  0  0  0  0  0  0  0  0
   66.8161   78.6020   87.7381 C   0  0  0  0  0  0  0  0  0  0  0  0
   66.8365   79.9859   87.5512 C   0  0  0  0  0  0  0  0  0  0  0  0
   67.6141   80.7953   88.3811 C   0  0  0  0  0  0  0  0  0  0  0  0
   68.3828   80.2247   89.4059 C   0  0  0  0  0  0  0  0  0  0  0  0
   68.3472   78.8344   89.6033 C   0  0  0  0  0  0  0  0  0  0  0  0
   68.1936   74.5665   90.2574 C   0  0  0  0  0  0  0  0  0  0  0  0
   67.5156   73.7548   89.3427 C   0  0  0  0  0  0  0  0  0  0  0  0
   66.8741   74.3190   88.2383 C   0  0  0  0  0  0  0  0  0  0  0  0
   66.8959   75.7021   88.0443 C   0  0  0  0  0  0  0  0  0  0  0  0
   67.5551   76.5392   88.9623 C   0  0  0  0  0  0  0  0  0  0  0  0
   68.1944   75.9613   90.0743 C   0  0  0  0  0  0  0  0  0  0  0  0
   68.8150   73.9641   91.3614 O   0  0  0  0  0  0  0  0  0  0  0  0
   66.8289   74.1439   96.7188 C   0  0  0  0  0  0  0  0  0  0  0  0
   67.3687   74.0678   95.3214 C   0  0  0  0  0  0  0  0  0  0  0  0
   68.7109   74.3847   95.0636 C   0  0  0  0  0  0  0  0  0  0  0  0
   69.2049   74.3495   93.7564 C   0  0  0  0  0  0  0  0  0  0  0  0
   68.3540   74.0224   92.6851 C   0  0  0  0  0  0  0  0  0  0  0  0
   67.0168   73.7031   92.9458 C   0  0  0  0  0  0  0  0  0  0  0  0
   66.5216   73.7377   94.2529 C   0  0  0  0  0  0  0  0  0  0  0  0
   69.2324   81.1030   90.2864 C   0  0  0  0  0  0  0  0  0  0  0  0
   70.5177   81.3154   89.7004 O   0  0  0  0  0  0  0  0  0  0  0  0
   70.9979   82.5430   89.2142 C   0  0  0  0  0  0  0  0  0  0  0  0
   72.3094   82.9059   89.5264 C   0  0  0  0  0  0  0  0  0  0  0  0
   72.8341   84.1187   89.0812 C   0  0  0  0  0  0  0  0  0  0  0  0
   72.0539   84.9930   88.3124 C   0  0  0  0  0  0  0  0  0  0  0  0
   72.6030   86.2025   87.8869 O   0  0  0  0  0  0  0  0  0  0  0  0
   70.7259   84.6429   87.9785 C   0  0  0  0  0  0  0  0  0  0  0  0
   70.2130   83.4109   88.4318 C   0  0  0  0  0  0  0  0  0  0  0  0
   73.4847   86.4227   88.1151 H   0  0  0  0  0  0  0  0  0  0  0  0
   69.8631   85.5408   87.1663 C   0  0  0  0  0  0  0  0  0  0  0  0
   69.7189   86.7501   87.4944 O   0  0  0  0  0  0  0  0  0  0  0  0
   69.2028   85.0682   86.0355 O   0  0  0  0  0  0  0  0  0  0  0  0
   69.2985   84.1727   85.7771 H   0  0  0  0  0  0  0  0  0  0  0  0
 14 15  1  0  0  0
 15 16  2  0  0  0
 16 17  1  0  0  0
 17 18  2  0  0  0
 18 13  1  0  0  0
 13  7  1  0  0  0
  7  8  2  0  0  0
  8  9  1  0  0  0
  9 10  2  0  0  0
 10 11  1  0  0  0
 11  1  1  0  0  0
  1  2  2  0  0  0
  2  3  1  0  0  0
  3  4  2  0  0  0
  4  5  1  0  0  0
  5 21  1  0  0  0
 21 22  1  0  0  0
 22 23  1  0  0  0
 23 24  2  0  0  0
 24 25  1  0  0  0
 25 26  2  0  0  0
 26 27  1  0  0  0
 26 28  1  0  0  0
 28 31  1  0  0  0
 31 32  2  0  0  0
 31 33  1  0  0  0
 28 29  2  0  0  0
  5  6  2  0  0  0
 11 12  2  0  0  0
 18 19  1  0  0  0
 19 20  2  0  0  0
 20 15  1  0  0  0
 12  7  1  0  0  0
  6  1  1  0  0  0
 29 23  1  0  0  0
 27 30  1  0  0  0
 33 34  1  0  0  0
M  END
> <score>
-1.38477

> <minimizedAffinity>
-9.53000

$$$$
HIPS6994


 34 37  0  0  0  0  0  0  0  0999 V2000
   68.5853   78.5968   89.1371 C   0  0  0  0  0  0  0  0  0  0  0  0
   67.7965   77.6844   88.4136 C   0  0  0  0  0  0  0  0  0  0  0  0
   66.7629   78.1391   87.5919 C   0  0  0  0  0  0  0  0  0  0  0  0
   66.5081   79.5066   87.4755 C   0  0  0  0  0  0  0  0  0  0  0  0
   67.2900   80.4336   88.1799 C   0  0  0  0  0  0  0  0  0  0  0  0
   68.3179   79.9732   89.0194 C   0  0  0  0  0  0  0  0  0  0  0  0
   70.6126   76.4316   91.5193 C   0  0  0  0  0  0  0  0  0  0  0  0
   71.7801   77.1915   91.6407 C   0  0  0  0  0  0  0  0  0  0  0  0
   71.9034   78.4086   90.9676 C   0  0  0  0  0  0  0  0  0  0  0  0
   70.8637   78.8720   90.1580 C   0  0  0  0  0  0  0  0  0  0  0  0
   69.6886   78.1145   90.0059 C   0  0  0  0  0  0  0  0  0  0  0  0
   69.5760   76.8874   90.6846 C   0  0  0  0  0  0  0  0  0  0  0  0
   70.5312   75.2081   92.2006 O   0  0  0  0  0  0  0  0  0  0  0  0
   66.3767   73.8166   95.8726 C   0  0  0  0  0  0  0  0  0  0  0  0
   67.4422   74.1902   94.8852 C   0  0  0  0  0  0  0  0  0  0  0  0
   67.6881   73.3771   93.7687 C   0  0  0  0  0  0  0  0  0  0  0  0
   68.7056   73.7053   92.8680 C   0  0  0  0  0  0  0  0  0  0  0  0
   69.5091   74.8387   93.0879 C   0  0  0  0  0  0  0  0  0  0  0  0
   69.2589   75.6499   94.2002 C   0  0  0  0  0  0  0  0  0  0  0  0
   68.2413   75.3228   95.1016 C   0  0  0  0  0  0  0  0  0  0  0  0
   67.0199   81.9083   88.0360 C   0  0  0  0  0  0  0  0  0  0  0  0
   67.8673   82.4834   87.0402 O   0  0  0  0  0  0  0  0  0  0  0  0
   68.9385   83.3578   87.2890 C   0  0  0  0  0  0  0  0  0  0  0  0
   68.9528   84.5857   86.6249 C   0  0  0  0  0  0  0  0  0  0  0  0
   69.9979   85.4871   86.8240 C   0  0  0  0  0  0  0  0  0  0  0  0
   71.0509   85.1755   87.6947 C   0  0  0  0  0  0  0  0  0  0  0  0
   72.0864   86.0936   87.8689 O   0  0  0  0  0  0  0  0  0  0  0  0
   71.0536   83.9411   88.3830 C   0  0  0  0  0  0  0  0  0  0  0  0
   69.9869   83.0439   88.1746 C   0  0  0  0  0  0  0  0  0  0  0  0
   72.0727   86.9085   87.4066 H   0  0  0  0  0  0  0  0  0  0  0  0
   72.1510   83.5698   89.3148 C   0  0  0  0  0  0  0  0  0  0  0  0
   73.3202   84.0023   89.1229 O   0  0  0  0  0  0  0  0  0  0  0  0
   71.9114   82.7441   90.4098 O   0  0  0  0  0  0  0  0  0  0  0  0
   71.0489   82.4138   90.5676 H   0  0  0  0  0  0  0  0  0  0  0  0
 14 15  1  0  0  0
 15 16  2  0  0  0
 16 17  1  0  0  0
 17 18  2  0  0  0
 18 13  1  0  0  0
 13  7  1  0  0  0
  7  8  2  0  0  0
  8  9  1  0  0  0
  9 10  2  0  0  0
 10 11  1  0  0  0
 11  1  1  0  0  0
  1  2  2  0  0  0
  2  3  1  0  0  0
  3  4  2  0  0  0
  4  5  1  0  0  0
  5 21  1  0  0  0
 21 22  1  0  0  0
 22 23  1  0  0  0
 23 24  2  0  0  0
 24 25  1  0  0  0
 25 26  2  0  0  0
 26 27  1  0  0  0
 26 28  1  0  0  0
 28 31  1  0  0  0
 31 32  2  0  0  0
 31 33  1  0  0  0
 28 29  2  0  0  0
  5  6  2  0  0  0
 11 12  2  0  0  0
 18 19  1  0  0  0
 19 20  2  0  0  0
 20 15  1  0  0  0
 12  7  1  0  0  0
  6  1  1  0  0  0
 29 23  1  0  0  0
 27 30  1  0  0  0
 33 34  1  0  0  0
M  END
> <score>
-1.38477

> <minimizedAffinity>
-9.38256

$$$$
HIPS6994


 34 37  0  0  0  0  0  0  0  0999 V2000
   70.0450   76.7236   91.9592 C   0  0  0  0  0  0  0  0  0  0  0  0
   71.4013   76.9405   91.6567 C   0  0  0  0  0  0  0  0  0  0  0  0
   71.7676   77.8487   90.6610 C   0  0  0  0  0  0  0  0  0  0  0  0
   70.7887   78.5562   89.9612 C   0  0  0  0  0  0  0  0  0  0  0  0
   69.4311   78.3626   90.2550 C   0  0  0  0  0  0  0  0  0  0  0  0
   69.0642   77.4358   91.2447 C   0  0  0  0  0  0  0  0  0  0  0  0
   69.1670   73.4765   93.7363 C   0  0  0  0  0  0  0  0  0  0  0  0
   68.9303   73.9396   95.0343 C   0  0  0  0  0  0  0  0  0  0  0  0
   69.0377   75.3002   95.3289 C   0  0  0  0  0  0  0  0  0  0  0  0
   69.3933   76.2093   94.3298 C   0  0  0  0  0  0  0  0  0  0  0  0
   69.6551   75.7630   93.0221 C   0  0  0  0  0  0  0  0  0  0  0  0
   69.5487   74.3895   92.7365 C   0  0  0  0  0  0  0  0  0  0  0  0
   69.0620   72.1009   93.4821 O   0  0  0  0  0  0  0  0  0  0  0  0
   73.1959   68.7413   91.4078 C   0  0  0  0  0  0  0  0  0  0  0  0
   72.1283   69.6510   91.9392 C   0  0  0  0  0  0  0  0  0  0  0  0
   72.3904   70.4827   93.0383 C   0  0  0  0  0  0  0  0  0  0  0  0
   71.3848   71.3036   93.5568 C   0  0  0  0  0  0  0  0  0  0  0  0
   70.0939   71.2830   92.9982 C   0  0  0  0  0  0  0  0  0  0  0  0
   69.8365   70.4553   91.8997 C   0  0  0  0  0  0  0  0  0  0  0  0
   70.8417   69.6340   91.3800 C   0  0  0  0  0  0  0  0  0  0  0  0
   68.3815   79.1422   89.5072 C   0  0  0  0  0  0  0  0  0  0  0  0
   67.2520   78.3184   89.2141 O   0  0  0  0  0  0  0  0  0  0  0  0
   67.2245   77.2816   88.2664 C   0  0  0  0  0  0  0  0  0  0  0  0
   67.4761   77.6042   86.9316 C   0  0  0  0  0  0  0  0  0  0  0  0
   67.4491   76.6174   85.9468 C   0  0  0  0  0  0  0  0  0  0  0  0
   67.1696   75.2853   86.2808 C   0  0  0  0  0  0  0  0  0  0  0  0
   67.1424   74.3208   85.2736 O   0  0  0  0  0  0  0  0  0  0  0  0
   66.9188   74.9347   87.6268 C   0  0  0  0  0  0  0  0  0  0  0  0
   66.9555   75.9433   88.6104 C   0  0  0  0  0  0  0  0  0  0  0  0
   67.3105   74.5663   84.3851 H   0  0  0  0  0  0  0  0  0  0  0  0
   66.6171   73.5343   88.0250 C   0  0  0  0  0  0  0  0  0  0  0  0
   66.9832   73.1021   89.1519 O   0  0  0  0  0  0  0  0  0  0  0  0
   65.9292   72.6793   87.1685 O   0  0  0  0  0  0  0  0  0  0  0  0
   65.6498   72.9837   86.3275 H   0  0  0  0  0  0  0  0  0  0  0  0
 14 15  1  0  0  0
 15 16  2  0  0  0
 16 17  1  0  0  0
 17 18  2  0  0  0
 18 13  1  0  0  0
 13  7  1  0  0  0
  7  8  2  0  0  0
  8  9  1  0  0  0
  9 10  2  0  0  0
 10 11  1  0  0  0
 11  1  1  0  0  0
  1  2  2  0  0  0
  2  3  1  0  0  0
  3  4  2  0  0  0
  4  5  1  0  0  0
  5 21  1  0  0  0
 21 22  1  0  0  0
 22 23  1  0  0  0
 23 24  2  0  0  0
 24 25  1  0  0  0
 25 26  2  0  0  0
 26 27  1  0  0  0
 26 28  1  0  0  0
 28 31  1  0  0  0
 31 32  2  0  0  0
 31 33  1  0  0  0
 28 29  2  0  0  0
  5  6  2  0  0  0
 11 12  2  0  0  0
 18 19  1  0  0  0
 19 20  2  0  0  0
 20 15  1  0  0  0
 12  7  1  0  0  0
  6  1  1  0  0  0
 29 23  1  0  0  0
 27 30  1  0  0  0
 33 34  1  0  0  0
M  END
> <score>
-1.38477

> <minimizedAffinity>
-9.36530

$$$$
HIPS6995


 34 37  0  0  0  0  0  0  0  0999 V2000
   69.9533   79.1994   90.1184 C   0  0  0  0  0  0  0  0  0  0  0  0
   68.7402   79.8233   89.7915 C   0  0  0  0  0  0  0  0  0  0  0  0
   67.5593   79.0821   89.7449 C   0  0  0  0  0  0  0  0  0  0  0  0
   67.5787   77.7102   90.0072 C   0  0  0  0  0  0  0  0  0  0  0  0
   68.7870   77.0618   90.3204 C   0  0  0  0  0  0  0  0  0  0  0  0
   69.9732   77.8170   90.3641 C   0  0  0  0  0  0  0  0  0  0  0  0
   68.8124   75.6003   90.5882 C   0  0  0  0  0  0  0  0  0  0  0  0
   67.9635   74.7301   89.8805 C   0  0  0  0  0  0  0  0  0  0  0  0
   67.9896   73.3572   90.1339 C   0  0  0  0  0  0  0  0  0  0  0  0
   68.8570   72.8369   91.0948 C   0  0  0  0  0  0  0  0  0  0  0  0
   69.7107   73.6815   91.8120 C   0  0  0  0  0  0  0  0  0  0  0  0
   69.6839   75.0665   91.5555 C   0  0  0  0  0  0  0  0  0  0  0  0
   70.5660   73.1098   92.7643 O   0  0  0  0  0  0  0  0  0  0  0  0
   70.1289   72.4939   93.9727 C   0  0  0  0  0  0  0  0  0  0  0  0
   71.0766   71.4013   94.3399 C   0  0  0  0  0  0  0  0  0  0  0  0
   70.6989   70.4335   95.2193 N   0  0  0  0  0  0  0  0  0  0  0  0
   71.5496   69.4326   95.5645 C   0  0  0  0  0  0  0  0  0  0  0  0
   72.8301   69.3883   95.0154 C   0  0  0  0  0  0  0  0  0  0  0  0
   73.2032   70.3892   94.1185 C   0  0  0  0  0  0  0  0  0  0  0  0
   72.3238   71.3728   93.7966 N   0  0  0  0  0  0  0  0  0  0  0  0
   71.2280   79.9991   90.1859 C   0  0  0  0  0  0  0  0  0  0  0  0
   70.9578   81.3648   90.5105 O   0  0  0  0  0  0  0  0  0  0  0  0
   70.7614   84.2161   88.0843 C   0  0  0  0  0  0  0  0  0  0  0  0
   70.3888   83.0890   88.8392 C   0  0  0  0  0  0  0  0  0  0  0  0
   71.3005   82.4711   89.7143 C   0  0  0  0  0  0  0  0  0  0  0  0
   72.5987   82.9747   89.8113 C   0  0  0  0  0  0  0  0  0  0  0  0
   72.9918   84.0738   89.0461 C   0  0  0  0  0  0  0  0  0  0  0  0
   72.0937   84.6907   88.1697 C   0  0  0  0  0  0  0  0  0  0  0  0
   72.5707   85.7411   87.3818 O   0  0  0  0  0  0  0  0  0  0  0  0
   73.4593   86.0257   87.4685 H   0  0  0  0  0  0  0  0  0  0  0  0
   68.5314   84.9362   87.6530 O   0  0  0  0  0  0  0  0  0  0  0  0
   69.7277   84.8803   87.2616 C   0  0  0  0  0  0  0  0  0  0  0  0
   70.0614   85.3987   86.0133 O   0  0  0  0  0  0  0  0  0  0  0  0
   70.9481   85.3622   85.7127 H   0  0  0  0  0  0  0  0  0  0  0  0
 31 32  2  0  0  0
 32 33  1  0  0  0
 32 23  1  0  0  0
 23 24  2  0  0  0
 24 25  1  0  0  0
 25 22  1  0  0  0
 22 21  1  0  0  0
 21  1  1  0  0  0
  1  2  2  0  0  0
  2  3  1  0  0  0
  3  4  2  0  0  0
  4  5  1  0  0  0
  5  7  1  0  0  0
  7  8  2  0  0  0
  8  9  1  0  0  0
  9 10  2  0  0  0
 10 11  1  0  0  0
 11 13  1  0  0  0
 13 14  1  0  0  0
 14 15  1  0  0  0
 15 16  2  0  0  0
 16 17  2  0  0  0
 17 18  2  0  0  0
 18 19  1  0  0  0
 19 20  2  0  0  0
 11 12  2  0  0  0
  5  6  2  0  0  0
 25 26  2  0  0  0
 26 27  1  0  0  0
 27 28  2  0  0  0
 28 29  1  0  0  0
 28 23  1  0  0  0
  6  1  1  0  0  0
 12  7  1  0  0  0
 20 15  2  0  0  0
 33 34  1  0  0  0
 29 30  1  0  0  0
M  END
> <score>
-0.428841

> <minimizedAffinity>
-9.58662

$$$$
HIPS6995


 34 37  0  0  0  0  0  0  0  0999 V2000
   69.6725   79.0975   90.0436 C   0  0  0  0  0  0  0  0  0  0  0  0
   68.4756   79.7544   89.7213 C   0  0  0  0  0  0  0  0  0  0  0  0
   67.2840   79.0356   89.6244 C   0  0  0  0  0  0  0  0  0  0  0  0
   67.2766   77.6541   89.8311 C   0  0  0  0  0  0  0  0  0  0  0  0
   68.4685   76.9734   90.1385 C   0  0  0  0  0  0  0  0  0  0  0  0
   69.6657   77.7062   90.2333 C   0  0  0  0  0  0  0  0  0  0  0  0
   68.4655   75.5021   90.3473 C   0  0  0  0  0  0  0  0  0  0  0  0
   69.1896   74.9303   91.4091 C   0  0  0  0  0  0  0  0  0  0  0  0
   69.1847   73.5475   91.6031 C   0  0  0  0  0  0  0  0  0  0  0  0
   68.4630   72.7202   90.7422 C   0  0  0  0  0  0  0  0  0  0  0  0
   67.7353   73.2645   89.6789 C   0  0  0  0  0  0  0  0  0  0  0  0
   67.7405   74.6598   89.4841 C   0  0  0  0  0  0  0  0  0  0  0  0
   67.0236   72.3916   88.8442 O   0  0  0  0  0  0  0  0  0  0  0  0
   66.4833   72.7518   87.5758 C   0  0  0  0  0  0  0  0  0  0  0  0
   66.8417   71.7068   86.5726 C   0  0  0  0  0  0  0  0  0  0  0  0
   67.6532   70.6714   86.9218 N   0  0  0  0  0  0  0  0  0  0  0  0
   67.9894   69.7126   86.0206 C   0  0  0  0  0  0  0  0  0  0  0  0
   67.5011   69.7821   84.7168 C   0  0  0  0  0  0  0  0  0  0  0  0
   66.6735   70.8511   84.3737 C   0  0  0  0  0  0  0  0  0  0  0  0
   66.3583   71.7897   85.3033 N   0  0  0  0  0  0  0  0  0  0  0  0
   70.9584   79.8723   90.1655 C   0  0  0  0  0  0  0  0  0  0  0  0
   70.7004   81.2489   90.4514 O   0  0  0  0  0  0  0  0  0  0  0  0
   70.7234   83.9997   87.9042 C   0  0  0  0  0  0  0  0  0  0  0  0
   70.2911   82.8923   88.6564 C   0  0  0  0  0  0  0  0  0  0  0  0
   71.1083   82.3332   89.6556 C   0  0  0  0  0  0  0  0  0  0  0  0
   72.3746   82.8754   89.8813 C   0  0  0  0  0  0  0  0  0  0  0  0
   72.8291   83.9550   89.1223 C   0  0  0  0  0  0  0  0  0  0  0  0
   72.0255   84.5134   88.1236 C   0  0  0  0  0  0  0  0  0  0  0  0
   72.5671   85.5458   87.3538 O   0  0  0  0  0  0  0  0  0  0  0  0
   73.4328   85.8577   87.5309 H   0  0  0  0  0  0  0  0  0  0  0  0
   68.5542   84.3043   86.9666 O   0  0  0  0  0  0  0  0  0  0  0  0
   69.7777   84.6036   86.9410 C   0  0  0  0  0  0  0  0  0  0  0  0
   70.2479   85.4671   85.9553 O   0  0  0  0  0  0  0  0  0  0  0  0
   71.1561   85.6961   85.9274 H   0  0  0  0  0  0  0  0  0  0  0  0
 31 32  2  0  0  0
 32 33  1  0  0  0
 32 23  1  0  0  0
 23 24  2  0  0  0
 24 25  1  0  0  0
 25 22  1  0  0  0
 22 21  1  0  0  0
 21  1  1  0  0  0
  1  2  2  0  0  0
  2  3  1  0  0  0
  3  4  2  0  0  0
  4  5  1  0  0  0
  5  7  1  0  0  0
  7  8  2  0  0  0
  8  9  1  0  0  0
  9 10  2  0  0  0
 10 11  1  0  0  0
 11 13  1  0  0  0
 13 14  1  0  0  0
 14 15  1  0  0  0
 15 16  2  0  0  0
 16 17  2  0  0  0
 17 18  2  0  0  0
 18 19  1  0  0  0
 19 20  2  0  0  0
 11 12  2  0  0  0
  5  6  2  0  0  0
 25 26  2  0  0  0
 26 27  1  0  0  0
 27 28  2  0  0  0
 28 29  1  0  0  0
 28 23  1  0  0  0
  6  1  1  0  0  0
 12  7  1  0  0  0
 20 15  2  0  0  0
 33 34  1  0  0  0
 29 30  1  0  0  0
M  END
> <score>
-0.428841

> <minimizedAffinity>
-9.57240

$$$$
HIPS6995


 34 37  0  0  0  0  0  0  0  0999 V2000
   68.2099   79.7279   89.4900 C   0  0  0  0  0  0  0  0  0  0  0  0
   67.5011   80.2127   88.3807 C   0  0  0  0  0  0  0  0  0  0  0  0
   66.8107   79.3313   87.5485 C   0  0  0  0  0  0  0  0  0  0  0  0
   66.8336   77.9582   87.8038 C   0  0  0  0  0  0  0  0  0  0  0  0
   67.5521   77.4496   88.9010 C   0  0  0  0  0  0  0  0  0  0  0  0
   68.2463   78.3456   89.7344 C   0  0  0  0  0  0  0  0  0  0  0  0
   67.5879   75.9882   89.1681 C   0  0  0  0  0  0  0  0  0  0  0  0
   66.8822   75.0942   88.3427 C   0  0  0  0  0  0  0  0  0  0  0  0
   66.9179   73.7214   88.5957 C   0  0  0  0  0  0  0  0  0  0  0  0
   67.6524   73.2249   89.6730 C   0  0  0  0  0  0  0  0  0  0  0  0
   68.3623   74.0934   90.5085 C   0  0  0  0  0  0  0  0  0  0  0  0
   68.3261   75.4782   90.2523 C   0  0  0  0  0  0  0  0  0  0  0  0
   69.0880   73.5450   91.5752 O   0  0  0  0  0  0  0  0  0  0  0  0
   68.6032   72.5172   92.4350 C   0  0  0  0  0  0  0  0  0  0  0  0
   67.8338   73.1336   93.5552 C   0  0  0  0  0  0  0  0  0  0  0  0
   68.4437   73.3935   94.7439 N   0  0  0  0  0  0  0  0  0  0  0  0
   67.7575   73.9535   95.7735 C   0  0  0  0  0  0  0  0  0  0  0  0
   66.4086   74.2697   95.6195 C   0  0  0  0  0  0  0  0  0  0  0  0
   65.7972   73.9941   94.3965 C   0  0  0  0  0  0  0  0  0  0  0  0
   66.5172   73.4349   93.3898 N   0  0  0  0  0  0  0  0  0  0  0  0
   68.9431   80.6776   90.4006 C   0  0  0  0  0  0  0  0  0  0  0  0
   70.2824   80.8885   89.9474 O   0  0  0  0  0  0  0  0  0  0  0  0
   70.5551   84.0704   87.9836 C   0  0  0  0  0  0  0  0  0  0  0  0
   70.0407   82.8599   88.4828 C   0  0  0  0  0  0  0  0  0  0  0  0
   70.7746   82.0856   89.3997 C   0  0  0  0  0  0  0  0  0  0  0  0
   72.0406   82.5191   89.7965 C   0  0  0  0  0  0  0  0  0  0  0  0
   72.5768   83.7027   89.2866 C   0  0  0  0  0  0  0  0  0  0  0  0
   71.8564   84.4756   88.3707 C   0  0  0  0  0  0  0  0  0  0  0  0
   72.4786   85.6111   87.8461 O   0  0  0  0  0  0  0  0  0  0  0  0
   73.3408   85.8455   88.1283 H   0  0  0  0  0  0  0  0  0  0  0  0
   68.4728   85.0539   87.3722 O   0  0  0  0  0  0  0  0  0  0  0  0
   69.6924   84.8874   87.1034 C   0  0  0  0  0  0  0  0  0  0  0  0
   70.2129   85.4317   85.9325 O   0  0  0  0  0  0  0  0  0  0  0  0
   71.1186   85.3136   85.7232 H   0  0  0  0  0  0  0  0  0  0  0  0
 31 32  2  0  0  0
 32 33  1  0  0  0
 32 23  1  0  0  0
 23 24  2  0  0  0
 24 25  1  0  0  0
 25 22  1  0  0  0
 22 21  1  0  0  0
 21  1  1  0  0  0
  1  2  2  0  0  0
  2  3  1  0  0  0
  3  4  2  0  0  0
  4  5  1  0  0  0
  5  7  1  0  0  0
  7  8  2  0  0  0
  8  9  1  0  0  0
  9 10  2  0  0  0
 10 11  1  0  0  0
 11 13  1  0  0  0
 13 14  1  0  0  0
 14 15  1  0  0  0
 15 16  2  0  0  0
 16 17  2  0  0  0
 17 18  2  0  0  0
 18 19  1  0  0  0
 19 20  2  0  0  0
 11 12  2  0  0  0
  5  6  2  0  0  0
 25 26  2  0  0  0
 26 27  1  0  0  0
 27 28  2  0  0  0
 28 29  1  0  0  0
 28 23  1  0  0  0
  6  1  1  0  0  0
 12  7  1  0  0  0
 20 15  2  0  0  0
 33 34  1  0  0  0
 29 30  1  0  0  0
M  END
> <score>
-0.428841

> <minimizedAffinity>
-9.31438

$$$$
HIPS6996


 34 37  0  0  0  0  0  0  0  0999 V2000
   67.2008   79.6266   87.9528 C   0  0  0  0  0  0  0  0  0  0  0  0
   66.4724   78.5721   87.3834 C   0  0  0  0  0  0  0  0  0  0  0  0
   66.7669   77.2504   87.7219 C   0  0  0  0  0  0  0  0  0  0  0  0
   67.7872   76.9690   88.6333 C   0  0  0  0  0  0  0  0  0  0  0  0
   68.5225   78.0122   89.2241 C   0  0  0  0  0  0  0  0  0  0  0  0
   68.2155   79.3420   88.8816 C   0  0  0  0  0  0  0  0  0  0  0  0
   69.6104   77.7148   90.1902 C   0  0  0  0  0  0  0  0  0  0  0  0
   70.8975   78.2478   90.0018 C   0  0  0  0  0  0  0  0  0  0  0  0
   71.9170   77.9721   90.9150 C   0  0  0  0  0  0  0  0  0  0  0  0
   71.6683   77.1610   92.0238 C   0  0  0  0  0  0  0  0  0  0  0  0
   70.3882   76.6128   92.2271 C   0  0  0  0  0  0  0  0  0  0  0  0
   69.3688   76.8982   91.3105 C   0  0  0  0  0  0  0  0  0  0  0  0
   70.0838   75.7844   93.3197 O   0  0  0  0  0  0  0  0  0  0  0  0
   69.4044   76.1984   94.5056 C   0  0  0  0  0  0  0  0  0  0  0  0
   68.0663   75.5176   94.6219 C   0  0  0  0  0  0  0  0  0  0  0  0
   66.9556   76.0223   93.9298 C   0  0  0  0  0  0  0  0  0  0  0  0
   65.7182   75.3867   94.0573 C   0  0  0  0  0  0  0  0  0  0  0  0
   65.5921   74.2925   94.8542 N   0  0  0  0  0  0  0  0  0  0  0  0
   66.6493   73.7887   95.5448 C   0  0  0  0  0  0  0  0  0  0  0  0
   67.9044   74.3941   95.4459 C   0  0  0  0  0  0  0  0  0  0  0  0
   66.8851   81.0494   87.5732 C   0  0  0  0  0  0  0  0  0  0  0  0
   67.4949   81.9638   88.4854 O   0  0  0  0  0  0  0  0  0  0  0  0
   71.0582   82.9712   89.0744 C   0  0  0  0  0  0  0  0  0  0  0  0
   69.7916   82.3935   89.2808 C   0  0  0  0  0  0  0  0  0  0  0  0
   68.7653   82.5432   88.3295 C   0  0  0  0  0  0  0  0  0  0  0  0
   69.0099   83.2923   87.1768 C   0  0  0  0  0  0  0  0  0  0  0  0
   70.2529   83.8908   86.9707 C   0  0  0  0  0  0  0  0  0  0  0  0
   71.2754   83.7557   87.9155 C   0  0  0  0  0  0  0  0  0  0  0  0
   72.4695   84.4419   87.6850 O   0  0  0  0  0  0  0  0  0  0  0  0
   72.5743   84.9508   86.9053 H   0  0  0  0  0  0  0  0  0  0  0  0
   71.8533   82.1306   91.1496 O   0  0  0  0  0  0  0  0  0  0  0  0
   72.1284   82.7029   90.0603 C   0  0  0  0  0  0  0  0  0  0  0  0
   73.4526   83.0201   89.7722 O   0  0  0  0  0  0  0  0  0  0  0  0
   73.6676   83.4454   88.9655 H   0  0  0  0  0  0  0  0  0  0  0  0
 31 32  2  0  0  0
 32 33  1  0  0  0
 32 23  1  0  0  0
 23 24  2  0  0  0
 24 25  1  0  0  0
 25 22  1  0  0  0
 22 21  1  0  0  0
 21  1  1  0  0  0
  1  2  2  0  0  0
  2  3  1  0  0  0
  3  4  2  0  0  0
  4  5  1  0  0  0
  5  7  1  0  0  0
  7  8  2  0  0  0
  8  9  1  0  0  0
  9 10  2  0  0  0
 10 11  1  0  0  0
 11 13  1  0  0  0
 13 14  1  0  0  0
 14 15  1  0  0  0
 15 16  2  0  0  0
 16 17  1  0  0  0
 17 18  2  0  0  0
 18 19  2  0  0  0
 19 20  2  0  0  0
 11 12  2  0  0  0
  5  6  2  0  0  0
 25 26  2  0  0  0
 26 27  1  0  0  0
 27 28  2  0  0  0
 28 29  1  0  0  0
 28 23  1  0  0  0
  6  1  1  0  0  0
 12  7  1  0  0  0
 20 15  1  0  0  0
 33 34  1  0  0  0
 29 30  1  0  0  0
M  END
> <score>
0.453314

> <minimizedAffinity>
-9.14649

$$$$
HIPS6996


 34 37  0  0  0  0  0  0  0  0999 V2000
   67.2773   79.1990   88.9120 C   0  0  0  0  0  0  0  0  0  0  0  0
   66.8236   79.0201   87.5971 C   0  0  0  0  0  0  0  0  0  0  0  0
   66.7803   77.7429   87.0356 C   0  0  0  0  0  0  0  0  0  0  0  0
   67.1855   76.6334   87.7811 C   0  0  0  0  0  0  0  0  0  0  0  0
   67.6335   76.7896   89.1050 C   0  0  0  0  0  0  0  0  0  0  0  0
   67.6686   78.0799   89.6654 C   0  0  0  0  0  0  0  0  0  0  0  0
   68.0685   75.6117   89.8978 C   0  0  0  0  0  0  0  0  0  0  0  0
   67.7122   74.3117   89.4986 C   0  0  0  0  0  0  0  0  0  0  0  0
   68.1278   73.2055   90.2421 C   0  0  0  0  0  0  0  0  0  0  0  0
   68.8999   73.3801   91.3920 C   0  0  0  0  0  0  0  0  0  0  0  0
   69.2621   74.6736   91.8119 C   0  0  0  0  0  0  0  0  0  0  0  0
   68.8468   75.7783   91.0583 C   0  0  0  0  0  0  0  0  0  0  0  0
   70.0300   74.9086   92.9641 O   0  0  0  0  0  0  0  0  0  0  0  0
   69.6204   75.6962   94.0829 C   0  0  0  0  0  0  0  0  0  0  0  0
   68.2290   75.3224   94.5207 C   0  0  0  0  0  0  0  0  0  0  0  0
   68.0159   74.1618   95.2788 C   0  0  0  0  0  0  0  0  0  0  0  0
   66.7179   73.8220   95.6673 C   0  0  0  0  0  0  0  0  0  0  0  0
   65.6694   74.6075   95.3040 N   0  0  0  0  0  0  0  0  0  0  0  0
   65.8458   75.7319   94.5603 C   0  0  0  0  0  0  0  0  0  0  0  0
   67.1273   76.1079   94.1505 C   0  0  0  0  0  0  0  0  0  0  0  0
   67.3324   80.5817   89.5065 C   0  0  0  0  0  0  0  0  0  0  0  0
   68.6488   81.1257   89.4012 O   0  0  0  0  0  0  0  0  0  0  0  0
   70.5764   83.9928   87.9441 C   0  0  0  0  0  0  0  0  0  0  0  0
   70.2437   82.8984   88.7640 C   0  0  0  0  0  0  0  0  0  0  0  0
   69.0104   82.2359   88.6198 C   0  0  0  0  0  0  0  0  0  0  0  0
   68.1028   82.6889   87.6602 C   0  0  0  0  0  0  0  0  0  0  0  0
   68.4094   83.7875   86.8572 C   0  0  0  0  0  0  0  0  0  0  0  0
   69.6284   84.4581   87.0006 C   0  0  0  0  0  0  0  0  0  0  0  0
   69.8415   85.5954   86.2189 O   0  0  0  0  0  0  0  0  0  0  0  0
   69.1892   85.8711   85.6053 H   0  0  0  0  0  0  0  0  0  0  0  0
   72.1117   85.7959   87.7518 O   0  0  0  0  0  0  0  0  0  0  0  0
   71.9233   84.5914   88.0737 C   0  0  0  0  0  0  0  0  0  0  0  0
   72.9770   83.8558   88.6081 O   0  0  0  0  0  0  0  0  0  0  0  0
   72.8475   82.9600   88.8506 H   0  0  0  0  0  0  0  0  0  0  0  0
 31 32  2  0  0  0
 32 33  1  0  0  0
 32 23  1  0  0  0
 23 24  2  0  0  0
 24 25  1  0  0  0
 25 22  1  0  0  0
 22 21  1  0  0  0
 21  1  1  0  0  0
  1  2  2  0  0  0
  2  3  1  0  0  0
  3  4  2  0  0  0
  4  5  1  0  0  0
  5  7  1  0  0  0
  7  8  2  0  0  0
  8  9  1  0  0  0
  9 10  2  0  0  0
 10 11  1  0  0  0
 11 13  1  0  0  0
 13 14  1  0  0  0
 14 15  1  0  0  0
 15 16  2  0  0  0
 16 17  1  0  0  0
 17 18  2  0  0  0
 18 19  2  0  0  0
 19 20  2  0  0  0
 11 12  2  0  0  0
  5  6  2  0  0  0
 25 26  2  0  0  0
 26 27  1  0  0  0
 27 28  2  0  0  0
 28 29  1  0  0  0
 28 23  1  0  0  0
  6  1  1  0  0  0
 12  7  1  0  0  0
 20 15  1  0  0  0
 33 34  1  0  0  0
 29 30  1  0  0  0
M  END
> <score>
0.453314

> <minimizedAffinity>
-9.11546

$$$$
HIPS6996


 34 37  0  0  0  0  0  0  0  0999 V2000
   67.4966   79.2642   88.9861 C   0  0  0  0  0  0  0  0  0  0  0  0
   67.0355   79.1373   87.6678 C   0  0  0  0  0  0  0  0  0  0  0  0
   66.9280   77.8765   87.0786 C   0  0  0  0  0  0  0  0  0  0  0  0
   67.2758   76.7319   87.7995 C   0  0  0  0  0  0  0  0  0  0  0  0
   67.7301   76.8362   89.1264 C   0  0  0  0  0  0  0  0  0  0  0  0
   67.8302   78.1106   89.7148 C   0  0  0  0  0  0  0  0  0  0  0  0
   68.1042   75.6208   89.8932 C   0  0  0  0  0  0  0  0  0  0  0  0
   67.6940   74.3484   89.4584 C   0  0  0  0  0  0  0  0  0  0  0  0
   68.0525   73.2066   90.1774 C   0  0  0  0  0  0  0  0  0  0  0  0
   68.8204   73.3179   91.3381 C   0  0  0  0  0  0  0  0  0  0  0  0
   69.2359   74.5830   91.7933 C   0  0  0  0  0  0  0  0  0  0  0  0
   68.8778   75.7236   91.0641 C   0  0  0  0  0  0  0  0  0  0  0  0
   70.0022   74.7548   92.9577 O   0  0  0  0  0  0  0  0  0  0  0  0
   69.6282   75.5517   94.0823 C   0  0  0  0  0  0  0  0  0  0  0  0
   68.2291   75.2221   94.5310 C   0  0  0  0  0  0  0  0  0  0  0  0
   67.9877   74.0775   95.3047 C   0  0  0  0  0  0  0  0  0  0  0  0
   66.6826   73.7787   95.7032 C   0  0  0  0  0  0  0  0  0  0  0  0
   65.6545   74.5882   95.3346 N   0  0  0  0  0  0  0  0  0  0  0  0
   65.8583   75.6978   94.5760 C   0  0  0  0  0  0  0  0  0  0  0  0
   67.1478   76.0330   94.1557 C   0  0  0  0  0  0  0  0  0  0  0  0
   67.6213   80.6290   89.6107 C   0  0  0  0  0  0  0  0  0  0  0  0
   68.9777   80.9009   89.9662 O   0  0  0  0  0  0  0  0  0  0  0  0
   70.1192   83.8439   87.9428 C   0  0  0  0  0  0  0  0  0  0  0  0
   69.2957   82.8201   88.4472 C   0  0  0  0  0  0  0  0  0  0  0  0
   69.7733   81.9216   89.4196 C   0  0  0  0  0  0  0  0  0  0  0  0
   71.0890   82.0435   89.8709 C   0  0  0  0  0  0  0  0  0  0  0  0
   71.9238   83.0384   89.3619 C   0  0  0  0  0  0  0  0  0  0  0  0
   71.4608   83.9291   88.3880 C   0  0  0  0  0  0  0  0  0  0  0  0
   72.3691   84.8524   87.8659 O   0  0  0  0  0  0  0  0  0  0  0  0
   73.2489   84.8773   88.1873 H   0  0  0  0  0  0  0  0  0  0  0  0
   68.3450   85.2030   87.1362 O   0  0  0  0  0  0  0  0  0  0  0  0
   69.5371   84.8180   86.9932 C   0  0  0  0  0  0  0  0  0  0  0  0
   70.3127   85.3649   85.9751 O   0  0  0  0  0  0  0  0  0  0  0  0
   71.1997   85.0856   85.8604 H   0  0  0  0  0  0  0  0  0  0  0  0
 31 32  2  0  0  0
 32 33  1  0  0  0
 32 23  1  0  0  0
 23 24  2  0  0  0
 24 25  1  0  0  0
 25 22  1  0  0  0
 22 21  1  0  0  0
 21  1  1  0  0  0
  1  2  2  0  0  0
  2  3  1  0  0  0
  3  4  2  0  0  0
  4  5  1  0  0  0
  5  7  1  0  0  0
  7  8  2  0  0  0
  8  9  1  0  0  0
  9 10  2  0  0  0
 10 11  1  0  0  0
 11 13  1  0  0  0
 13 14  1  0  0  0
 14 15  1  0  0  0
 15 16  2  0  0  0
 16 17  1  0  0  0
 17 18  2  0  0  0
 18 19  2  0  0  0
 19 20  2  0  0  0
 11 12  2  0  0  0
  5  6  2  0  0  0
 25 26  2  0  0  0
 26 27  1  0  0  0
 27 28  2  0  0  0
 28 29  1  0  0  0
 28 23  1  0  0  0
  6  1  1  0  0  0
 12  7  1  0  0  0
 20 15  1  0  0  0
 33 34  1  0  0  0
 29 30  1  0  0  0
M  END
> <score>
0.453314

> <minimizedAffinity>
-9.10986

$$$$
HIPS6997


 34 37  0  0  0  0  0  0  0  0999 V2000
   69.8409   78.9637   90.1474 C   0  0  0  0  0  0  0  0  0  0  0  0
   68.6287   79.6588   90.0330 C   0  0  0  0  0  0  0  0  0  0  0  0
   67.4163   78.9671   90.0574 C   0  0  0  0  0  0  0  0  0  0  0  0
   67.4025   77.5779   90.2033 C   0  0  0  0  0  0  0  0  0  0  0  0
   68.6074   76.8614   90.3178 C   0  0  0  0  0  0  0  0  0  0  0  0
   69.8251   77.5652   90.2757 C   0  0  0  0  0  0  0  0  0  0  0  0
   68.5965   75.3878   90.5048 C   0  0  0  0  0  0  0  0  0  0  0  0
   69.4162   74.7860   91.4756 C   0  0  0  0  0  0  0  0  0  0  0  0
   69.4233   73.3987   91.6331 C   0  0  0  0  0  0  0  0  0  0  0  0
   68.6192   72.5945   90.8236 C   0  0  0  0  0  0  0  0  0  0  0  0
   67.7949   73.1770   89.8431 C   0  0  0  0  0  0  0  0  0  0  0  0
   67.7840   74.5695   89.6980 C   0  0  0  0  0  0  0  0  0  0  0  0
   66.9745   72.4162   88.9944 O   0  0  0  0  0  0  0  0  0  0  0  0
   66.5658   72.8006   87.6812 C   0  0  0  0  0  0  0  0  0  0  0  0
   66.9682   71.7591   86.6711 C   0  0  0  0  0  0  0  0  0  0  0  0
   67.7392   70.6498   87.0483 C   0  0  0  0  0  0  0  0  0  0  0  0
   68.0976   69.6932   86.0968 C   0  0  0  0  0  0  0  0  0  0  0  0
   67.6738   69.8499   84.7757 C   0  0  0  0  0  0  0  0  0  0  0  0
   66.9168   70.9236   84.4262 N   0  0  0  0  0  0  0  0  0  0  0  0
   66.5554   71.8693   85.3343 C   0  0  0  0  0  0  0  0  0  0  0  0
   71.1419   79.7225   90.1573 C   0  0  0  0  0  0  0  0  0  0  0  0
   70.9256   81.0849   90.5287 O   0  0  0  0  0  0  0  0  0  0  0  0
   70.7547   83.8662   88.0205 C   0  0  0  0  0  0  0  0  0  0  0  0
   70.3772   82.7582   88.8001 C   0  0  0  0  0  0  0  0  0  0  0  0
   71.2580   82.2041   89.7470 C   0  0  0  0  0  0  0  0  0  0  0  0
   72.5141   82.7860   89.9288 C   0  0  0  0  0  0  0  0  0  0  0  0
   72.9070   83.8795   89.1566 C   0  0  0  0  0  0  0  0  0  0  0  0
   72.0525   84.4118   88.1853 C   0  0  0  0  0  0  0  0  0  0  0  0
   72.5408   85.4512   87.3902 O   0  0  0  0  0  0  0  0  0  0  0  0
   73.4054   85.7832   87.5323 H   0  0  0  0  0  0  0  0  0  0  0  0
   68.7505   83.7614   86.7322 O   0  0  0  0  0  0  0  0  0  0  0  0
   69.7615   84.4289   87.0784 C   0  0  0  0  0  0  0  0  0  0  0  0
   69.9739   85.6865   86.5186 O   0  0  0  0  0  0  0  0  0  0  0  0
   70.7228   86.1906   86.7696 H   0  0  0  0  0  0  0  0  0  0  0  0
 31 32  2  0  0  0
 32 33  1  0  0  0
 32 23  1  0  0  0
 23 24  2  0  0  0
 24 25  1  0  0  0
 25 22  1  0  0  0
 22 21  1  0  0  0
 21  1  1  0  0  0
  1  2  2  0  0  0
  2  3  1  0  0  0
  3  4  2  0  0  0
  4  5  1  0  0  0
  5  7  1  0  0  0
  7  8  2  0  0  0
  8  9  1  0  0  0
  9 10  2  0  0  0
 10 11  1  0  0  0
 11 13  1  0  0  0
 13 14  1  0  0  0
 14 15  1  0  0  0
 15 16  2  0  0  0
 16 17  1  0  0  0
 17 18  2  0  0  0
 18 19  2  0  0  0
 19 20  2  0  0  0
 11 12  2  0  0  0
  5  6  2  0  0  0
 25 26  2  0  0  0
 26 27  1  0  0  0
 27 28  2  0  0  0
 28 29  1  0  0  0
 28 23  1  0  0  0
  6  1  1  0  0  0
 12  7  1  0  0  0
 20 15  1  0  0  0
 33 34  1  0  0  0
 29 30  1  0  0  0
M  END
> <score>
0.419644

> <minimizedAffinity>
-9.32091

$$$$
HIPS6997


 34 37  0  0  0  0  0  0  0  0999 V2000
   67.4930   79.3556   89.0654 C   0  0  0  0  0  0  0  0  0  0  0  0
   66.9879   79.2831   87.7595 C   0  0  0  0  0  0  0  0  0  0  0  0
   66.8651   78.0480   87.1204 C   0  0  0  0  0  0  0  0  0  0  0  0
   67.2381   76.8748   87.7806 C   0  0  0  0  0  0  0  0  0  0  0  0
   67.7489   76.9256   89.0901 C   0  0  0  0  0  0  0  0  0  0  0  0
   67.8844   78.1764   89.7204 C   0  0  0  0  0  0  0  0  0  0  0  0
   68.1172   75.6782   89.8074 C   0  0  0  0  0  0  0  0  0  0  0  0
   67.6057   74.4373   89.3889 C   0  0  0  0  0  0  0  0  0  0  0  0
   67.9330   73.2688   90.0794 C   0  0  0  0  0  0  0  0  0  0  0  0
   68.7683   73.3221   91.1967 C   0  0  0  0  0  0  0  0  0  0  0  0
   69.2870   74.5548   91.6343 C   0  0  0  0  0  0  0  0  0  0  0  0
   68.9640   75.7213   90.9306 C   0  0  0  0  0  0  0  0  0  0  0  0
   70.1225   74.6686   92.7574 O   0  0  0  0  0  0  0  0  0  0  0  0
   69.8126   75.3996   93.9444 C   0  0  0  0  0  0  0  0  0  0  0  0
   68.5005   74.9429   94.5248 C   0  0  0  0  0  0  0  0  0  0  0  0
   67.3167   75.6527   94.2759 C   0  0  0  0  0  0  0  0  0  0  0  0
   66.1099   75.2094   94.8199 C   0  0  0  0  0  0  0  0  0  0  0  0
   66.0958   74.0531   95.6023 C   0  0  0  0  0  0  0  0  0  0  0  0
   67.2486   73.3680   95.8257 N   0  0  0  0  0  0  0  0  0  0  0  0
   68.4366   73.7799   95.3077 C   0  0  0  0  0  0  0  0  0  0  0  0
   67.5868   80.6887   89.7598 C   0  0  0  0  0  0  0  0  0  0  0  0
   68.0345   81.6971   88.8522 O   0  0  0  0  0  0  0  0  0  0  0  0
   70.8826   84.0272   88.1349 C   0  0  0  0  0  0  0  0  0  0  0  0
   69.6095   83.4323   88.0793 C   0  0  0  0  0  0  0  0  0  0  0  0
   69.2874   82.3317   88.8945 C   0  0  0  0  0  0  0  0  0  0  0  0
   70.2429   81.8461   89.7893 C   0  0  0  0  0  0  0  0  0  0  0  0
   71.5133   82.4192   89.8495 C   0  0  0  0  0  0  0  0  0  0  0  0
   71.8548   83.4884   89.0144 C   0  0  0  0  0  0  0  0  0  0  0  0
   73.1690   83.9587   89.0663 O   0  0  0  0  0  0  0  0  0  0  0  0
   73.7809   83.5744   89.6628 H   0  0  0  0  0  0  0  0  0  0  0  0
   71.9796   86.0840   87.6305 O   0  0  0  0  0  0  0  0  0  0  0  0
   71.1380   85.2120   87.2855 C   0  0  0  0  0  0  0  0  0  0  0  0
   70.3984   85.4003   86.1203 O   0  0  0  0  0  0  0  0  0  0  0  0
   69.7702   84.7577   85.8551 H   0  0  0  0  0  0  0  0  0  0  0  0
 31 32  2  0  0  0
 32 33  1  0  0  0
 32 23  1  0  0  0
 23 24  2  0  0  0
 24 25  1  0  0  0
 25 22  1  0  0  0
 22 21  1  0  0  0
 21  1  1  0  0  0
  1  2  2  0  0  0
  2  3  1  0  0  0
  3  4  2  0  0  0
  4  5  1  0  0  0
  5  7  1  0  0  0
  7  8  2  0  0  0
  8  9  1  0  0  0
  9 10  2  0  0  0
 10 11  1  0  0  0
 11 13  1  0  0  0
 13 14  1  0  0  0
 14 15  1  0  0  0
 15 16  2  0  0  0
 16 17  1  0  0  0
 17 18  2  0  0  0
 18 19  2  0  0  0
 19 20  2  0  0  0
 11 12  2  0  0  0
  5  6  2  0  0  0
 25 26  2  0  0  0
 26 27  1  0  0  0
 27 28  2  0  0  0
 28 29  1  0  0  0
 28 23  1  0  0  0
  6  1  1  0  0  0
 12  7  1  0  0  0
 20 15  1  0  0  0
 33 34  1  0  0  0
 29 30  1  0  0  0
M  END
> <score>
0.419644

> <minimizedAffinity>
-9.27604

$$$$
HIPS6997


 34 37  0  0  0  0  0  0  0  0999 V2000
   67.2047   79.3868   88.8679 C   0  0  0  0  0  0  0  0  0  0  0  0
   66.7967   79.2072   87.5387 C   0  0  0  0  0  0  0  0  0  0  0  0
   66.8377   77.9395   86.9554 C   0  0  0  0  0  0  0  0  0  0  0  0
   67.2789   76.8396   87.6949 C   0  0  0  0  0  0  0  0  0  0  0  0
   67.6943   76.9983   89.0293 C   0  0  0  0  0  0  0  0  0  0  0  0
   67.6650   78.2825   89.6037 C   0  0  0  0  0  0  0  0  0  0  0  0
   68.1343   75.8265   89.8292 C   0  0  0  0  0  0  0  0  0  0  0  0
   67.7168   74.5294   89.4832 C   0  0  0  0  0  0  0  0  0  0  0  0
   68.1109   73.4318   90.2507 C   0  0  0  0  0  0  0  0  0  0  0  0
   68.9202   73.6125   91.3737 C   0  0  0  0  0  0  0  0  0  0  0  0
   69.3453   74.9031   91.7394 C   0  0  0  0  0  0  0  0  0  0  0  0
   68.9558   75.9983   90.9589 C   0  0  0  0  0  0  0  0  0  0  0  0
   70.1505   75.1444   92.8643 O   0  0  0  0  0  0  0  0  0  0  0  0
   69.7166   75.7796   94.0676 C   0  0  0  0  0  0  0  0  0  0  0  0
   68.4166   75.1883   94.5439 C   0  0  0  0  0  0  0  0  0  0  0  0
   67.1954   75.8250   94.2785 C   0  0  0  0  0  0  0  0  0  0  0  0
   66.0009   75.2572   94.7253 C   0  0  0  0  0  0  0  0  0  0  0  0
   66.0371   74.0509   95.4273 C   0  0  0  0  0  0  0  0  0  0  0  0
   67.2267   73.4382   95.6672 N   0  0  0  0  0  0  0  0  0  0  0  0
   68.4037   73.9715   95.2432 C   0  0  0  0  0  0  0  0  0  0  0  0
   67.1216   80.7515   89.4996 C   0  0  0  0  0  0  0  0  0  0  0  0
   68.4142   81.3572   89.5579 O   0  0  0  0  0  0  0  0  0  0  0  0
   70.5874   83.9495   87.9415 C   0  0  0  0  0  0  0  0  0  0  0  0
   70.1615   82.9335   88.8157 C   0  0  0  0  0  0  0  0  0  0  0  0
   68.8836   82.3584   88.6911 C   0  0  0  0  0  0  0  0  0  0  0  0
   68.0417   82.7893   87.6639 C   0  0  0  0  0  0  0  0  0  0  0  0
   68.4458   83.8028   86.7946 C   0  0  0  0  0  0  0  0  0  0  0  0
   69.6993   84.4076   86.9363 C   0  0  0  0  0  0  0  0  0  0  0  0
   70.0060   85.4729   86.0865 O   0  0  0  0  0  0  0  0  0  0  0  0
   69.3902   85.7444   85.4345 H   0  0  0  0  0  0  0  0  0  0  0  0
   72.8584   83.7840   88.6507 O   0  0  0  0  0  0  0  0  0  0  0  0
   71.9618   84.4758   88.0985 C   0  0  0  0  0  0  0  0  0  0  0  0
   72.2569   85.7734   87.6870 O   0  0  0  0  0  0  0  0  0  0  0  0
   71.5969   86.2959   87.2753 H   0  0  0  0  0  0  0  0  0  0  0  0
 31 32  2  0  0  0
 32 33  1  0  0  0
 32 23  1  0  0  0
 23 24  2  0  0  0
 24 25  1  0  0  0
 25 22  1  0  0  0
 22 21  1  0  0  0
 21  1  1  0  0  0
  1  2  2  0  0  0
  2  3  1  0  0  0
  3  4  2  0  0  0
  4  5  1  0  0  0
  5  7  1  0  0  0
  7  8  2  0  0  0
  8  9  1  0  0  0
  9 10  2  0  0  0
 10 11  1  0  0  0
 11 13  1  0  0  0
 13 14  1  0  0  0
 14 15  1  0  0  0
 15 16  2  0  0  0
 16 17  1  0  0  0
 17 18  2  0  0  0
 18 19  2  0  0  0
 19 20  2  0  0  0
 11 12  2  0  0  0
  5  6  2  0  0  0
 25 26  2  0  0  0
 26 27  1  0  0  0
 27 28  2  0  0  0
 28 29  1  0  0  0
 28 23  1  0  0  0
  6  1  1  0  0  0
 12  7  1  0  0  0
 20 15  1  0  0  0
 33 34  1  0  0  0
 29 30  1  0  0  0
M  END
> <score>
0.419644

> <minimizedAffinity>
-9.26879

$$$$
HIPS6998


 35 38  0  0  0  0  0  0  0  0999 V2000
   69.7258   76.5205   91.8695 C   0  0  0  0  0  0  0  0  0  0  0  0
   71.1025   76.7842   91.8095 C   0  0  0  0  0  0  0  0  0  0  0  0
   71.5992   77.7259   90.9067 C   0  0  0  0  0  0  0  0  0  0  0  0
   70.7281   78.4184   90.0630 C   0  0  0  0  0  0  0  0  0  0  0  0
   69.3429   78.1795   90.1177 C   0  0  0  0  0  0  0  0  0  0  0  0
   68.8500   77.2308   91.0324 C   0  0  0  0  0  0  0  0  0  0  0  0
   68.4165   78.9164   89.2214 C   0  0  0  0  0  0  0  0  0  0  0  0
   67.4922   78.2231   88.4205 C   0  0  0  0  0  0  0  0  0  0  0  0
   66.6155   78.9220   87.5882 C   0  0  0  0  0  0  0  0  0  0  0  0
   66.6454   80.3174   87.5503 C   0  0  0  0  0  0  0  0  0  0  0  0
   67.5526   81.0296   88.3415 C   0  0  0  0  0  0  0  0  0  0  0  0
   68.4478   80.3216   89.1668 C   0  0  0  0  0  0  0  0  0  0  0  0
   67.5290   82.4328   88.2802 O   0  0  0  0  0  0  0  0  0  0  0  0
   67.7833   83.2118   87.1098 C   0  0  0  0  0  0  0  0  0  0  0  0
   69.0027   84.0768   87.2953 C   0  0  0  0  0  0  0  0  0  0  0  0
   68.8593   85.4501   87.5511 C   0  0  0  0  0  0  0  0  0  0  0  0
   69.9879   86.2552   87.7330 C   0  0  0  0  0  0  0  0  0  0  0  0
   71.2679   85.6966   87.6540 C   0  0  0  0  0  0  0  0  0  0  0  0
   72.6827   86.7068   87.8870 Cl  0  0  0  0  0  0  0  0  0  0  0  0
   71.4184   84.3320   87.3868 C   0  0  0  0  0  0  0  0  0  0  0  0
   70.2917   83.5252   87.2023 C   0  0  0  0  0  0  0  0  0  0  0  0
   69.1848   75.5037   92.8404 C   0  0  0  0  0  0  0  0  0  0  0  0
   70.1822   74.5372   93.1750 O   0  0  0  0  0  0  0  0  0  0  0  0
   70.4303   70.8157   93.5529 C   0  0  0  0  0  0  0  0  0  0  0  0
   70.5149   72.1876   93.8525 C   0  0  0  0  0  0  0  0  0  0  0  0
   70.0946   73.1580   92.9238 C   0  0  0  0  0  0  0  0  0  0  0  0
   69.5728   72.7446   91.6966 C   0  0  0  0  0  0  0  0  0  0  0  0
   69.4607   71.3876   91.3950 C   0  0  0  0  0  0  0  0  0  0  0  0
   69.8646   70.4157   92.3161 C   0  0  0  0  0  0  0  0  0  0  0  0
   69.6548   69.0764   91.9801 O   0  0  0  0  0  0  0  0  0  0  0  0
   69.2779   68.8548   91.1514 H   0  0  0  0  0  0  0  0  0  0  0  0
   70.7072   69.9631   95.7625 O   0  0  0  0  0  0  0  0  0  0  0  0
   70.9697   69.8493   94.5353 C   0  0  0  0  0  0  0  0  0  0  0  0
   71.7238   68.7638   94.0973 O   0  0  0  0  0  0  0  0  0  0  0  0
   71.9246   68.6698   93.1869 H   0  0  0  0  0  0  0  0  0  0  0  0
 32 33  2  0  0  0
 33 34  1  0  0  0
 33 24  1  0  0  0
 24 25  2  0  0  0
 25 26  1  0  0  0
 26 23  1  0  0  0
 23 22  1  0  0  0
 22  1  1  0  0  0
  1  2  2  0  0  0
  2  3  1  0  0  0
  3  4  2  0  0  0
  4  5  1  0  0  0
  5  7  1  0  0  0
  7  8  2  0  0  0
  8  9  1  0  0  0
  9 10  2  0  0  0
 10 11  1  0  0  0
 11 13  1  0  0  0
 13 14  1  0  0  0
 14 15  1  0  0  0
 15 16  2  0  0  0
 16 17  1  0  0  0
 17 18  2  0  0  0
 18 19  1  0  0  0
 18 20  1  0  0  0
 20 21  2  0  0  0
 11 12  2  0  0  0
  5  6  2  0  0  0
 26 27  2  0  0  0
 27 28  1  0  0  0
 28 29  2  0  0  0
 29 30  1  0  0  0
 29 24  1  0  0  0
  6  1  1  0  0  0
 12  7  1  0  0  0
 21 15  1  0  0  0
 34 35  1  0  0  0
 30 31  1  0  0  0
M  END
> <score>
-1.0183

> <minimizedAffinity>
-9.62868

$$$$
HIPS6998


 35 38  0  0  0  0  0  0  0  0999 V2000
   70.3359   78.5060   90.6300 C   0  0  0  0  0  0  0  0  0  0  0  0
   68.9338   78.5537   90.6477 C   0  0  0  0  0  0  0  0  0  0  0  0
   68.2660   79.7302   90.3034 C   0  0  0  0  0  0  0  0  0  0  0  0
   68.9889   80.8654   89.9307 C   0  0  0  0  0  0  0  0  0  0  0  0
   70.3948   80.8340   89.8922 C   0  0  0  0  0  0  0  0  0  0  0  0
   71.0601   79.6435   90.2378 C   0  0  0  0  0  0  0  0  0  0  0  0
   71.1635   82.0406   89.4950 C   0  0  0  0  0  0  0  0  0  0  0  0
   72.4262   82.3018   90.0552 C   0  0  0  0  0  0  0  0  0  0  0  0
   73.1496   83.4321   89.6692 C   0  0  0  0  0  0  0  0  0  0  0  0
   72.6267   84.3090   88.7168 C   0  0  0  0  0  0  0  0  0  0  0  0
   71.3749   84.0679   88.1415 C   0  0  0  0  0  0  0  0  0  0  0  0
   70.6395   82.9368   88.5458 C   0  0  0  0  0  0  0  0  0  0  0  0
   70.9028   84.9710   87.1747 O   0  0  0  0  0  0  0  0  0  0  0  0
   69.6441   85.6455   87.2207 C   0  0  0  0  0  0  0  0  0  0  0  0
   69.5219   86.4686   88.4765 C   0  0  0  0  0  0  0  0  0  0  0  0
   68.8308   85.9591   89.5878 C   0  0  0  0  0  0  0  0  0  0  0  0
   68.7226   86.7157   90.7586 C   0  0  0  0  0  0  0  0  0  0  0  0
   69.2975   87.9891   90.8263 C   0  0  0  0  0  0  0  0  0  0  0  0
   69.1650   88.9352   92.2973 Cl  0  0  0  0  0  0  0  0  0  0  0  0
   69.9761   88.5080   89.7190 C   0  0  0  0  0  0  0  0  0  0  0  0
   70.0839   87.7545   88.5463 C   0  0  0  0  0  0  0  0  0  0  0  0
   71.0615   77.2396   91.0027 C   0  0  0  0  0  0  0  0  0  0  0  0
   70.9052   76.9530   92.3935 O   0  0  0  0  0  0  0  0  0  0  0  0
   68.7035   73.9507   92.8334 C   0  0  0  0  0  0  0  0  0  0  0  0
   69.6292   74.8445   92.2646 C   0  0  0  0  0  0  0  0  0  0  0  0
   70.0016   76.0242   92.9357 C   0  0  0  0  0  0  0  0  0  0  0  0
   69.4521   76.2962   94.1900 C   0  0  0  0  0  0  0  0  0  0  0  0
   68.5513   75.4078   94.7770 C   0  0  0  0  0  0  0  0  0  0  0  0
   68.1844   74.2271   94.1232 C   0  0  0  0  0  0  0  0  0  0  0  0
   67.3371   73.3471   94.8002 O   0  0  0  0  0  0  0  0  0  0  0  0
   67.0158   73.5682   95.6522 H   0  0  0  0  0  0  0  0  0  0  0  0
   69.0651   72.2603   91.1909 O   0  0  0  0  0  0  0  0  0  0  0  0
   68.2873   72.7734   92.0392 C   0  0  0  0  0  0  0  0  0  0  0  0
   67.0480   72.1831   92.2726 O   0  0  0  0  0  0  0  0  0  0  0  0
   66.4622   72.5566   92.9012 H   0  0  0  0  0  0  0  0  0  0  0  0
 32 33  2  0  0  0
 33 34  1  0  0  0
 33 24  1  0  0  0
 24 25  2  0  0  0
 25 26  1  0  0  0
 26 23  1  0  0  0
 23 22  1  0  0  0
 22  1  1  0  0  0
  1  2  2  0  0  0
  2  3  1  0  0  0
  3  4  2  0  0  0
  4  5  1  0  0  0
  5  7  1  0  0  0
  7  8  2  0  0  0
  8  9  1  0  0  0
  9 10  2  0  0  0
 10 11  1  0  0  0
 11 13  1  0  0  0
 13 14  1  0  0  0
 14 15  1  0  0  0
 15 16  2  0  0  0
 16 17  1  0  0  0
 17 18  2  0  0  0
 18 19  1  0  0  0
 18 20  1  0  0  0
 20 21  2  0  0  0
 11 12  2  0  0  0
  5  6  2  0  0  0
 26 27  2  0  0  0
 27 28  1  0  0  0
 28 29  2  0  0  0
 29 30  1  0  0  0
 29 24  1  0  0  0
  6  1  1  0  0  0
 12  7  1  0  0  0
 21 15  1  0  0  0
 34 35  1  0  0  0
 30 31  1  0  0  0
M  END
> <score>
-1.0183

> <minimizedAffinity>
-9.45310

$$$$
HIPS6998


 35 38  0  0  0  0  0  0  0  0999 V2000
   67.4733   79.1901   88.9044 C   0  0  0  0  0  0  0  0  0  0  0  0
   67.1187   79.3126   87.5525 C   0  0  0  0  0  0  0  0  0  0  0  0
   66.9450   78.1729   86.7653 C   0  0  0  0  0  0  0  0  0  0  0  0
   67.1148   76.9028   87.3203 C   0  0  0  0  0  0  0  0  0  0  0  0
   67.4559   76.7579   88.6774 C   0  0  0  0  0  0  0  0  0  0  0  0
   67.6262   77.9115   89.4647 C   0  0  0  0  0  0  0  0  0  0  0  0
   67.6356   75.4075   89.2679 C   0  0  0  0  0  0  0  0  0  0  0  0
   67.0149   74.2855   88.6915 C   0  0  0  0  0  0  0  0  0  0  0  0
   67.1969   73.0163   89.2445 C   0  0  0  0  0  0  0  0  0  0  0  0
   68.0038   72.8506   90.3717 C   0  0  0  0  0  0  0  0  0  0  0  0
   68.6357   73.9508   90.9602 C   0  0  0  0  0  0  0  0  0  0  0  0
   68.4362   75.2323   90.4111 C   0  0  0  0  0  0  0  0  0  0  0  0
   69.4517   73.7271   92.0816 O   0  0  0  0  0  0  0  0  0  0  0  0
   69.0603   73.9310   93.4405 C   0  0  0  0  0  0  0  0  0  0  0  0
   68.1024   75.0880   93.5552 C   0  0  0  0  0  0  0  0  0  0  0  0
   66.7261   74.8506   93.7026 C   0  0  0  0  0  0  0  0  0  0  0  0
   65.8343   75.9212   93.8186 C   0  0  0  0  0  0  0  0  0  0  0  0
   66.3089   77.2365   93.7815 C   0  0  0  0  0  0  0  0  0  0  0  0
   65.1895   78.5784   93.9319 Cl  0  0  0  0  0  0  0  0  0  0  0  0
   67.6768   77.4804   93.6221 C   0  0  0  0  0  0  0  0  0  0  0  0
   68.5704   76.4119   93.5036 C   0  0  0  0  0  0  0  0  0  0  0  0
   67.6640   80.4168   89.7578 C   0  0  0  0  0  0  0  0  0  0  0  0
   67.9966   81.5502   88.9543 O   0  0  0  0  0  0  0  0  0  0  0  0
   70.7580   83.9611   88.1692 C   0  0  0  0  0  0  0  0  0  0  0  0
   69.4936   83.3443   88.1604 C   0  0  0  0  0  0  0  0  0  0  0  0
   69.2375   82.2082   88.9506 C   0  0  0  0  0  0  0  0  0  0  0  0
   70.2531   81.7018   89.7638 C   0  0  0  0  0  0  0  0  0  0  0  0
   71.5044   82.3167   89.8011 C   0  0  0  0  0  0  0  0  0  0  0  0
   71.7646   83.4531   89.0285 C   0  0  0  0  0  0  0  0  0  0  0  0
   73.0135   84.0622   89.1706 O   0  0  0  0  0  0  0  0  0  0  0  0
   73.6513   83.6937   89.7498 H   0  0  0  0  0  0  0  0  0  0  0  0
   71.8960   85.9415   87.4846 O   0  0  0  0  0  0  0  0  0  0  0  0
   70.9896   85.0980   87.2507 C   0  0  0  0  0  0  0  0  0  0  0  0
   70.2428   85.2066   86.0805 O   0  0  0  0  0  0  0  0  0  0  0  0
   69.5665   84.5846   85.8969 H   0  0  0  0  0  0  0  0  0  0  0  0
 32 33  2  0  0  0
 33 34  1  0  0  0
 33 24  1  0  0  0
 24 25  2  0  0  0
 25 26  1  0  0  0
 26 23  1  0  0  0
 23 22  1  0  0  0
 22  1  1  0  0  0
  1  2  2  0  0  0
  2  3  1  0  0  0
  3  4  2  0  0  0
  4  5  1  0  0  0
  5  7  1  0  0  0
  7  8  2  0  0  0
  8  9  1  0  0  0
  9 10  2  0  0  0
 10 11  1  0  0  0
 11 13  1  0  0  0
 13 14  1  0  0  0
 14 15  1  0  0  0
 15 16  2  0  0  0
 16 17  1  0  0  0
 17 18  2  0  0  0
 18 19  1  0  0  0
 18 20  1  0  0  0
 20 21  2  0  0  0
 11 12  2  0  0  0
  5  6  2  0  0  0
 26 27  2  0  0  0
 27 28  1  0  0  0
 28 29  2  0  0  0
 29 30  1  0  0  0
 29 24  1  0  0  0
  6  1  1  0  0  0
 12  7  1  0  0  0
 21 15  1  0  0  0
 34 35  1  0  0  0
 30 31  1  0  0  0
M  END
> <score>
-1.0183

> <minimizedAffinity>
-9.28577

$$$$
HIPS6999


 35 38  0  0  0  0  0  0  0  0999 V2000
   70.2374   80.8560   89.8975 C   0  0  0  0  0  0  0  0  0  0  0  0
   68.8350   80.9597   89.9361 C   0  0  0  0  0  0  0  0  0  0  0  0
   68.0554   79.8669   90.3207 C   0  0  0  0  0  0  0  0  0  0  0  0
   68.6619   78.6576   90.6649 C   0  0  0  0  0  0  0  0  0  0  0  0
   70.0582   78.5290   90.6182 C   0  0  0  0  0  0  0  0  0  0  0  0
   70.8411   79.6345   90.2481 C   0  0  0  0  0  0  0  0  0  0  0  0
   71.3545   84.0581   88.1708 C   0  0  0  0  0  0  0  0  0  0  0  0
   72.6163   84.2403   88.7462 C   0  0  0  0  0  0  0  0  0  0  0  0
   73.1057   83.3291   89.6840 C   0  0  0  0  0  0  0  0  0  0  0  0
   72.3360   82.2260   90.0593 C   0  0  0  0  0  0  0  0  0  0  0  0
   71.0667   82.0189   89.4917 C   0  0  0  0  0  0  0  0  0  0  0  0
   70.5881   82.9348   88.5373 C   0  0  0  0  0  0  0  0  0  0  0  0
   70.9012   85.0141   87.2467 O   0  0  0  0  0  0  0  0  0  0  0  0
   69.6365   85.6768   87.2987 C   0  0  0  0  0  0  0  0  0  0  0  0
   69.1639   88.8791   92.1362 C   0  0  0  0  0  0  0  0  0  0  0  0
   69.2658   88.0646   90.8807 C   0  0  0  0  0  0  0  0  0  0  0  0
   69.9578   88.5650   89.7677 C   0  0  0  0  0  0  0  0  0  0  0  0
   70.0823   87.7929   88.6092 C   0  0  0  0  0  0  0  0  0  0  0  0
   69.5170   86.5089   88.5490 C   0  0  0  0  0  0  0  0  0  0  0  0
   68.8527   85.9970   89.6742 C   0  0  0  0  0  0  0  0  0  0  0  0
   68.7304   86.7687   90.8336 C   0  0  0  0  0  0  0  0  0  0  0  0
   70.7178   77.2252   90.9850 C   0  0  0  0  0  0  0  0  0  0  0  0
   70.1278   76.6688   92.1609 O   0  0  0  0  0  0  0  0  0  0  0  0
   69.2532   75.5698   92.1898 C   0  0  0  0  0  0  0  0  0  0  0  0
   69.0746   74.8398   91.0132 C   0  0  0  0  0  0  0  0  0  0  0  0
   68.2199   73.7381   90.9855 C   0  0  0  0  0  0  0  0  0  0  0  0
   67.5289   73.3413   92.1351 C   0  0  0  0  0  0  0  0  0  0  0  0
   66.7482   72.1858   92.0565 O   0  0  0  0  0  0  0  0  0  0  0  0
   67.6692   74.0912   93.3299 C   0  0  0  0  0  0  0  0  0  0  0  0
   68.5532   75.1855   93.3488 C   0  0  0  0  0  0  0  0  0  0  0  0
   66.6822   71.7192   91.2466 H   0  0  0  0  0  0  0  0  0  0  0  0
   66.8977   73.7924   94.5571 C   0  0  0  0  0  0  0  0  0  0  0  0
   67.4856   73.5369   95.6418 O   0  0  0  0  0  0  0  0  0  0  0  0
   65.5077   73.7293   94.5036 O   0  0  0  0  0  0  0  0  0  0  0  0
   65.0606   73.9174   93.7019 H   0  0  0  0  0  0  0  0  0  0  0  0
 15 16  1  0  0  0
 16 17  2  0  0  0
 17 18  1  0  0  0
 18 19  2  0  0  0
 19 14  1  0  0  0
 14 13  1  0  0  0
 13  7  1  0  0  0
  7  8  2  0  0  0
  8  9  1  0  0  0
  9 10  2  0  0  0
 10 11  1  0  0  0
 11  1  1  0  0  0
  1  2  2  0  0  0
  2  3  1  0  0  0
  3  4  2  0  0  0
  4  5  1  0  0  0
  5 22  1  0  0  0
 22 23  1  0  0  0
 23 24  1  0  0  0
 24 25  2  0  0  0
 25 26  1  0  0  0
 26 27  2  0  0  0
 27 28  1  0  0  0
 27 29  1  0  0  0
 29 32  1  0  0  0
 32 33  2  0  0  0
 32 34  1  0  0  0
 29 30  2  0  0  0
  5  6  2  0  0  0
 11 12  2  0  0  0
 19 20  1  0  0  0
 20 21  2  0  0  0
 21 16  1  0  0  0
 12  7  1  0  0  0
  6  1  1  0  0  0
 30 24  1  0  0  0
 28 31  1  0  0  0
 34 35  1  0  0  0
M  END
> <score>
-1.166813

> <minimizedAffinity>
-9.75755

$$$$
HIPS6999


 35 38  0  0  0  0  0  0  0  0999 V2000
   69.3061   78.2164   90.2115 C   0  0  0  0  0  0  0  0  0  0  0  0
   70.6986   78.4011   90.1366 C   0  0  0  0  0  0  0  0  0  0  0  0
   71.5532   77.6848   90.9772 C   0  0  0  0  0  0  0  0  0  0  0  0
   71.0314   76.7820   91.9054 C   0  0  0  0  0  0  0  0  0  0  0  0
   69.6447   76.5946   92.0063 C   0  0  0  0  0  0  0  0  0  0  0  0
   68.7883   77.3030   91.1480 C   0  0  0  0  0  0  0  0  0  0  0  0
   67.6037   81.1078   88.4158 C   0  0  0  0  0  0  0  0  0  0  0  0
   66.7057   80.4159   87.5965 C   0  0  0  0  0  0  0  0  0  0  0  0
   66.6473   79.0214   87.6285 C   0  0  0  0  0  0  0  0  0  0  0  0
   67.4898   78.3026   88.4793 C   0  0  0  0  0  0  0  0  0  0  0  0
   68.3975   78.9756   89.3154 C   0  0  0  0  0  0  0  0  0  0  0  0
   68.4391   80.3813   89.2863 C   0  0  0  0  0  0  0  0  0  0  0  0
   67.6357   82.5097   88.3313 O   0  0  0  0  0  0  0  0  0  0  0  0
   67.9316   83.2585   87.1509 C   0  0  0  0  0  0  0  0  0  0  0  0
   72.6213   86.6126   87.9484 C   0  0  0  0  0  0  0  0  0  0  0  0
   71.4115   85.7447   87.7669 C   0  0  0  0  0  0  0  0  0  0  0  0
   70.1255   86.3011   87.8367 C   0  0  0  0  0  0  0  0  0  0  0  0
   68.9985   85.4996   87.6340 C   0  0  0  0  0  0  0  0  0  0  0  0
   69.1428   84.1304   87.3575 C   0  0  0  0  0  0  0  0  0  0  0  0
   70.4306   83.5818   87.2563 C   0  0  0  0  0  0  0  0  0  0  0  0
   71.5576   84.3843   87.4568 C   0  0  0  0  0  0  0  0  0  0  0  0
   69.0761   75.6244   93.0087 C   0  0  0  0  0  0  0  0  0  0  0  0
   70.0480   74.6448   93.3777 O   0  0  0  0  0  0  0  0  0  0  0  0
   70.0174   73.2896   93.0088 C   0  0  0  0  0  0  0  0  0  0  0  0
   69.4467   72.9551   91.7793 C   0  0  0  0  0  0  0  0  0  0  0  0
   69.3916   71.6255   91.3618 C   0  0  0  0  0  0  0  0  0  0  0  0
   69.9095   70.6033   92.1637 C   0  0  0  0  0  0  0  0  0  0  0  0
   69.8891   69.3038   91.6521 O   0  0  0  0  0  0  0  0  0  0  0  0
   70.4604   70.9189   93.4311 C   0  0  0  0  0  0  0  0  0  0  0  0
   70.5307   72.2668   93.8280 C   0  0  0  0  0  0  0  0  0  0  0  0
   69.5151   69.1380   90.8091 H   0  0  0  0  0  0  0  0  0  0  0  0
   70.9383   69.8846   94.3756 C   0  0  0  0  0  0  0  0  0  0  0  0
   71.6057   68.8971   93.9667 O   0  0  0  0  0  0  0  0  0  0  0  0
   70.5959   69.9651   95.7230 O   0  0  0  0  0  0  0  0  0  0  0  0
   70.0998   70.6952   96.0375 H   0  0  0  0  0  0  0  0  0  0  0  0
 15 16  1  0  0  0
 16 17  2  0  0  0
 17 18  1  0  0  0
 18 19  2  0  0  0
 19 14  1  0  0  0
 14 13  1  0  0  0
 13  7  1  0  0  0
  7  8  2  0  0  0
  8  9  1  0  0  0
  9 10  2  0  0  0
 10 11  1  0  0  0
 11  1  1  0  0  0
  1  2  2  0  0  0
  2  3  1  0  0  0
  3  4  2  0  0  0
  4  5  1  0  0  0
  5 22  1  0  0  0
 22 23  1  0  0  0
 23 24  1  0  0  0
 24 25  2  0  0  0
 25 26  1  0  0  0
 26 27  2  0  0  0
 27 28  1  0  0  0
 27 29  1  0  0  0
 29 32  1  0  0  0
 32 33  2  0  0  0
 32 34  1  0  0  0
 29 30  2  0  0  0
  5  6  2  0  0  0
 11 12  2  0  0  0
 19 20  1  0  0  0
 20 21  2  0  0  0
 21 16  1  0  0  0
 12  7  1  0  0  0
  6  1  1  0  0  0
 30 24  1  0  0  0
 28 31  1  0  0  0
 34 35  1  0  0  0
M  END
> <score>
-1.166813

> <minimizedAffinity>
-9.66370

$$$$
HIPS6999


 35 38  0  0  0  0  0  0  0  0999 V2000
   69.0703   79.9943   90.2335 C   0  0  0  0  0  0  0  0  0  0  0  0
   70.4263   79.6221   90.1911 C   0  0  0  0  0  0  0  0  0  0  0  0
   70.7981   78.2855   90.3499 C   0  0  0  0  0  0  0  0  0  0  0  0
   69.8257   77.3058   90.5588 C   0  0  0  0  0  0  0  0  0  0  0  0
   68.4692   77.6584   90.6196 C   0  0  0  0  0  0  0  0  0  0  0  0
   68.0964   79.0007   90.4422 C   0  0  0  0  0  0  0  0  0  0  0  0
   68.5210   83.4174   88.6642 C   0  0  0  0  0  0  0  0  0  0  0  0
   67.8964   84.0924   89.7182 C   0  0  0  0  0  0  0  0  0  0  0  0
   67.6590   83.4452   90.9322 C   0  0  0  0  0  0  0  0  0  0  0  0
   68.0414   82.1131   91.1045 C   0  0  0  0  0  0  0  0  0  0  0  0
   68.6747   81.4151   90.0615 C   0  0  0  0  0  0  0  0  0  0  0  0
   68.9222   82.0799   88.8469 C   0  0  0  0  0  0  0  0  0  0  0  0
   68.7193   84.1085   87.4573 O   0  0  0  0  0  0  0  0  0  0  0  0
   68.6753   85.5282   87.3028 C   0  0  0  0  0  0  0  0  0  0  0  0
   73.7571   87.9252   88.8220 C   0  0  0  0  0  0  0  0  0  0  0  0
   72.4465   87.2965   88.4521 C   0  0  0  0  0  0  0  0  0  0  0  0
   71.2398   87.9303   88.7842 C   0  0  0  0  0  0  0  0  0  0  0  0
   70.0188   87.3621   88.4101 C   0  0  0  0  0  0  0  0  0  0  0  0
   69.9884   86.1524   87.6975 C   0  0  0  0  0  0  0  0  0  0  0  0
   71.1970   85.5361   87.3383 C   0  0  0  0  0  0  0  0  0  0  0  0
   72.4181   86.1059   87.7105 C   0  0  0  0  0  0  0  0  0  0  0  0
   67.4160   76.6059   90.8484 C   0  0  0  0  0  0  0  0  0  0  0  0
   66.8006   76.7704   92.1269 O   0  0  0  0  0  0  0  0  0  0  0  0
   66.9348   75.8900   93.2134 C   0  0  0  0  0  0  0  0  0  0  0  0
   65.8984   75.8345   94.1472 C   0  0  0  0  0  0  0  0  0  0  0  0
   65.9779   74.9768   95.2441 C   0  0  0  0  0  0  0  0  0  0  0  0
   67.0939   74.1539   95.4277 C   0  0  0  0  0  0  0  0  0  0  0  0
   67.0749   73.2658   96.5055 O   0  0  0  0  0  0  0  0  0  0  0  0
   68.1723   74.2220   94.5101 C   0  0  0  0  0  0  0  0  0  0  0  0
   68.0672   75.0744   93.3958 C   0  0  0  0  0  0  0  0  0  0  0  0
   66.3420   73.2529   97.0891 H   0  0  0  0  0  0  0  0  0  0  0  0
   69.4256   73.4559   94.6905 C   0  0  0  0  0  0  0  0  0  0  0  0
   70.3124   73.4507   93.7954 O   0  0  0  0  0  0  0  0  0  0  0  0
   69.6051   72.6796   95.8326 O   0  0  0  0  0  0  0  0  0  0  0  0
   68.9517   72.6763   96.5042 H   0  0  0  0  0  0  0  0  0  0  0  0
 15 16  1  0  0  0
 16 17  2  0  0  0
 17 18  1  0  0  0
 18 19  2  0  0  0
 19 14  1  0  0  0
 14 13  1  0  0  0
 13  7  1  0  0  0
  7  8  2  0  0  0
  8  9  1  0  0  0
  9 10  2  0  0  0
 10 11  1  0  0  0
 11  1  1  0  0  0
  1  2  2  0  0  0
  2  3  1  0  0  0
  3  4  2  0  0  0
  4  5  1  0  0  0
  5 22  1  0  0  0
 22 23  1  0  0  0
 23 24  1  0  0  0
 24 25  2  0  0  0
 25 26  1  0  0  0
 26 27  2  0  0  0
 27 28  1  0  0  0
 27 29  1  0  0  0
 29 32  1  0  0  0
 32 33  2  0  0  0
 32 34  1  0  0  0
 29 30  2  0  0  0
  5  6  2  0  0  0
 11 12  2  0  0  0
 19 20  1  0  0  0
 20 21  2  0  0  0
 21 16  1  0  0  0
 12  7  1  0  0  0
  6  1  1  0  0  0
 30 24  1  0  0  0
 28 31  1  0  0  0
 34 35  1  0  0  0
M  END
> <score>
-1.166813

> <minimizedAffinity>
-9.39930

$$$$
HIPS7000


 38 41  0  0  0  0  0  0  0  0999 V2000
   68.8663   73.7825   90.9540 C   0  0  0  0  0  0  0  0  0  0  0  0
   68.2112   72.6300   90.4981 C   0  0  0  0  0  0  0  0  0  0  0  0
   67.2822   72.7144   89.4585 C   0  0  0  0  0  0  0  0  0  0  0  0
   67.0177   73.9455   88.8526 C   0  0  0  0  0  0  0  0  0  0  0  0
   67.6508   75.1196   89.3084 C   0  0  0  0  0  0  0  0  0  0  0  0
   68.5451   75.0281   90.3924 C   0  0  0  0  0  0  0  0  0  0  0  0
   67.4376   76.4203   88.6135 C   0  0  0  0  0  0  0  0  0  0  0  0
   67.0585   76.4601   87.2599 C   0  0  0  0  0  0  0  0  0  0  0  0
   66.8945   77.6826   86.6044 C   0  0  0  0  0  0  0  0  0  0  0  0
   67.1062   78.8815   87.2876 C   0  0  0  0  0  0  0  0  0  0  0  0
   67.4775   78.8663   88.6437 C   0  0  0  0  0  0  0  0  0  0  0  0
   67.6430   77.6379   89.2924 C   0  0  0  0  0  0  0  0  0  0  0  0
   67.6699   80.0359   89.3979 O   0  0  0  0  0  0  0  0  0  0  0  0
   68.6872   80.2396   90.3770 C   0  0  0  0  0  0  0  0  0  0  0  0
   69.6512   81.2910   89.9046 C   0  0  0  0  0  0  0  0  0  0  0  0
   70.9733   81.2913   90.3736 C   0  0  0  0  0  0  0  0  0  0  0  0
   71.8825   82.2565   89.9265 C   0  0  0  0  0  0  0  0  0  0  0  0
   71.4934   83.2193   88.9790 C   0  0  0  0  0  0  0  0  0  0  0  0
   70.1654   83.2206   88.5168 C   0  0  0  0  0  0  0  0  0  0  0  0
   69.2547   82.2571   88.9674 C   0  0  0  0  0  0  0  0  0  0  0  0
   72.4585   84.2967   88.5452 C   0  0  0  0  0  0  0  0  0  0  0  0
   71.8346   85.5338   88.5166 F   0  0  0  0  0  0  0  0  0  0  0  0
   73.5176   84.3463   89.4357 F   0  0  0  0  0  0  0  0  0  0  0  0
   72.9470   84.0295   87.2780 F   0  0  0  0  0  0  0  0  0  0  0  0
   69.9977   73.6636   91.9447 C   0  0  0  0  0  0  0  0  0  0  0  0
   70.0564   74.8251   92.7795 O   0  0  0  0  0  0  0  0  0  0  0  0
   66.7889   75.7397   94.3575 C   0  0  0  0  0  0  0  0  0  0  0  0
   67.9592   75.0215   94.0618 C   0  0  0  0  0  0  0  0  0  0  0  0
   68.9429   75.5662   93.2169 C   0  0  0  0  0  0  0  0  0  0  0  0
   68.7948   76.8786   92.7569 C   0  0  0  0  0  0  0  0  0  0  0  0
   67.6523   77.6180   93.0788 C   0  0  0  0  0  0  0  0  0  0  0  0
   66.6429   77.0594   93.8696 C   0  0  0  0  0  0  0  0  0  0  0  0
   65.5287   77.8468   94.1721 O   0  0  0  0  0  0  0  0  0  0  0  0
   65.4641   78.7175   93.8318 H   0  0  0  0  0  0  0  0  0  0  0  0
   65.2306   75.6068   96.1449 O   0  0  0  0  0  0  0  0  0  0  0  0
   65.7229   75.0631   95.1171 C   0  0  0  0  0  0  0  0  0  0  0  0
   65.2066   73.8521   94.6609 O   0  0  0  0  0  0  0  0  0  0  0  0
   65.5693   73.4456   93.8986 H   0  0  0  0  0  0  0  0  0  0  0  0
 35 36  2  0  0  0
 36 37  1  0  0  0
 36 27  1  0  0  0
 27 28  2  0  0  0
 28 29  1  0  0  0
 29 26  1  0  0  0
 26 25  1  0  0  0
 25  1  1  0  0  0
  1  2  2  0  0  0
  2  3  1  0  0  0
  3  4  2  0  0  0
  4  5  1  0  0  0
  5  7  1  0  0  0
  7  8  2  0  0  0
  8  9  1  0  0  0
  9 10  2  0  0  0
 10 11  1  0  0  0
 11 13  1  0  0  0
 13 14  1  0  0  0
 14 15  1  0  0  0
 15 16  2  0  0  0
 16 17  1  0  0  0
 17 18  2  0  0  0
 18 21  1  0  0  0
 21 22  1  0  0  0
 21 23  1  0  0  0
 21 24  1  0  0  0
 18 19  1  0  0  0
 19 20  2  0  0  0
 11 12  2  0  0  0
  5  6  2  0  0  0
 29 30  2  0  0  0
 30 31  1  0  0  0
 31 32  2  0  0  0
 32 33  1  0  0  0
 32 27  1  0  0  0
  6  1  1  0  0  0
 12  7  1  0  0  0
 20 15  1  0  0  0
 37 38  1  0  0  0
 33 34  1  0  0  0
M  END
> <score>
-1.222361

> <minimizedAffinity>
-10.17618

$$$$
HIPS7000


 38 41  0  0  0  0  0  0  0  0999 V2000
   69.7560   76.4880   91.8137 C   0  0  0  0  0  0  0  0  0  0  0  0
   71.1307   76.7604   91.7788 C   0  0  0  0  0  0  0  0  0  0  0  0
   71.6347   77.7210   90.8988 C   0  0  0  0  0  0  0  0  0  0  0  0
   70.7676   78.4312   90.0643 C   0  0  0  0  0  0  0  0  0  0  0  0
   69.3845   78.1593   90.0695 C   0  0  0  0  0  0  0  0  0  0  0  0
   68.8971   77.1511   90.9234 C   0  0  0  0  0  0  0  0  0  0  0  0
   68.4446   78.9695   89.2447 C   0  0  0  0  0  0  0  0  0  0  0  0
   67.4399   78.3502   88.4801 C   0  0  0  0  0  0  0  0  0  0  0  0
   66.5843   79.1126   87.6815 C   0  0  0  0  0  0  0  0  0  0  0  0
   66.7181   80.5013   87.6330 C   0  0  0  0  0  0  0  0  0  0  0  0
   67.7100   81.1430   88.3954 C   0  0  0  0  0  0  0  0  0  0  0  0
   68.5651   80.3724   89.1904 C   0  0  0  0  0  0  0  0  0  0  0  0
   67.8737   82.5382   88.4199 O   0  0  0  0  0  0  0  0  0  0  0  0
   68.0976   83.3721   87.2843 C   0  0  0  0  0  0  0  0  0  0  0  0
   69.2821   84.2641   87.5280 C   0  0  0  0  0  0  0  0  0  0  0  0
   70.5783   83.7282   87.5116 C   0  0  0  0  0  0  0  0  0  0  0  0
   71.6882   84.5543   87.7211 C   0  0  0  0  0  0  0  0  0  0  0  0
   71.5226   85.9360   87.9198 C   0  0  0  0  0  0  0  0  0  0  0  0
   70.2214   86.4685   87.9432 C   0  0  0  0  0  0  0  0  0  0  0  0
   69.1106   85.6409   87.7375 C   0  0  0  0  0  0  0  0  0  0  0  0
   72.7169   86.8144   88.2069 C   0  0  0  0  0  0  0  0  0  0  0  0
   73.3948   87.1208   87.0376 F   0  0  0  0  0  0  0  0  0  0  0  0
   72.2872   87.9894   88.8001 F   0  0  0  0  0  0  0  0  0  0  0  0
   73.5969   86.1734   89.0615 F   0  0  0  0  0  0  0  0  0  0  0  0
   69.1934   75.5892   92.8867 C   0  0  0  0  0  0  0  0  0  0  0  0
   70.1460   74.5836   93.2480 O   0  0  0  0  0  0  0  0  0  0  0  0
   70.4223   70.8608   93.5079 C   0  0  0  0  0  0  0  0  0  0  0  0
   70.4252   72.2157   93.8777 C   0  0  0  0  0  0  0  0  0  0  0  0
   70.0200   73.2099   92.9691 C   0  0  0  0  0  0  0  0  0  0  0  0
   69.5104   72.8278   91.7241 C   0  0  0  0  0  0  0  0  0  0  0  0
   69.4647   71.4782   91.3606 C   0  0  0  0  0  0  0  0  0  0  0  0
   69.9224   70.4895   92.2377 C   0  0  0  0  0  0  0  0  0  0  0  0
   69.8415   69.1554   91.8295 O   0  0  0  0  0  0  0  0  0  0  0  0
   69.5050   68.9447   90.9808 H   0  0  0  0  0  0  0  0  0  0  0  0
   71.8693   69.0527   94.0346 O   0  0  0  0  0  0  0  0  0  0  0  0
   71.0031   69.8775   94.4390 C   0  0  0  0  0  0  0  0  0  0  0  0
   70.6483   69.9030   95.7861 O   0  0  0  0  0  0  0  0  0  0  0  0
   70.0059   70.5137   96.0900 H   0  0  0  0  0  0  0  0  0  0  0  0
 35 36  2  0  0  0
 36 37  1  0  0  0
 36 27  1  0  0  0
 27 28  2  0  0  0
 28 29  1  0  0  0
 29 26  1  0  0  0
 26 25  1  0  0  0
 25  1  1  0  0  0
  1  2  2  0  0  0
  2  3  1  0  0  0
  3  4  2  0  0  0
  4  5  1  0  0  0
  5  7  1  0  0  0
  7  8  2  0  0  0
  8  9  1  0  0  0
  9 10  2  0  0  0
 10 11  1  0  0  0
 11 13  1  0  0  0
 13 14  1  0  0  0
 14 15  1  0  0  0
 15 16  2  0  0  0
 16 17  1  0  0  0
 17 18  2  0  0  0
 18 21  1  0  0  0
 21 22  1  0  0  0
 21 23  1  0  0  0
 21 24  1  0  0  0
 18 19  1  0  0  0
 19 20  2  0  0  0
 11 12  2  0  0  0
  5  6  2  0  0  0
 29 30  2  0  0  0
 30 31  1  0  0  0
 31 32  2  0  0  0
 32 33  1  0  0  0
 32 27  1  0  0  0
  6  1  1  0  0  0
 12  7  1  0  0  0
 20 15  1  0  0  0
 37 38  1  0  0  0
 33 34  1  0  0  0
M  END
> <score>
-1.222361

> <minimizedAffinity>
-9.98454

$$$$
HIPS7000


 38 41  0  0  0  0  0  0  0  0999 V2000
   68.3950   74.3740   94.4617 C   0  0  0  0  0  0  0  0  0  0  0  0
   67.3458   73.6496   95.0445 C   0  0  0  0  0  0  0  0  0  0  0  0
   66.0697   74.2105   95.1348 C   0  0  0  0  0  0  0  0  0  0  0  0
   65.8277   75.4886   94.6243 C   0  0  0  0  0  0  0  0  0  0  0  0
   66.8728   76.2417   94.0519 C   0  0  0  0  0  0  0  0  0  0  0  0
   68.1658   75.6849   94.0156 C   0  0  0  0  0  0  0  0  0  0  0  0
   66.6049   77.5692   93.4306 C   0  0  0  0  0  0  0  0  0  0  0  0
   65.4812   78.3267   93.8063 C   0  0  0  0  0  0  0  0  0  0  0  0
   65.2162   79.5543   93.1949 C   0  0  0  0  0  0  0  0  0  0  0  0
   66.0658   80.0437   92.2012 C   0  0  0  0  0  0  0  0  0  0  0  0
   67.2000   79.3076   91.8153 C   0  0  0  0  0  0  0  0  0  0  0  0
   67.4570   78.0774   92.4300 C   0  0  0  0  0  0  0  0  0  0  0  0
   68.1141   79.7603   90.8492 O   0  0  0  0  0  0  0  0  0  0  0  0
   67.8278   80.6768   89.7943 C   0  0  0  0  0  0  0  0  0  0  0  0
   69.0298   81.5359   89.5202 C   0  0  0  0  0  0  0  0  0  0  0  0
   70.2309   81.3001   90.2055 C   0  0  0  0  0  0  0  0  0  0  0  0
   71.3601   82.0844   89.9447 C   0  0  0  0  0  0  0  0  0  0  0  0
   71.3163   83.0979   88.9718 C   0  0  0  0  0  0  0  0  0  0  0  0
   70.1086   83.3365   88.2922 C   0  0  0  0  0  0  0  0  0  0  0  0
   68.9776   82.5541   88.5562 C   0  0  0  0  0  0  0  0  0  0  0  0
   72.5173   83.9825   88.7365 C   0  0  0  0  0  0  0  0  0  0  0  0
   72.1632   85.3208   88.8018 F   0  0  0  0  0  0  0  0  0  0  0  0
   73.4730   83.7213   89.7039 F   0  0  0  0  0  0  0  0  0  0  0  0
   73.0620   83.7398   87.4875 F   0  0  0  0  0  0  0  0  0  0  0  0
   69.7196   73.7015   94.1989 C   0  0  0  0  0  0  0  0  0  0  0  0
   70.1758   73.9944   92.8740 O   0  0  0  0  0  0  0  0  0  0  0  0
   68.1130   75.0326   89.9294 C   0  0  0  0  0  0  0  0  0  0  0  0
   69.0269   75.1017   90.9937 C   0  0  0  0  0  0  0  0  0  0  0  0
   69.3807   73.9464   91.7137 C   0  0  0  0  0  0  0  0  0  0  0  0
   68.8945   72.7051   91.2912 C   0  0  0  0  0  0  0  0  0  0  0  0
   68.0156   72.6197   90.2069 C   0  0  0  0  0  0  0  0  0  0  0  0
   67.6135   73.7726   89.5247 C   0  0  0  0  0  0  0  0  0  0  0  0
   66.7443   73.6289   88.4399 O   0  0  0  0  0  0  0  0  0  0  0  0
   66.4323   72.7789   88.1988 H   0  0  0  0  0  0  0  0  0  0  0  0
   66.4354   76.4631   89.0462 O   0  0  0  0  0  0  0  0  0  0  0  0
   67.6577   76.2907   89.3122 C   0  0  0  0  0  0  0  0  0  0  0  0
   68.5668   77.3219   89.0855 O   0  0  0  0  0  0  0  0  0  0  0  0
   69.4745   77.1977   89.2817 H   0  0  0  0  0  0  0  0  0  0  0  0
 35 36  2  0  0  0
 36 37  1  0  0  0
 36 27  1  0  0  0
 27 28  2  0  0  0
 28 29  1  0  0  0
 29 26  1  0  0  0
 26 25  1  0  0  0
 25  1  1  0  0  0
  1  2  2  0  0  0
  2  3  1  0  0  0
  3  4  2  0  0  0
  4  5  1  0  0  0
  5  7  1  0  0  0
  7  8  2  0  0  0
  8  9  1  0  0  0
  9 10  2  0  0  0
 10 11  1  0  0  0
 11 13  1  0  0  0
 13 14  1  0  0  0
 14 15  1  0  0  0
 15 16  2  0  0  0
 16 17  1  0  0  0
 17 18  2  0  0  0
 18 21  1  0  0  0
 21 22  1  0  0  0
 21 23  1  0  0  0
 21 24  1  0  0  0
 18 19  1  0  0  0
 19 20  2  0  0  0
 11 12  2  0  0  0
  5  6  2  0  0  0
 29 30  2  0  0  0
 30 31  1  0  0  0
 31 32  2  0  0  0
 32 33  1  0  0  0
 32 27  1  0  0  0
  6  1  1  0  0  0
 12  7  1  0  0  0
 20 15  1  0  0  0
 37 38  1  0  0  0
 33 34  1  0  0  0
M  END
> <score>
-1.222361

> <minimizedAffinity>
-9.86935

$$$$
HIPS7001


 36 39  0  0  0  0  0  0  0  0999 V2000
   69.3502   78.1249   90.1706 C   0  0  0  0  0  0  0  0  0  0  0  0
   70.7389   78.3318   90.0963 C   0  0  0  0  0  0  0  0  0  0  0  0
   71.6034   77.6378   90.9464 C   0  0  0  0  0  0  0  0  0  0  0  0
   71.0945   76.7270   91.8746 C   0  0  0  0  0  0  0  0  0  0  0  0
   69.7122   76.5092   91.9660 C   0  0  0  0  0  0  0  0  0  0  0  0
   68.8446   77.2226   91.1231 C   0  0  0  0  0  0  0  0  0  0  0  0
   67.5639   80.9144   88.3067 C   0  0  0  0  0  0  0  0  0  0  0  0
   66.6775   80.1707   87.5045 C   0  0  0  0  0  0  0  0  0  0  0  0
   66.6689   78.7766   87.5731 C   0  0  0  0  0  0  0  0  0  0  0  0
   67.5376   78.1094   88.4384 C   0  0  0  0  0  0  0  0  0  0  0  0
   68.4298   78.8336   89.2479 C   0  0  0  0  0  0  0  0  0  0  0  0
   68.4350   80.2382   89.1704 C   0  0  0  0  0  0  0  0  0  0  0  0
   67.6102   82.3174   88.2846 O   0  0  0  0  0  0  0  0  0  0  0  0
   67.8507   83.1187   87.1278 C   0  0  0  0  0  0  0  0  0  0  0  0
   71.2159   85.7360   87.7952 C   0  0  0  0  0  0  0  0  0  0  0  0
   71.4163   84.3598   87.6286 C   0  0  0  0  0  0  0  0  0  0  0  0
   70.3253   83.5139   87.4089 C   0  0  0  0  0  0  0  0  0  0  0  0
   69.0228   84.0372   87.3504 C   0  0  0  0  0  0  0  0  0  0  0  0
   68.8260   85.4166   87.5318 C   0  0  0  0  0  0  0  0  0  0  0  0
   69.9184   86.2619   87.7490 C   0  0  0  0  0  0  0  0  0  0  0  0
   73.2444   87.3074   88.1951 N   0  0  0  0  0  0  0  0  0  0  0  0
   72.3404   86.6069   88.0171 C   0  0  0  0  0  0  0  0  0  0  0  0
   69.1738   75.5062   92.9521 C   0  0  0  0  0  0  0  0  0  0  0  0
   70.1712   74.5365   93.2779 O   0  0  0  0  0  0  0  0  0  0  0  0
   70.1147   73.1695   92.9554 C   0  0  0  0  0  0  0  0  0  0  0  0
   69.5587   72.8047   91.7280 C   0  0  0  0  0  0  0  0  0  0  0  0
   69.4684   71.4618   91.3619 C   0  0  0  0  0  0  0  0  0  0  0  0
   69.9331   70.4552   92.2148 C   0  0  0  0  0  0  0  0  0  0  0  0
   69.8761   69.1384   91.7535 O   0  0  0  0  0  0  0  0  0  0  0  0
   70.4698   70.8031   93.4805 C   0  0  0  0  0  0  0  0  0  0  0  0
   70.5853   72.1638   93.8195 C   0  0  0  0  0  0  0  0  0  0  0  0
   69.5130   68.9527   90.9099 H   0  0  0  0  0  0  0  0  0  0  0  0
   70.8771   69.7941   94.4868 C   0  0  0  0  0  0  0  0  0  0  0  0
   70.6676   69.9852   95.7152 O   0  0  0  0  0  0  0  0  0  0  0  0
   71.5643   68.6506   94.0849 O   0  0  0  0  0  0  0  0  0  0  0  0
   71.7263   68.4970   93.1749 H   0  0  0  0  0  0  0  0  0  0  0  0
 21 22  3  0  0  0
 22 15  1  0  0  0
 15 16  2  0  0  0
 16 17  1  0  0  0
 17 18  2  0  0  0
 18 14  1  0  0  0
 14 13  1  0  0  0
 13  7  1  0  0  0
  7  8  2  0  0  0
  8  9  1  0  0  0
  9 10  2  0  0  0
 10 11  1  0  0  0
 11  1  1  0  0  0
  1  2  2  0  0  0
  2  3  1  0  0  0
  3  4  2  0  0  0
  4  5  1  0  0  0
  5 23  1  0  0  0
 23 24  1  0  0  0
 24 25  1  0  0  0
 25 26  2  0  0  0
 26 27  1  0  0  0
 27 28  2  0  0  0
 28 29  1  0  0  0
 28 30  1  0  0  0
 30 33  1  0  0  0
 33 34  2  0  0  0
 33 35  1  0  0  0
 30 31  2  0  0  0
  5  6  2  0  0  0
 11 12  2  0  0  0
 18 19  1  0  0  0
 19 20  2  0  0  0
 20 15  1  0  0  0
 12  7  1  0  0  0
  6  1  1  0  0  0
 31 25  1  0  0  0
 29 32  1  0  0  0
 35 36  1  0  0  0
M  END
> <score>
-0.970519

> <minimizedAffinity>
-9.37397

$$$$
HIPS7001


 36 39  0  0  0  0  0  0  0  0999 V2000
   67.4353   76.7109   88.7253 C   0  0  0  0  0  0  0  0  0  0  0  0
   67.0458   76.8580   87.3824 C   0  0  0  0  0  0  0  0  0  0  0  0
   66.8628   78.1302   86.8348 C   0  0  0  0  0  0  0  0  0  0  0  0
   67.0712   79.2681   87.6169 C   0  0  0  0  0  0  0  0  0  0  0  0
   67.4568   79.1419   88.9593 C   0  0  0  0  0  0  0  0  0  0  0  0
   67.6214   77.8614   89.5120 C   0  0  0  0  0  0  0  0  0  0  0  0
   68.7487   73.9233   90.9503 C   0  0  0  0  0  0  0  0  0  0  0  0
   68.0998   72.8079   90.3871 C   0  0  0  0  0  0  0  0  0  0  0  0
   67.2434   72.9696   89.2968 C   0  0  0  0  0  0  0  0  0  0  0  0
   67.0252   74.2376   88.7556 C   0  0  0  0  0  0  0  0  0  0  0  0
   67.6639   75.3638   89.3030 C   0  0  0  0  0  0  0  0  0  0  0  0
   68.5226   75.1932   90.4041 C   0  0  0  0  0  0  0  0  0  0  0  0
   69.6259   73.8184   92.0414 O   0  0  0  0  0  0  0  0  0  0  0  0
   69.2720   74.0215   93.4094 C   0  0  0  0  0  0  0  0  0  0  0  0
   66.3398   77.1690   93.7497 C   0  0  0  0  0  0  0  0  0  0  0  0
   65.9429   75.8271   93.8113 C   0  0  0  0  0  0  0  0  0  0  0  0
   66.8947   74.8089   93.7045 C   0  0  0  0  0  0  0  0  0  0  0  0
   68.2538   75.1232   93.5382 C   0  0  0  0  0  0  0  0  0  0  0  0
   68.6448   76.4707   93.4633 C   0  0  0  0  0  0  0  0  0  0  0  0
   67.6922   77.4883   93.5728 C   0  0  0  0  0  0  0  0  0  0  0  0
   64.5715   79.0596   93.9568 N   0  0  0  0  0  0  0  0  0  0  0  0
   65.3596   78.2169   93.8642 C   0  0  0  0  0  0  0  0  0  0  0  0
   67.7046   80.3746   89.7883 C   0  0  0  0  0  0  0  0  0  0  0  0
   68.0455   81.4822   88.9526 O   0  0  0  0  0  0  0  0  0  0  0  0
   69.2894   82.1366   88.9345 C   0  0  0  0  0  0  0  0  0  0  0  0
   70.2687   81.7151   89.8355 C   0  0  0  0  0  0  0  0  0  0  0  0
   71.5171   82.3364   89.8675 C   0  0  0  0  0  0  0  0  0  0  0  0
   71.8133   83.3916   88.9983 C   0  0  0  0  0  0  0  0  0  0  0  0
   73.1058   83.9188   89.0367 O   0  0  0  0  0  0  0  0  0  0  0  0
   70.8203   83.8572   88.0992 C   0  0  0  0  0  0  0  0  0  0  0  0
   69.5786   83.1969   88.0560 C   0  0  0  0  0  0  0  0  0  0  0  0
   73.7315   83.5814   89.6472 H   0  0  0  0  0  0  0  0  0  0  0  0
   71.0145   85.0406   87.2283 C   0  0  0  0  0  0  0  0  0  0  0  0
   71.8307   85.9482   87.5436 O   0  0  0  0  0  0  0  0  0  0  0  0
   70.2377   85.1942   86.0819 O   0  0  0  0  0  0  0  0  0  0  0  0
   69.6273   84.5268   85.8367 H   0  0  0  0  0  0  0  0  0  0  0  0
 21 22  3  0  0  0
 22 15  1  0  0  0
 15 16  2  0  0  0
 16 17  1  0  0  0
 17 18  2  0  0  0
 18 14  1  0  0  0
 14 13  1  0  0  0
 13  7  1  0  0  0
  7  8  2  0  0  0
  8  9  1  0  0  0
  9 10  2  0  0  0
 10 11  1  0  0  0
 11  1  1  0  0  0
  1  2  2  0  0  0
  2  3  1  0  0  0
  3  4  2  0  0  0
  4  5  1  0  0  0
  5 23  1  0  0  0
 23 24  1  0  0  0
 24 25  1  0  0  0
 25 26  2  0  0  0
 26 27  1  0  0  0
 27 28  2  0  0  0
 28 29  1  0  0  0
 28 30  1  0  0  0
 30 33  1  0  0  0
 33 34  2  0  0  0
 33 35  1  0  0  0
 30 31  2  0  0  0
  5  6  2  0  0  0
 11 12  2  0  0  0
 18 19  1  0  0  0
 19 20  2  0  0  0
 20 15  1  0  0  0
 12  7  1  0  0  0
  6  1  1  0  0  0
 31 25  1  0  0  0
 29 32  1  0  0  0
 35 36  1  0  0  0
M  END
> <score>
-0.970519

> <minimizedAffinity>
-9.22818

$$$$
HIPS7001


 36 39  0  0  0  0  0  0  0  0999 V2000
   70.1731   80.9422   89.8783 C   0  0  0  0  0  0  0  0  0  0  0  0
   68.7863   81.1038   90.0439 C   0  0  0  0  0  0  0  0  0  0  0  0
   67.9982   80.0382   90.4856 C   0  0  0  0  0  0  0  0  0  0  0  0
   68.5837   78.8033   90.7722 C   0  0  0  0  0  0  0  0  0  0  0  0
   69.9648   78.6215   90.6103 C   0  0  0  0  0  0  0  0  0  0  0  0
   70.7513   79.6891   90.1478 C   0  0  0  0  0  0  0  0  0  0  0  0
   71.4045   83.9892   87.9688 C   0  0  0  0  0  0  0  0  0  0  0  0
   72.6331   84.2266   88.6141 C   0  0  0  0  0  0  0  0  0  0  0  0
   73.0483   83.4013   89.6604 C   0  0  0  0  0  0  0  0  0  0  0  0
   72.2498   82.3335   90.0736 C   0  0  0  0  0  0  0  0  0  0  0  0
   71.0201   82.0794   89.4420 C   0  0  0  0  0  0  0  0  0  0  0  0
   70.6068   82.9179   88.3908 C   0  0  0  0  0  0  0  0  0  0  0  0
   70.9411   84.7816   86.9065 O   0  0  0  0  0  0  0  0  0  0  0  0
   70.0804   85.9134   87.0335 C   0  0  0  0  0  0  0  0  0  0  0  0
   67.4843   85.4475   90.4487 C   0  0  0  0  0  0  0  0  0  0  0  0
   68.6666   86.1904   90.5590 C   0  0  0  0  0  0  0  0  0  0  0  0
   69.5046   86.3433   89.4506 C   0  0  0  0  0  0  0  0  0  0  0  0
   69.1662   85.7569   88.2196 C   0  0  0  0  0  0  0  0  0  0  0  0
   67.9859   85.0014   88.1180 C   0  0  0  0  0  0  0  0  0  0  0  0
   67.1473   84.8513   89.2267 C   0  0  0  0  0  0  0  0  0  0  0  0
   65.9250   85.1715   92.5069 N   0  0  0  0  0  0  0  0  0  0  0  0
   66.6197   85.2943   91.5894 C   0  0  0  0  0  0  0  0  0  0  0  0
   70.5919   77.2940   90.9463 C   0  0  0  0  0  0  0  0  0  0  0  0
   69.9996   76.7421   92.1236 O   0  0  0  0  0  0  0  0  0  0  0  0
   69.1755   75.6041   92.1642 C   0  0  0  0  0  0  0  0  0  0  0  0
   69.0394   74.8474   90.9992 C   0  0  0  0  0  0  0  0  0  0  0  0
   68.2260   73.7144   90.9808 C   0  0  0  0  0  0  0  0  0  0  0  0
   67.5324   73.3133   92.1274 C   0  0  0  0  0  0  0  0  0  0  0  0
   66.7937   72.1303   92.0567 O   0  0  0  0  0  0  0  0  0  0  0  0
   67.6302   74.0881   93.3112 C   0  0  0  0  0  0  0  0  0  0  0  0
   68.4819   75.2080   93.3226 C   0  0  0  0  0  0  0  0  0  0  0  0
   66.7558   71.6490   91.2537 H   0  0  0  0  0  0  0  0  0  0  0  0
   66.8399   73.7973   94.5308 C   0  0  0  0  0  0  0  0  0  0  0  0
   65.5855   73.9234   94.5335 O   0  0  0  0  0  0  0  0  0  0  0  0
   67.4900   73.4490   95.7129 O   0  0  0  0  0  0  0  0  0  0  0  0
   68.4219   73.3521   95.7241 H   0  0  0  0  0  0  0  0  0  0  0  0
 21 22  3  0  0  0
 22 15  1  0  0  0
 15 16  2  0  0  0
 16 17  1  0  0  0
 17 18  2  0  0  0
 18 14  1  0  0  0
 14 13  1  0  0  0
 13  7  1  0  0  0
  7  8  2  0  0  0
  8  9  1  0  0  0
  9 10  2  0  0  0
 10 11  1  0  0  0
 11  1  1  0  0  0
  1  2  2  0  0  0
  2  3  1  0  0  0
  3  4  2  0  0  0
  4  5  1  0  0  0
  5 23  1  0  0  0
 23 24  1  0  0  0
 24 25  1  0  0  0
 25 26  2  0  0  0
 26 27  1  0  0  0
 27 28  2  0  0  0
 28 29  1  0  0  0
 28 30  1  0  0  0
 30 33  1  0  0  0
 33 34  2  0  0  0
 33 35  1  0  0  0
 30 31  2  0  0  0
  5  6  2  0  0  0
 11 12  2  0  0  0
 18 19  1  0  0  0
 19 20  2  0  0  0
 20 15  1  0  0  0
 12  7  1  0  0  0
  6  1  1  0  0  0
 31 25  1  0  0  0
 29 32  1  0  0  0
 35 36  1  0  0  0
M  END
> <score>
-0.970519

> <minimizedAffinity>
-9.15125

$$$$
HIPS7002


 39 42  0  0  0  0  0  0  0  0999 V2000
   66.9449   75.1216   88.9622 C   0  0  0  0  0  0  0  0  0  0  0  0
   66.3983   74.2921   87.9714 C   0  0  0  0  0  0  0  0  0  0  0  0
   66.6593   72.9206   87.9806 C   0  0  0  0  0  0  0  0  0  0  0  0
   67.4606   72.3640   88.9804 C   0  0  0  0  0  0  0  0  0  0  0  0
   68.0046   73.1764   89.9910 C   0  0  0  0  0  0  0  0  0  0  0  0
   67.7355   74.5570   89.9757 C   0  0  0  0  0  0  0  0  0  0  0  0
   68.8574   72.5887   91.0538 C   0  0  0  0  0  0  0  0  0  0  0  0
   69.3301   71.2699   90.9412 C   0  0  0  0  0  0  0  0  0  0  0  0
   70.1257   70.7164   91.9462 C   0  0  0  0  0  0  0  0  0  0  0  0
   70.4529   71.4665   93.0773 C   0  0  0  0  0  0  0  0  0  0  0  0
   69.9810   72.7856   93.2129 C   0  0  0  0  0  0  0  0  0  0  0  0
   69.1952   73.3391   92.1947 C   0  0  0  0  0  0  0  0  0  0  0  0
   70.2621   73.5779   94.3378 O   0  0  0  0  0  0  0  0  0  0  0  0
   69.3015   74.0109   95.3021 C   0  0  0  0  0  0  0  0  0  0  0  0
   68.3752   75.0427   94.7133 C   0  0  0  0  0  0  0  0  0  0  0  0
   66.9908   74.8175   94.6734 C   0  0  0  0  0  0  0  0  0  0  0  0
   66.1348   75.7818   94.1338 C   0  0  0  0  0  0  0  0  0  0  0  0
   66.6424   76.9872   93.6338 C   0  0  0  0  0  0  0  0  0  0  0  0
   68.0308   77.2192   93.6858 C   0  0  0  0  0  0  0  0  0  0  0  0
   68.8872   76.2560   94.2280 C   0  0  0  0  0  0  0  0  0  0  0  0
   65.7352   77.9185   93.1012 O   0  0  0  0  0  0  0  0  0  0  0  0
   65.2757   79.0933   93.7668 C   0  0  0  0  0  0  0  0  0  0  0  0
   66.2789   80.0457   93.8013 F   0  0  0  0  0  0  0  0  0  0  0  0
   64.1630   79.6030   93.1213 F   0  0  0  0  0  0  0  0  0  0  0  0
   64.9270   78.7659   95.0629 F   0  0  0  0  0  0  0  0  0  0  0  0
   66.6889   76.6056   88.9490 C   0  0  0  0  0  0  0  0  0  0  0  0
   67.2503   77.2236   90.1081 O   0  0  0  0  0  0  0  0  0  0  0  0
   70.8323   78.3231   90.2808 C   0  0  0  0  0  0  0  0  0  0  0  0
   69.7000   77.4862   90.2540 C   0  0  0  0  0  0  0  0  0  0  0  0
   68.4054   78.0234   90.1242 C   0  0  0  0  0  0  0  0  0  0  0  0
   68.2499   79.4060   90.0054 C   0  0  0  0  0  0  0  0  0  0  0  0
   69.3607   80.2485   90.0310 C   0  0  0  0  0  0  0  0  0  0  0  0
   70.6515   79.7208   90.1702 C   0  0  0  0  0  0  0  0  0  0  0  0
   71.7449   80.5870   90.1984 O   0  0  0  0  0  0  0  0  0  0  0  0
   71.6122   81.5116   90.1242 H   0  0  0  0  0  0  0  0  0  0  0  0
   73.0270   77.7856   89.4944 O   0  0  0  0  0  0  0  0  0  0  0  0
   72.1804   77.7152   90.4262 C   0  0  0  0  0  0  0  0  0  0  0  0
   72.5252   77.0536   91.6030 O   0  0  0  0  0  0  0  0  0  0  0  0
   71.9072   76.9928   92.3046 H   0  0  0  0  0  0  0  0  0  0  0  0
 36 37  2  0  0  0
 37 38  1  0  0  0
 37 28  1  0  0  0
 28 29  2  0  0  0
 29 30  1  0  0  0
 30 27  1  0  0  0
 27 26  1  0  0  0
 26  1  1  0  0  0
  1  2  2  0  0  0
  2  3  1  0  0  0
  3  4  2  0  0  0
  4  5  1  0  0  0
  5  7  1  0  0  0
  7  8  2  0  0  0
  8  9  1  0  0  0
  9 10  2  0  0  0
 10 11  1  0  0  0
 11 13  1  0  0  0
 13 14  1  0  0  0
 14 15  1  0  0  0
 15 16  2  0  0  0
 16 17  1  0  0  0
 17 18  2  0  0  0
 18 21  1  0  0  0
 21 22  1  0  0  0
 22 23  1  0  0  0
 22 24  1  0  0  0
 22 25  1  0  0  0
 18 19  1  0  0  0
 19 20  2  0  0  0
 11 12  2  0  0  0
  5  6  2  0  0  0
 30 31  2  0  0  0
 31 32  1  0  0  0
 32 33  2  0  0  0
 33 34  1  0  0  0
 33 28  1  0  0  0
  6  1  1  0  0  0
 12  7  1  0  0  0
 20 15  1  0  0  0
 38 39  1  0  0  0
 34 35  1  0  0  0
M  END
> <score>
-1.326906

> <minimizedAffinity>
-9.53655

$$$$
HIPS7002


 39 42  0  0  0  0  0  0  0  0999 V2000
   67.3907   75.3721   89.0841 C   0  0  0  0  0  0  0  0  0  0  0  0
   66.6395   74.6003   88.1850 C   0  0  0  0  0  0  0  0  0  0  0  0
   66.6491   73.2072   88.2765 C   0  0  0  0  0  0  0  0  0  0  0  0
   67.4010   72.5728   89.2683 C   0  0  0  0  0  0  0  0  0  0  0  0
   68.1478   73.3295   90.1885 C   0  0  0  0  0  0  0  0  0  0  0  0
   68.1317   74.7327   90.0907 C   0  0  0  0  0  0  0  0  0  0  0  0
   68.9488   72.6588   91.2425 C   0  0  0  0  0  0  0  0  0  0  0  0
   69.3529   71.3215   91.0887 C   0  0  0  0  0  0  0  0  0  0  0  0
   70.0996   70.6902   92.0853 C   0  0  0  0  0  0  0  0  0  0  0  0
   70.4455   71.3803   93.2486 C   0  0  0  0  0  0  0  0  0  0  0  0
   70.0418   72.7170   93.4253 C   0  0  0  0  0  0  0  0  0  0  0  0
   69.3051   73.3483   92.4158 C   0  0  0  0  0  0  0  0  0  0  0  0
   70.3440   73.4519   94.5832 O   0  0  0  0  0  0  0  0  0  0  0  0
   69.3828   73.9899   95.4925 C   0  0  0  0  0  0  0  0  0  0  0  0
   68.5463   75.0507   94.8260 C   0  0  0  0  0  0  0  0  0  0  0  0
   69.1471   76.2008   94.2919 C   0  0  0  0  0  0  0  0  0  0  0  0
   68.3673   77.1782   93.6668 C   0  0  0  0  0  0  0  0  0  0  0  0
   66.9803   77.0218   93.5566 C   0  0  0  0  0  0  0  0  0  0  0  0
   66.3784   75.8610   94.0808 C   0  0  0  0  0  0  0  0  0  0  0  0
   67.1584   74.8819   94.7037 C   0  0  0  0  0  0  0  0  0  0  0  0
   66.2471   78.0374   92.9203 O   0  0  0  0  0  0  0  0  0  0  0  0
   65.7342   79.2054   93.5582 C   0  0  0  0  0  0  0  0  0  0  0  0
   64.8607   78.8515   94.5713 F   0  0  0  0  0  0  0  0  0  0  0  0
   66.7717   79.9627   94.0727 F   0  0  0  0  0  0  0  0  0  0  0  0
   65.0516   79.9618   92.6251 F   0  0  0  0  0  0  0  0  0  0  0  0
   67.4061   76.8745   88.9804 C   0  0  0  0  0  0  0  0  0  0  0  0
   67.9724   77.4545   90.1567 O   0  0  0  0  0  0  0  0  0  0  0  0
   69.4984   80.8808   90.1893 C   0  0  0  0  0  0  0  0  0  0  0  0
   68.5297   79.8586   90.1841 C   0  0  0  0  0  0  0  0  0  0  0  0
   68.9078   78.5027   90.1769 C   0  0  0  0  0  0  0  0  0  0  0  0
   70.2647   78.1733   90.1907 C   0  0  0  0  0  0  0  0  0  0  0  0
   71.2363   79.1734   90.1951 C   0  0  0  0  0  0  0  0  0  0  0  0
   70.8667   80.5252   90.1920 C   0  0  0  0  0  0  0  0  0  0  0  0
   71.8594   81.5055   90.1908 O   0  0  0  0  0  0  0  0  0  0  0  0
   72.7629   81.2573   90.1927 H   0  0  0  0  0  0  0  0  0  0  0  0
   68.2558   82.7289   89.3151 O   0  0  0  0  0  0  0  0  0  0  0  0
   69.0561   82.2993   90.1898 C   0  0  0  0  0  0  0  0  0  0  0  0
   69.5268   83.1776   91.1636 O   0  0  0  0  0  0  0  0  0  0  0  0
   70.1219   82.8736   91.8204 H   0  0  0  0  0  0  0  0  0  0  0  0
 36 37  2  0  0  0
 37 38  1  0  0  0
 37 28  1  0  0  0
 28 29  2  0  0  0
 29 30  1  0  0  0
 30 27  1  0  0  0
 27 26  1  0  0  0
 26  1  1  0  0  0
  1  2  2  0  0  0
  2  3  1  0  0  0
  3  4  2  0  0  0
  4  5  1  0  0  0
  5  7  1  0  0  0
  7  8  2  0  0  0
  8  9  1  0  0  0
  9 10  2  0  0  0
 10 11  1  0  0  0
 11 13  1  0  0  0
 13 14  1  0  0  0
 14 15  1  0  0  0
 15 16  2  0  0  0
 16 17  1  0  0  0
 17 18  2  0  0  0
 18 21  1  0  0  0
 21 22  1  0  0  0
 22 23  1  0  0  0
 22 24  1  0  0  0
 22 25  1  0  0  0
 18 19  1  0  0  0
 19 20  2  0  0  0
 11 12  2  0  0  0
  5  6  2  0  0  0
 30 31  2  0  0  0
 31 32  1  0  0  0
 32 33  2  0  0  0
 33 34  1  0  0  0
 33 28  1  0  0  0
  6  1  1  0  0  0
 12  7  1  0  0  0
 20 15  1  0  0  0
 38 39  1  0  0  0
 34 35  1  0  0  0
M  END
> <score>
-1.326906

> <minimizedAffinity>
-9.52587

$$$$
HIPS7002


 39 42  0  0  0  0  0  0  0  0999 V2000
   68.2165   79.0608   89.1116 C   0  0  0  0  0  0  0  0  0  0  0  0
   67.3230   79.3532   88.0701 C   0  0  0  0  0  0  0  0  0  0  0  0
   66.5933   78.3299   87.4622 C   0  0  0  0  0  0  0  0  0  0  0  0
   66.7426   77.0090   87.8917 C   0  0  0  0  0  0  0  0  0  0  0  0
   67.6212   76.6981   88.9445 C   0  0  0  0  0  0  0  0  0  0  0  0
   68.3516   77.7349   89.5529 C   0  0  0  0  0  0  0  0  0  0  0  0
   67.7833   75.2958   89.4024 C   0  0  0  0  0  0  0  0  0  0  0  0
   67.0329   74.2625   88.8154 C   0  0  0  0  0  0  0  0  0  0  0  0
   67.1812   72.9451   89.2533 C   0  0  0  0  0  0  0  0  0  0  0  0
   68.0720   72.6430   90.2850 C   0  0  0  0  0  0  0  0  0  0  0  0
   68.8253   73.6653   90.8920 C   0  0  0  0  0  0  0  0  0  0  0  0
   68.6818   74.9823   90.4384 C   0  0  0  0  0  0  0  0  0  0  0  0
   69.7201   73.4217   91.9466 O   0  0  0  0  0  0  0  0  0  0  0  0
   69.4239   73.5869   93.3340 C   0  0  0  0  0  0  0  0  0  0  0  0
   68.4020   74.6744   93.5403 C   0  0  0  0  0  0  0  0  0  0  0  0
   67.0370   74.3619   93.6300 C   0  0  0  0  0  0  0  0  0  0  0  0
   66.0936   75.3737   93.8301 C   0  0  0  0  0  0  0  0  0  0  0  0
   66.4949   76.7097   93.9521 C   0  0  0  0  0  0  0  0  0  0  0  0
   67.8663   77.0222   93.8754 C   0  0  0  0  0  0  0  0  0  0  0  0
   68.8105   76.0100   93.6780 C   0  0  0  0  0  0  0  0  0  0  0  0
   65.5027   77.6845   94.1498 O   0  0  0  0  0  0  0  0  0  0  0  0
   65.4699   78.9648   93.5219 C   0  0  0  0  0  0  0  0  0  0  0  0
   66.1884   79.8814   94.2691 F   0  0  0  0  0  0  0  0  0  0  0  0
   65.9941   78.8830   92.2440 F   0  0  0  0  0  0  0  0  0  0  0  0
   64.1577   79.3887   93.4381 F   0  0  0  0  0  0  0  0  0  0  0  0
   69.0258   80.1535   89.7590 C   0  0  0  0  0  0  0  0  0  0  0  0
   68.4150   81.4269   89.5442 O   0  0  0  0  0  0  0  0  0  0  0  0
   70.6532   83.9739   87.9402 C   0  0  0  0  0  0  0  0  0  0  0  0
   70.2045   82.9580   88.8061 C   0  0  0  0  0  0  0  0  0  0  0  0
   68.9048   82.4299   88.6907 C   0  0  0  0  0  0  0  0  0  0  0  0
   68.0585   82.9142   87.6912 C   0  0  0  0  0  0  0  0  0  0  0  0
   68.4871   83.9205   86.8263 C   0  0  0  0  0  0  0  0  0  0  0  0
   69.7764   84.4576   86.9423 C   0  0  0  0  0  0  0  0  0  0  0  0
   70.1776   85.4675   86.0673 O   0  0  0  0  0  0  0  0  0  0  0  0
   69.5873   85.7797   85.4100 H   0  0  0  0  0  0  0  0  0  0  0  0
   72.9493   83.7953   88.5883 O   0  0  0  0  0  0  0  0  0  0  0  0
   72.0304   84.5081   88.1009 C   0  0  0  0  0  0  0  0  0  0  0  0
   72.3228   85.8141   87.7133 O   0  0  0  0  0  0  0  0  0  0  0  0
   71.6509   86.3565   87.3495 H   0  0  0  0  0  0  0  0  0  0  0  0
 36 37  2  0  0  0
 37 38  1  0  0  0
 37 28  1  0  0  0
 28 29  2  0  0  0
 29 30  1  0  0  0
 30 27  1  0  0  0
 27 26  1  0  0  0
 26  1  1  0  0  0
  1  2  2  0  0  0
  2  3  1  0  0  0
  3  4  2  0  0  0
  4  5  1  0  0  0
  5  7  1  0  0  0
  7  8  2  0  0  0
  8  9  1  0  0  0
  9 10  2  0  0  0
 10 11  1  0  0  0
 11 13  1  0  0  0
 13 14  1  0  0  0
 14 15  1  0  0  0
 15 16  2  0  0  0
 16 17  1  0  0  0
 17 18  2  0  0  0
 18 21  1  0  0  0
 21 22  1  0  0  0
 22 23  1  0  0  0
 22 24  1  0  0  0
 22 25  1  0  0  0
 18 19  1  0  0  0
 19 20  2  0  0  0
 11 12  2  0  0  0
  5  6  2  0  0  0
 30 31  2  0  0  0
 31 32  1  0  0  0
 32 33  2  0  0  0
 33 34  1  0  0  0
 33 28  1  0  0  0
  6  1  1  0  0  0
 12  7  1  0  0  0
 20 15  1  0  0  0
 38 39  1  0  0  0
 34 35  1  0  0  0
M  END
> <score>
-1.326906

> <minimizedAffinity>
-9.45111

$$$$
HIPS7003


 34 37  0  0  0  0  0  0  0  0999 V2000
   69.2318   73.5510   91.3694 C   0  0  0  0  0  0  0  0  0  0  0  0
   68.5111   72.5411   90.7153 C   0  0  0  0  0  0  0  0  0  0  0  0
   67.6157   72.8642   89.6940 C   0  0  0  0  0  0  0  0  0  0  0  0
   67.4363   74.1952   89.3115 C   0  0  0  0  0  0  0  0  0  0  0  0
   68.1553   75.2223   89.9484 C   0  0  0  0  0  0  0  0  0  0  0  0
   69.0516   74.8892   90.9815 C   0  0  0  0  0  0  0  0  0  0  0  0
   67.9762   76.6364   89.5323 C   0  0  0  0  0  0  0  0  0  0  0  0
   66.8417   77.0368   88.8088 C   0  0  0  0  0  0  0  0  0  0  0  0
   66.6913   78.3335   88.4310 N   0  0  0  0  0  0  0  0  0  0  0  0
   67.6191   79.2808   88.7257 C   0  0  0  0  0  0  0  0  0  0  0  0
   68.7771   78.9338   89.4421 C   0  0  0  0  0  0  0  0  0  0  0  0
   68.9434   77.6057   89.8450 C   0  0  0  0  0  0  0  0  0  0  0  0
   69.7755   79.8644   89.7654 O   0  0  0  0  0  0  0  0  0  0  0  0
   69.5237   81.1806   90.2475 C   0  0  0  0  0  0  0  0  0  0  0  0
   70.5847   82.1061   89.7286 C   0  0  0  0  0  0  0  0  0  0  0  0
   70.3170   82.9546   88.6411 C   0  0  0  0  0  0  0  0  0  0  0  0
   71.3194   83.7898   88.1373 C   0  0  0  0  0  0  0  0  0  0  0  0
   72.5968   83.7734   88.7060 C   0  0  0  0  0  0  0  0  0  0  0  0
   72.8747   82.9187   89.7764 C   0  0  0  0  0  0  0  0  0  0  0  0
   71.8746   82.0831   90.2842 C   0  0  0  0  0  0  0  0  0  0  0  0
   70.1861   73.1926   92.4728 C   0  0  0  0  0  0  0  0  0  0  0  0
   70.0588   74.1350   93.5344 O   0  0  0  0  0  0  0  0  0  0  0  0
   66.9512   76.0220   94.2606 C   0  0  0  0  0  0  0  0  0  0  0  0
   68.1733   75.6194   93.6908 C   0  0  0  0  0  0  0  0  0  0  0  0
   68.8458   74.4812   94.1474 C   0  0  0  0  0  0  0  0  0  0  0  0
   68.2875   73.7270   95.1927 C   0  0  0  0  0  0  0  0  0  0  0  0
   67.0871   74.1245   95.7807 C   0  0  0  0  0  0  0  0  0  0  0  0
   66.4245   75.2781   95.3484 C   0  0  0  0  0  0  0  0  0  0  0  0
   65.2763   75.6628   96.0454 O   0  0  0  0  0  0  0  0  0  0  0  0
   64.9638   75.1408   96.7580 H   0  0  0  0  0  0  0  0  0  0  0  0
   66.6070   77.6592   92.5578 O   0  0  0  0  0  0  0  0  0  0  0  0
   66.2570   77.1913   93.6740 C   0  0  0  0  0  0  0  0  0  0  0  0
   65.2474   77.8288   94.3916 O   0  0  0  0  0  0  0  0  0  0  0  0
   64.9782   77.4905   95.2229 H   0  0  0  0  0  0  0  0  0  0  0  0
 31 32  2  0  0  0
 32 33  1  0  0  0
 32 23  1  0  0  0
 23 24  2  0  0  0
 24 25  1  0  0  0
 25 22  1  0  0  0
 22 21  1  0  0  0
 21  1  1  0  0  0
  1  2  2  0  0  0
  2  3  1  0  0  0
  3  4  2  0  0  0
  4  5  1  0  0  0
  5  7  1  0  0  0
  7  8  2  0  0  0
  8  9  2  0  0  0
  9 10  2  0  0  0
 10 11  1  0  0  0
 11 13  1  0  0  0
 13 14  1  0  0  0
 14 15  1  0  0  0
 15 16  2  0  0  0
 16 17  1  0  0  0
 17 18  2  0  0  0
 18 19  1  0  0  0
 19 20  2  0  0  0
 11 12  2  0  0  0
  5  6  2  0  0  0
 25 26  2  0  0  0
 26 27  1  0  0  0
 27 28  2  0  0  0
 28 29  1  0  0  0
 28 23  1  0  0  0
  6  1  1  0  0  0
 12  7  1  0  0  0
 20 15  1  0  0  0
 33 34  1  0  0  0
 29 30  1  0  0  0
M  END
> <score>
0.271496

> <minimizedAffinity>
-9.25254

$$$$
HIPS7003


 34 37  0  0  0  0  0  0  0  0999 V2000
   68.1601   79.7938   89.4872 C   0  0  0  0  0  0  0  0  0  0  0  0
   67.4432   80.0286   88.3049 C   0  0  0  0  0  0  0  0  0  0  0  0
   66.9259   78.9593   87.5712 C   0  0  0  0  0  0  0  0  0  0  0  0
   67.1130   77.6479   88.0133 C   0  0  0  0  0  0  0  0  0  0  0  0
   67.8212   77.3908   89.2006 C   0  0  0  0  0  0  0  0  0  0  0  0
   68.3450   78.4739   89.9315 C   0  0  0  0  0  0  0  0  0  0  0  0
   68.0077   75.9976   89.6792 C   0  0  0  0  0  0  0  0  0  0  0  0
   68.8107   75.7206   90.7970 C   0  0  0  0  0  0  0  0  0  0  0  0
   68.9759   74.4407   91.2229 N   0  0  0  0  0  0  0  0  0  0  0  0
   68.3874   73.3913   90.5925 C   0  0  0  0  0  0  0  0  0  0  0  0
   67.5787   73.6106   89.4645 C   0  0  0  0  0  0  0  0  0  0  0  0
   67.3921   74.9220   89.0182 C   0  0  0  0  0  0  0  0  0  0  0  0
   66.9548   72.5672   88.7650 O   0  0  0  0  0  0  0  0  0  0  0  0
   66.4148   72.6875   87.4526 C   0  0  0  0  0  0  0  0  0  0  0  0
   67.0011   71.6175   86.5792 C   0  0  0  0  0  0  0  0  0  0  0  0
   66.7272   71.5963   85.2013 C   0  0  0  0  0  0  0  0  0  0  0  0
   67.2460   70.5768   84.3965 C   0  0  0  0  0  0  0  0  0  0  0  0
   68.0288   69.5663   84.9634 C   0  0  0  0  0  0  0  0  0  0  0  0
   68.2902   69.5715   86.3365 C   0  0  0  0  0  0  0  0  0  0  0  0
   67.7746   70.5901   87.1444 C   0  0  0  0  0  0  0  0  0  0  0  0
   68.7195   80.9515   90.2639 C   0  0  0  0  0  0  0  0  0  0  0  0
   70.1160   81.0667   90.0033 O   0  0  0  0  0  0  0  0  0  0  0  0
   70.5606   84.1664   88.0185 C   0  0  0  0  0  0  0  0  0  0  0  0
   70.0024   83.0057   88.5853 C   0  0  0  0  0  0  0  0  0  0  0  0
   70.7329   82.2093   89.4733 C   0  0  0  0  0  0  0  0  0  0  0  0
   72.0469   82.5788   89.8051 C   0  0  0  0  0  0  0  0  0  0  0  0
   72.6207   83.7154   89.2361 C   0  0  0  0  0  0  0  0  0  0  0  0
   71.9057   84.4997   88.3249 C   0  0  0  0  0  0  0  0  0  0  0  0
   72.5771   85.5698   87.7279 O   0  0  0  0  0  0  0  0  0  0  0  0
   73.4659   85.7537   87.9605 H   0  0  0  0  0  0  0  0  0  0  0  0
   68.5495   85.3515   87.5193 O   0  0  0  0  0  0  0  0  0  0  0  0
   69.7022   85.0031   87.1487 C   0  0  0  0  0  0  0  0  0  0  0  0
   70.1423   85.3564   85.8752 O   0  0  0  0  0  0  0  0  0  0  0  0
   70.9975   85.1032   85.5880 H   0  0  0  0  0  0  0  0  0  0  0  0
 31 32  2  0  0  0
 32 33  1  0  0  0
 32 23  1  0  0  0
 23 24  2  0  0  0
 24 25  1  0  0  0
 25 22  1  0  0  0
 22 21  1  0  0  0
 21  1  1  0  0  0
  1  2  2  0  0  0
  2  3  1  0  0  0
  3  4  2  0  0  0
  4  5  1  0  0  0
  5  7  1  0  0  0
  7  8  2  0  0  0
  8  9  2  0  0  0
  9 10  2  0  0  0
 10 11  1  0  0  0
 11 13  1  0  0  0
 13 14  1  0  0  0
 14 15  1  0  0  0
 15 16  2  0  0  0
 16 17  1  0  0  0
 17 18  2  0  0  0
 18 19  1  0  0  0
 19 20  2  0  0  0
 11 12  2  0  0  0
  5  6  2  0  0  0
 25 26  2  0  0  0
 26 27  1  0  0  0
 27 28  2  0  0  0
 28 29  1  0  0  0
 28 23  1  0  0  0
  6  1  1  0  0  0
 12  7  1  0  0  0
 20 15  1  0  0  0
 33 34  1  0  0  0
 29 30  1  0  0  0
M  END
> <score>
0.271496

> <minimizedAffinity>
-9.21535

$$$$
HIPS7003


 34 37  0  0  0  0  0  0  0  0999 V2000
   68.7512   78.0171   90.5861 C   0  0  0  0  0  0  0  0  0  0  0  0
   70.1343   77.8549   90.4198 C   0  0  0  0  0  0  0  0  0  0  0  0
   70.9479   78.9619   90.1710 C   0  0  0  0  0  0  0  0  0  0  0  0
   70.3908   80.2401   90.0927 C   0  0  0  0  0  0  0  0  0  0  0  0
   69.0076   80.4259   90.2650 C   0  0  0  0  0  0  0  0  0  0  0  0
   68.1931   79.3041   90.5093 C   0  0  0  0  0  0  0  0  0  0  0  0
   68.4166   81.7864   90.1967 C   0  0  0  0  0  0  0  0  0  0  0  0
   68.0647   82.4791   91.3660 C   0  0  0  0  0  0  0  0  0  0  0  0
   67.5215   83.7225   91.2896 N   0  0  0  0  0  0  0  0  0  0  0  0
   67.2928   84.3356   90.0993 C   0  0  0  0  0  0  0  0  0  0  0  0
   67.6199   83.6851   88.8975 C   0  0  0  0  0  0  0  0  0  0  0  0
   68.1868   82.4089   88.9588 C   0  0  0  0  0  0  0  0  0  0  0  0
   67.3965   84.2617   87.6386 O   0  0  0  0  0  0  0  0  0  0  0  0
   68.3398   84.2562   86.5716 C   0  0  0  0  0  0  0  0  0  0  0  0
   69.6453   84.8065   87.0659 C   0  0  0  0  0  0  0  0  0  0  0  0
   70.7963   84.0008   87.0786 C   0  0  0  0  0  0  0  0  0  0  0  0
   72.0030   84.5058   87.5737 C   0  0  0  0  0  0  0  0  0  0  0  0
   72.0650   85.8112   88.0709 C   0  0  0  0  0  0  0  0  0  0  0  0
   70.9194   86.6120   88.0777 C   0  0  0  0  0  0  0  0  0  0  0  0
   69.7112   86.1112   87.5821 C   0  0  0  0  0  0  0  0  0  0  0  0
   67.8843   76.8179   90.8448 C   0  0  0  0  0  0  0  0  0  0  0  0
   67.1328   77.0246   92.0381 O   0  0  0  0  0  0  0  0  0  0  0  0
   68.0801   74.2982   94.3650 C   0  0  0  0  0  0  0  0  0  0  0  0
   68.1180   75.2534   93.3324 C   0  0  0  0  0  0  0  0  0  0  0  0
   67.0282   76.0935   93.0816 C   0  0  0  0  0  0  0  0  0  0  0  0
   65.8768   75.9807   93.8783 C   0  0  0  0  0  0  0  0  0  0  0  0
   65.8167   75.0254   94.8926 C   0  0  0  0  0  0  0  0  0  0  0  0
   66.8920   74.1626   95.1294 C   0  0  0  0  0  0  0  0  0  0  0  0
   66.7237   73.1725   96.1008 O   0  0  0  0  0  0  0  0  0  0  0  0
   65.9215   73.1200   96.5822 H   0  0  0  0  0  0  0  0  0  0  0  0
   69.4227   72.8309   95.6851 O   0  0  0  0  0  0  0  0  0  0  0  0
   69.2991   73.4978   94.6233 C   0  0  0  0  0  0  0  0  0  0  0  0
   70.3553   73.5323   93.7157 O   0  0  0  0  0  0  0  0  0  0  0  0
   70.2755   74.0247   92.9225 H   0  0  0  0  0  0  0  0  0  0  0  0
 31 32  2  0  0  0
 32 33  1  0  0  0
 32 23  1  0  0  0
 23 24  2  0  0  0
 24 25  1  0  0  0
 25 22  1  0  0  0
 22 21  1  0  0  0
 21  1  1  0  0  0
  1  2  2  0  0  0
  2  3  1  0  0  0
  3  4  2  0  0  0
  4  5  1  0  0  0
  5  7  1  0  0  0
  7  8  2  0  0  0
  8  9  2  0  0  0
  9 10  2  0  0  0
 10 11  1  0  0  0
 11 13  1  0  0  0
 13 14  1  0  0  0
 14 15  1  0  0  0
 15 16  2  0  0  0
 16 17  1  0  0  0
 17 18  2  0  0  0
 18 19  1  0  0  0
 19 20  2  0  0  0
 11 12  2  0  0  0
  5  6  2  0  0  0
 25 26  2  0  0  0
 26 27  1  0  0  0
 27 28  2  0  0  0
 28 29  1  0  0  0
 28 23  1  0  0  0
  6  1  1  0  0  0
 12  7  1  0  0  0
 20 15  1  0  0  0
 33 34  1  0  0  0
 29 30  1  0  0  0
M  END
> <score>
0.271496

> <minimizedAffinity>
-9.05747

$$$$
HIPS7004


 34 37  0  0  0  0  0  0  0  0999 V2000
   67.2689   79.2725   88.8534 C   0  0  0  0  0  0  0  0  0  0  0  0
   66.7993   79.0399   87.5522 C   0  0  0  0  0  0  0  0  0  0  0  0
   66.7802   77.7445   87.0333 C   0  0  0  0  0  0  0  0  0  0  0  0
   67.2239   76.6709   87.8080 C   0  0  0  0  0  0  0  0  0  0  0  0
   67.6930   76.8801   89.1164 C   0  0  0  0  0  0  0  0  0  0  0  0
   67.6973   78.1883   89.6368 C   0  0  0  0  0  0  0  0  0  0  0  0
   68.1532   75.7269   89.9283 C   0  0  0  0  0  0  0  0  0  0  0  0
   67.8131   74.4051   89.5896 C   0  0  0  0  0  0  0  0  0  0  0  0
   68.2582   73.3536   90.3926 C   0  0  0  0  0  0  0  0  0  0  0  0
   69.0310   73.6188   91.5230 C   0  0  0  0  0  0  0  0  0  0  0  0
   69.3494   74.9406   91.8407 C   0  0  0  0  0  0  0  0  0  0  0  0
   68.9047   75.9520   91.0430 N   0  0  0  0  0  0  0  0  0  0  0  0
   70.1210   75.2070   92.9776 O   0  0  0  0  0  0  0  0  0  0  0  0
   69.6353   75.9301   94.1078 C   0  0  0  0  0  0  0  0  0  0  0  0
   68.2659   75.4471   94.5048 C   0  0  0  0  0  0  0  0  0  0  0  0
   67.1158   76.1368   94.0856 C   0  0  0  0  0  0  0  0  0  0  0  0
   65.8469   75.6782   94.4533 C   0  0  0  0  0  0  0  0  0  0  0  0
   65.7178   74.5353   95.2470 C   0  0  0  0  0  0  0  0  0  0  0  0
   66.8578   73.8503   95.6768 C   0  0  0  0  0  0  0  0  0  0  0  0
   68.1284   74.3048   95.3103 C   0  0  0  0  0  0  0  0  0  0  0  0
   67.2787   80.6674   89.4225 C   0  0  0  0  0  0  0  0  0  0  0  0
   68.5968   81.2176   89.4022 O   0  0  0  0  0  0  0  0  0  0  0  0
   70.6671   83.9576   87.8982 C   0  0  0  0  0  0  0  0  0  0  0  0
   70.2911   82.8754   88.7157 C   0  0  0  0  0  0  0  0  0  0  0  0
   69.0195   82.2847   88.5923 C   0  0  0  0  0  0  0  0  0  0  0  0
   68.1310   82.7755   87.6336 C   0  0  0  0  0  0  0  0  0  0  0  0
   68.4988   83.8326   86.8015 C   0  0  0  0  0  0  0  0  0  0  0  0
   69.7648   84.4174   86.9081 C   0  0  0  0  0  0  0  0  0  0  0  0
   70.0980   85.4193   85.9942 O   0  0  0  0  0  0  0  0  0  0  0  0
   69.4726   85.6960   85.3537 H   0  0  0  0  0  0  0  0  0  0  0  0
   72.1747   85.7885   87.7599 O   0  0  0  0  0  0  0  0  0  0  0  0
   71.9795   84.5997   88.1317 C   0  0  0  0  0  0  0  0  0  0  0  0
   73.0267   83.8833   88.7039 O   0  0  0  0  0  0  0  0  0  0  0  0
   72.8919   82.9992   88.9835 H   0  0  0  0  0  0  0  0  0  0  0  0
 31 32  2  0  0  0
 32 33  1  0  0  0
 32 23  1  0  0  0
 23 24  2  0  0  0
 24 25  1  0  0  0
 25 22  1  0  0  0
 22 21  1  0  0  0
 21  1  1  0  0  0
  1  2  2  0  0  0
  2  3  1  0  0  0
  3  4  2  0  0  0
  4  5  1  0  0  0
  5  7  1  0  0  0
  7  8  2  0  0  0
  8  9  1  0  0  0
  9 10  2  0  0  0
 10 11  1  0  0  0
 11 13  1  0  0  0
 13 14  1  0  0  0
 14 15  1  0  0  0
 15 16  2  0  0  0
 16 17  1  0  0  0
 17 18  2  0  0  0
 18 19  1  0  0  0
 19 20  2  0  0  0
 11 12  2  0  0  0
  5  6  2  0  0  0
 25 26  2  0  0  0
 26 27  1  0  0  0
 27 28  2  0  0  0
 28 29  1  0  0  0
 28 23  1  0  0  0
  6  1  1  0  0  0
 12  7  2  0  0  0
 20 15  1  0  0  0
 33 34  1  0  0  0
 29 30  1  0  0  0
M  END
> <score>
-0.9805

> <minimizedAffinity>
-9.31764

$$$$
HIPS7004


 34 37  0  0  0  0  0  0  0  0999 V2000
   70.2808   78.3803   90.7037 C   0  0  0  0  0  0  0  0  0  0  0  0
   68.8799   78.4416   90.6635 C   0  0  0  0  0  0  0  0  0  0  0  0
   68.2392   79.6179   90.2715 C   0  0  0  0  0  0  0  0  0  0  0  0
   68.9888   80.7398   89.9120 C   0  0  0  0  0  0  0  0  0  0  0  0
   70.3935   80.6988   89.9394 C   0  0  0  0  0  0  0  0  0  0  0  0
   71.0322   79.5045   90.3241 C   0  0  0  0  0  0  0  0  0  0  0  0
   71.1743   81.8976   89.5467 C   0  0  0  0  0  0  0  0  0  0  0  0
   72.4333   82.1735   90.1092 C   0  0  0  0  0  0  0  0  0  0  0  0
   73.1240   83.3217   89.7182 C   0  0  0  0  0  0  0  0  0  0  0  0
   72.5629   84.1867   88.7790 C   0  0  0  0  0  0  0  0  0  0  0  0
   71.3086   83.8930   88.2404 C   0  0  0  0  0  0  0  0  0  0  0  0
   70.6515   82.7667   88.6360 N   0  0  0  0  0  0  0  0  0  0  0  0
   70.7435   84.7635   87.3013 O   0  0  0  0  0  0  0  0  0  0  0  0
   69.4412   85.3308   87.4365 C   0  0  0  0  0  0  0  0  0  0  0  0
   69.3941   86.2951   88.5916 C   0  0  0  0  0  0  0  0  0  0  0  0
   68.7711   85.9345   89.7982 C   0  0  0  0  0  0  0  0  0  0  0  0
   68.7370   86.8335   90.8689 C   0  0  0  0  0  0  0  0  0  0  0  0
   69.3161   88.0988   90.7399 C   0  0  0  0  0  0  0  0  0  0  0  0
   69.9280   88.4684   89.5390 C   0  0  0  0  0  0  0  0  0  0  0  0
   69.9654   87.5720   88.4664 C   0  0  0  0  0  0  0  0  0  0  0  0
   70.9768   77.1084   91.1132 C   0  0  0  0  0  0  0  0  0  0  0  0
   70.3772   76.5531   92.2849 O   0  0  0  0  0  0  0  0  0  0  0  0
   67.7648   74.1002   93.3872 C   0  0  0  0  0  0  0  0  0  0  0  0
   68.6368   75.2050   93.4001 C   0  0  0  0  0  0  0  0  0  0  0  0
   69.4776   75.4744   92.3040 C   0  0  0  0  0  0  0  0  0  0  0  0
   69.4291   74.6381   91.1870 C   0  0  0  0  0  0  0  0  0  0  0  0
   68.5534   73.5530   91.1514 C   0  0  0  0  0  0  0  0  0  0  0  0
   67.7051   73.2850   92.2305 C   0  0  0  0  0  0  0  0  0  0  0  0
   66.7989   72.2307   92.0998 O   0  0  0  0  0  0  0  0  0  0  0  0
   66.7907   71.7141   91.3181 H   0  0  0  0  0  0  0  0  0  0  0  0
   65.7171   73.9489   94.5822 O   0  0  0  0  0  0  0  0  0  0  0  0
   66.9702   73.8102   94.6010 C   0  0  0  0  0  0  0  0  0  0  0  0
   67.5981   73.4438   95.7879 O   0  0  0  0  0  0  0  0  0  0  0  0
   68.5288   73.3382   95.8123 H   0  0  0  0  0  0  0  0  0  0  0  0
 31 32  2  0  0  0
 32 33  1  0  0  0
 32 23  1  0  0  0
 23 24  2  0  0  0
 24 25  1  0  0  0
 25 22  1  0  0  0
 22 21  1  0  0  0
 21  1  1  0  0  0
  1  2  2  0  0  0
  2  3  1  0  0  0
  3  4  2  0  0  0
  4  5  1  0  0  0
  5  7  1  0  0  0
  7  8  2  0  0  0
  8  9  1  0  0  0
  9 10  2  0  0  0
 10 11  1  0  0  0
 11 13  1  0  0  0
 13 14  1  0  0  0
 14 15  1  0  0  0
 15 16  2  0  0  0
 16 17  1  0  0  0
 17 18  2  0  0  0
 18 19  1  0  0  0
 19 20  2  0  0  0
 11 12  2  0  0  0
  5  6  2  0  0  0
 25 26  2  0  0  0
 26 27  1  0  0  0
 27 28  2  0  0  0
 28 29  1  0  0  0
 28 23  1  0  0  0
  6  1  1  0  0  0
 12  7  2  0  0  0
 20 15  1  0  0  0
 33 34  1  0  0  0
 29 30  1  0  0  0
M  END
> <score>
-0.9805

> <minimizedAffinity>
-9.28696

$$$$
HIPS7004


 34 37  0  0  0  0  0  0  0  0999 V2000
   67.4820   79.1676   88.5634 C   0  0  0  0  0  0  0  0  0  0  0  0
   66.8447   78.8612   87.3519 C   0  0  0  0  0  0  0  0  0  0  0  0
   66.6562   77.5309   86.9742 C   0  0  0  0  0  0  0  0  0  0  0  0
   67.0964   76.4964   87.8023 C   0  0  0  0  0  0  0  0  0  0  0  0
   67.7321   76.7804   89.0233 C   0  0  0  0  0  0  0  0  0  0  0  0
   67.9073   78.1249   89.4028 C   0  0  0  0  0  0  0  0  0  0  0  0
   68.1864   75.6690   89.8946 C   0  0  0  0  0  0  0  0  0  0  0  0
   67.8418   74.3327   89.6239 C   0  0  0  0  0  0  0  0  0  0  0  0
   68.2813   73.3224   90.4810 C   0  0  0  0  0  0  0  0  0  0  0  0
   69.0531   73.6427   91.5977 C   0  0  0  0  0  0  0  0  0  0  0  0
   69.3761   74.9779   91.8473 C   0  0  0  0  0  0  0  0  0  0  0  0
   68.9368   75.9484   90.9977 N   0  0  0  0  0  0  0  0  0  0  0  0
   70.1467   75.2997   92.9706 O   0  0  0  0  0  0  0  0  0  0  0  0
   69.6468   76.0399   94.0833 C   0  0  0  0  0  0  0  0  0  0  0  0
   68.2931   75.5305   94.5010 C   0  0  0  0  0  0  0  0  0  0  0  0
   68.1785   74.3893   95.3125 C   0  0  0  0  0  0  0  0  0  0  0  0
   66.9177   73.9260   95.7015 C   0  0  0  0  0  0  0  0  0  0  0  0
   65.7649   74.5925   95.2774 C   0  0  0  0  0  0  0  0  0  0  0  0
   65.8708   75.7219   94.4611 C   0  0  0  0  0  0  0  0  0  0  0  0
   67.1296   76.1892   94.0709 C   0  0  0  0  0  0  0  0  0  0  0  0
   67.6756   80.6020   88.9816 C   0  0  0  0  0  0  0  0  0  0  0  0
   68.8171   80.7366   89.8297 O   0  0  0  0  0  0  0  0  0  0  0  0
   70.9167   83.5515   88.5166 C   0  0  0  0  0  0  0  0  0  0  0  0
   69.8143   82.6991   88.7141 C   0  0  0  0  0  0  0  0  0  0  0  0
   69.8861   81.6233   89.6188 C   0  0  0  0  0  0  0  0  0  0  0  0
   71.0653   81.4150   90.3368 C   0  0  0  0  0  0  0  0  0  0  0  0
   72.1577   82.2656   90.1678 C   0  0  0  0  0  0  0  0  0  0  0  0
   72.0912   83.3448   89.2806 C   0  0  0  0  0  0  0  0  0  0  0  0
   73.1911   84.2027   89.2156 O   0  0  0  0  0  0  0  0  0  0  0  0
   73.9503   84.0314   89.7374 H   0  0  0  0  0  0  0  0  0  0  0  0
   70.0883   84.4387   86.4743 O   0  0  0  0  0  0  0  0  0  0  0  0
   70.8186   84.6101   87.4877 C   0  0  0  0  0  0  0  0  0  0  0  0
   71.5748   85.7738   87.5943 O   0  0  0  0  0  0  0  0  0  0  0  0
   72.1208   85.9108   88.3435 H   0  0  0  0  0  0  0  0  0  0  0  0
 31 32  2  0  0  0
 32 33  1  0  0  0
 32 23  1  0  0  0
 23 24  2  0  0  0
 24 25  1  0  0  0
 25 22  1  0  0  0
 22 21  1  0  0  0
 21  1  1  0  0  0
  1  2  2  0  0  0
  2  3  1  0  0  0
  3  4  2  0  0  0
  4  5  1  0  0  0
  5  7  1  0  0  0
  7  8  2  0  0  0
  8  9  1  0  0  0
  9 10  2  0  0  0
 10 11  1  0  0  0
 11 13  1  0  0  0
 13 14  1  0  0  0
 14 15  1  0  0  0
 15 16  2  0  0  0
 16 17  1  0  0  0
 17 18  2  0  0  0
 18 19  1  0  0  0
 19 20  2  0  0  0
 11 12  2  0  0  0
  5  6  2  0  0  0
 25 26  2  0  0  0
 26 27  1  0  0  0
 27 28  2  0  0  0
 28 29  1  0  0  0
 28 23  1  0  0  0
  6  1  1  0  0  0
 12  7  2  0  0  0
 20 15  1  0  0  0
 33 34  1  0  0  0
 29 30  1  0  0  0
M  END
> <score>
-0.9805

> <minimizedAffinity>
-9.25521

$$$$
HIPS7005


 35 38  0  0  0  0  0  0  0  0999 V2000
   68.4891   79.1714   89.2778 C   0  0  0  0  0  0  0  0  0  0  0  0
   67.6308   79.7455   88.3276 C   0  0  0  0  0  0  0  0  0  0  0  0
   66.7125   78.9522   87.6379 C   0  0  0  0  0  0  0  0  0  0  0  0
   66.6421   77.5804   87.8881 C   0  0  0  0  0  0  0  0  0  0  0  0
   67.4880   76.9866   88.8420 C   0  0  0  0  0  0  0  0  0  0  0  0
   68.4051   77.7946   89.5399 C   0  0  0  0  0  0  0  0  0  0  0  0
   67.4262   75.5268   89.0999 C   0  0  0  0  0  0  0  0  0  0  0  0
   66.8241   74.6627   88.1681 C   0  0  0  0  0  0  0  0  0  0  0  0
   66.7808   73.2884   88.4053 C   0  0  0  0  0  0  0  0  0  0  0  0
   67.3427   72.7588   89.5686 C   0  0  0  0  0  0  0  0  0  0  0  0
   67.9579   73.6059   90.5063 C   0  0  0  0  0  0  0  0  0  0  0  0
   67.9817   74.9852   90.2737 C   0  0  0  0  0  0  0  0  0  0  0  0
   68.5105   73.1140   91.6978 O   0  0  0  0  0  0  0  0  0  0  0  0
   68.0953   73.4705   92.9892 C   0  0  0  0  0  0  0  0  0  0  0  0
   69.0083   73.9083   93.9658 C   0  0  0  0  0  0  0  0  0  0  0  0
   68.5567   74.2705   95.2378 C   0  0  0  0  0  0  0  0  0  0  0  0
   67.1899   74.2160   95.5408 C   0  0  0  0  0  0  0  0  0  0  0  0
   66.7271   74.5790   96.8029 O   0  0  0  0  0  0  0  0  0  0  0  0
   66.2799   73.7950   94.5665 C   0  0  0  0  0  0  0  0  0  0  0  0
   66.7300   73.4298   93.2954 C   0  0  0  0  0  0  0  0  0  0  0  0
   67.3320   74.8620   97.4602 H   0  0  0  0  0  0  0  0  0  0  0  0
   69.4834   80.0325   90.0116 C   0  0  0  0  0  0  0  0  0  0  0  0
   69.1604   81.4158   89.8653 O   0  0  0  0  0  0  0  0  0  0  0  0
   70.3753   84.4436   88.0991 C   0  0  0  0  0  0  0  0  0  0  0  0
   69.5452   83.4121   88.5798 C   0  0  0  0  0  0  0  0  0  0  0  0
   70.0440   82.4155   89.4277 C   0  0  0  0  0  0  0  0  0  0  0  0
   71.3966   82.4519   89.8079 C   0  0  0  0  0  0  0  0  0  0  0  0
   72.2322   83.4643   89.3378 C   0  0  0  0  0  0  0  0  0  0  0  0
   71.7350   84.4616   88.4902 C   0  0  0  0  0  0  0  0  0  0  0  0
   72.5939   85.4671   88.0459 O   0  0  0  0  0  0  0  0  0  0  0  0
   73.4922   85.4675   88.3123 H   0  0  0  0  0  0  0  0  0  0  0  0
   69.7163   86.6796   87.5914 O   0  0  0  0  0  0  0  0  0  0  0  0
   69.8046   85.4824   87.2019 C   0  0  0  0  0  0  0  0  0  0  0  0
   69.3611   85.1573   85.9237 O   0  0  0  0  0  0  0  0  0  0  0  0
   69.4191   84.2734   85.6183 H   0  0  0  0  0  0  0  0  0  0  0  0
 32 33  2  0  0  0
 33 34  1  0  0  0
 33 24  1  0  0  0
 24 25  2  0  0  0
 25 26  1  0  0  0
 26 23  1  0  0  0
 23 22  1  0  0  0
 22  1  1  0  0  0
  1  2  2  0  0  0
  2  3  1  0  0  0
  3  4  2  0  0  0
  4  5  1  0  0  0
  5  7  1  0  0  0
  7  8  2  0  0  0
  8  9  1  0  0  0
  9 10  2  0  0  0
 10 11  1  0  0  0
 11 13  1  0  0  0
 13 14  1  0  0  0
 14 15  2  0  0  0
 15 16  1  0  0  0
 16 17  2  0  0  0
 17 18  1  0  0  0
 17 19  1  0  0  0
 19 20  2  0  0  0
 11 12  2  0  0  0
  5  6  2  0  0  0
 26 27  2  0  0  0
 27 28  1  0  0  0
 28 29  2  0  0  0
 29 30  1  0  0  0
 29 24  1  0  0  0
  6  1  1  0  0  0
 12  7  1  0  0  0
 20 14  1  0  0  0
 34 35  1  0  0  0
 18 21  1  0  0  0
 30 31  1  0  0  0
M  END
> <score>
-0.73298

> <minimizedAffinity>
-9.44186

$$$$
HIPS7005


 35 38  0  0  0  0  0  0  0  0999 V2000
   67.1535   79.8368   88.0330 C   0  0  0  0  0  0  0  0  0  0  0  0
   66.4438   78.8344   87.3544 C   0  0  0  0  0  0  0  0  0  0  0  0
   66.7588   77.4895   87.5556 C   0  0  0  0  0  0  0  0  0  0  0  0
   67.7836   77.1319   88.4337 C   0  0  0  0  0  0  0  0  0  0  0  0
   68.5020   78.1208   89.1296 C   0  0  0  0  0  0  0  0  0  0  0  0
   68.1726   79.4743   88.9282 C   0  0  0  0  0  0  0  0  0  0  0  0
   69.6016   77.7453   90.0521 C   0  0  0  0  0  0  0  0  0  0  0  0
   70.8021   78.4774   90.0665 C   0  0  0  0  0  0  0  0  0  0  0  0
   71.8290   78.1321   90.9457 C   0  0  0  0  0  0  0  0  0  0  0  0
   71.6693   77.0594   91.8249 C   0  0  0  0  0  0  0  0  0  0  0  0
   70.4724   76.3226   91.8321 C   0  0  0  0  0  0  0  0  0  0  0  0
   69.4531   76.6600   90.9353 C   0  0  0  0  0  0  0  0  0  0  0  0
   70.2848   75.2233   92.6827 O   0  0  0  0  0  0  0  0  0  0  0  0
   69.0617   74.8423   93.2535 C   0  0  0  0  0  0  0  0  0  0  0  0
   68.5058   75.5357   94.3441 C   0  0  0  0  0  0  0  0  0  0  0  0
   67.2770   75.1374   94.8774 C   0  0  0  0  0  0  0  0  0  0  0  0
   66.5843   74.0562   94.3171 C   0  0  0  0  0  0  0  0  0  0  0  0
   65.3569   73.6529   94.8365 O   0  0  0  0  0  0  0  0  0  0  0  0
   67.1288   73.3754   93.2241 C   0  0  0  0  0  0  0  0  0  0  0  0
   68.3583   73.7704   92.6915 C   0  0  0  0  0  0  0  0  0  0  0  0
   64.9868   74.1052   95.5689 H   0  0  0  0  0  0  0  0  0  0  0  0
   66.8138   81.2861   87.8039 C   0  0  0  0  0  0  0  0  0  0  0  0
   67.7541   81.8924   86.9166 O   0  0  0  0  0  0  0  0  0  0  0  0
   70.5285   83.8701   88.3844 C   0  0  0  0  0  0  0  0  0  0  0  0
   69.6787   82.8020   88.0368 C   0  0  0  0  0  0  0  0  0  0  0  0
   68.5594   83.0022   87.2193 C   0  0  0  0  0  0  0  0  0  0  0  0
   68.2857   84.2928   86.7348 C   0  0  0  0  0  0  0  0  0  0  0  0
   69.1152   85.3614   87.0728 C   0  0  0  0  0  0  0  0  0  0  0  0
   70.2348   85.1629   87.8897 C   0  0  0  0  0  0  0  0  0  0  0  0
   71.0514   86.2503   88.2006 O   0  0  0  0  0  0  0  0  0  0  0  0
   70.8458   87.1013   87.8665 H   0  0  0  0  0  0  0  0  0  0  0  0
   71.5724   82.9741   90.3335 O   0  0  0  0  0  0  0  0  0  0  0  0
   71.7067   83.6132   89.2536 C   0  0  0  0  0  0  0  0  0  0  0  0
   72.9720   84.0679   88.8949 O   0  0  0  0  0  0  0  0  0  0  0  0
   73.0898   84.5440   88.0966 H   0  0  0  0  0  0  0  0  0  0  0  0
 32 33  2  0  0  0
 33 34  1  0  0  0
 33 24  1  0  0  0
 24 25  2  0  0  0
 25 26  1  0  0  0
 26 23  1  0  0  0
 23 22  1  0  0  0
 22  1  1  0  0  0
  1  2  2  0  0  0
  2  3  1  0  0  0
  3  4  2  0  0  0
  4  5  1  0  0  0
  5  7  1  0  0  0
  7  8  2  0  0  0
  8  9  1  0  0  0
  9 10  2  0  0  0
 10 11  1  0  0  0
 11 13  1  0  0  0
 13 14  1  0  0  0
 14 15  2  0  0  0
 15 16  1  0  0  0
 16 17  2  0  0  0
 17 18  1  0  0  0
 17 19  1  0  0  0
 19 20  2  0  0  0
 11 12  2  0  0  0
  5  6  2  0  0  0
 26 27  2  0  0  0
 27 28  1  0  0  0
 28 29  2  0  0  0
 29 30  1  0  0  0
 29 24  1  0  0  0
  6  1  1  0  0  0
 12  7  1  0  0  0
 20 14  1  0  0  0
 34 35  1  0  0  0
 18 21  1  0  0  0
 30 31  1  0  0  0
M  END
> <score>
-0.73298

> <minimizedAffinity>
-9.33395

$$$$
HIPS7005


 35 38  0  0  0  0  0  0  0  0999 V2000
   69.8206   78.7190   90.3328 C   0  0  0  0  0  0  0  0  0  0  0  0
   71.2157   78.5841   90.2667 C   0  0  0  0  0  0  0  0  0  0  0  0
   71.8502   77.5126   90.8974 C   0  0  0  0  0  0  0  0  0  0  0  0
   71.1004   76.5671   91.5998 C   0  0  0  0  0  0  0  0  0  0  0  0
   69.7003   76.6798   91.6717 C   0  0  0  0  0  0  0  0  0  0  0  0
   69.0670   77.7581   91.0257 C   0  0  0  0  0  0  0  0  0  0  0  0
   68.9017   75.6853   92.4296 C   0  0  0  0  0  0  0  0  0  0  0  0
   67.5332   75.9027   92.6693 C   0  0  0  0  0  0  0  0  0  0  0  0
   66.7804   74.9589   93.3689 C   0  0  0  0  0  0  0  0  0  0  0  0
   67.3799   73.7857   93.8311 C   0  0  0  0  0  0  0  0  0  0  0  0
   68.7441   73.5465   93.5920 C   0  0  0  0  0  0  0  0  0  0  0  0
   69.4994   74.5045   92.9072 C   0  0  0  0  0  0  0  0  0  0  0  0
   69.3869   72.3921   94.0624 O   0  0  0  0  0  0  0  0  0  0  0  0
   70.1344   71.5050   93.2742 C   0  0  0  0  0  0  0  0  0  0  0  0
   71.4836   71.2221   93.5549 C   0  0  0  0  0  0  0  0  0  0  0  0
   72.1933   70.3206   92.7571 C   0  0  0  0  0  0  0  0  0  0  0  0
   71.5593   69.6808   91.6840 C   0  0  0  0  0  0  0  0  0  0  0  0
   72.2543   68.7770   90.8848 O   0  0  0  0  0  0  0  0  0  0  0  0
   70.2145   69.9502   91.4128 C   0  0  0  0  0  0  0  0  0  0  0  0
   69.5043   70.8532   92.2075 C   0  0  0  0  0  0  0  0  0  0  0  0
   73.1558   68.5923   91.0615 H   0  0  0  0  0  0  0  0  0  0  0  0
   69.1441   79.8829   89.6572 C   0  0  0  0  0  0  0  0  0  0  0  0
   69.5061   81.1131   90.2852 O   0  0  0  0  0  0  0  0  0  0  0  0
   70.3579   84.0262   88.1517 C   0  0  0  0  0  0  0  0  0  0  0  0
   69.6478   82.9859   88.7823 C   0  0  0  0  0  0  0  0  0  0  0  0
   70.2744   82.1311   89.6976 C   0  0  0  0  0  0  0  0  0  0  0  0
   71.6351   82.3214   89.9936 C   0  0  0  0  0  0  0  0  0  0  0  0
   72.3529   83.3443   89.3752 C   0  0  0  0  0  0  0  0  0  0  0  0
   71.7279   84.2001   88.4600 C   0  0  0  0  0  0  0  0  0  0  0  0
   72.4707   85.2209   87.8666 O   0  0  0  0  0  0  0  0  0  0  0  0
   73.3772   85.3252   88.0794 H   0  0  0  0  0  0  0  0  0  0  0  0
   68.5254   85.3968   87.4774 O   0  0  0  0  0  0  0  0  0  0  0  0
   69.6537   84.9115   87.1874 C   0  0  0  0  0  0  0  0  0  0  0  0
   70.2217   85.2212   85.9555 O   0  0  0  0  0  0  0  0  0  0  0  0
   71.0587   84.8696   85.7238 H   0  0  0  0  0  0  0  0  0  0  0  0
 32 33  2  0  0  0
 33 34  1  0  0  0
 33 24  1  0  0  0
 24 25  2  0  0  0
 25 26  1  0  0  0
 26 23  1  0  0  0
 23 22  1  0  0  0
 22  1  1  0  0  0
  1  2  2  0  0  0
  2  3  1  0  0  0
  3  4  2  0  0  0
  4  5  1  0  0  0
  5  7  1  0  0  0
  7  8  2  0  0  0
  8  9  1  0  0  0
  9 10  2  0  0  0
 10 11  1  0  0  0
 11 13  1  0  0  0
 13 14  1  0  0  0
 14 15  2  0  0  0
 15 16  1  0  0  0
 16 17  2  0  0  0
 17 18  1  0  0  0
 17 19  1  0  0  0
 19 20  2  0  0  0
 11 12  2  0  0  0
  5  6  2  0  0  0
 26 27  2  0  0  0
 27 28  1  0  0  0
 28 29  2  0  0  0
 29 30  1  0  0  0
 29 24  1  0  0  0
  6  1  1  0  0  0
 12  7  1  0  0  0
 20 14  1  0  0  0
 34 35  1  0  0  0
 18 21  1  0  0  0
 30 31  1  0  0  0
M  END
> <score>
-0.73298

> <minimizedAffinity>
-9.17187

$$$$
HIPS7006


 36 39  0  0  0  0  0  0  0  0999 V2000
   69.6616   76.4581   91.8580 C   0  0  0  0  0  0  0  0  0  0  0  0
   71.0410   76.7004   91.8175 C   0  0  0  0  0  0  0  0  0  0  0  0
   71.5627   77.6731   90.9638 C   0  0  0  0  0  0  0  0  0  0  0  0
   70.7094   78.4076   90.1363 C   0  0  0  0  0  0  0  0  0  0  0  0
   69.3182   78.1804   90.1534 C   0  0  0  0  0  0  0  0  0  0  0  0
   68.8034   77.2042   91.0295 C   0  0  0  0  0  0  0  0  0  0  0  0
   68.4121   78.9558   89.2563 C   0  0  0  0  0  0  0  0  0  0  0  0
   67.5290   78.2968   88.3830 C   0  0  0  0  0  0  0  0  0  0  0  0
   66.6716   79.0251   87.5568 C   0  0  0  0  0  0  0  0  0  0  0  0
   66.6726   80.4161   87.5977 C   0  0  0  0  0  0  0  0  0  0  0  0
   67.5378   81.1018   88.4558 C   0  0  0  0  0  0  0  0  0  0  0  0
   68.4094   80.3647   89.2810 C   0  0  0  0  0  0  0  0  0  0  0  0
   67.4859   82.5099   88.4662 O   0  0  0  0  0  0  0  0  0  0  0  0
   67.5945   83.3520   87.3184 C   0  0  0  0  0  0  0  0  0  0  0  0
   68.8650   84.1505   87.3721 C   0  0  0  0  0  0  0  0  0  0  0  0
   70.0988   83.5032   87.2069 C   0  0  0  0  0  0  0  0  0  0  0  0
   71.2886   84.2290   87.2800 C   0  0  0  0  0  0  0  0  0  0  0  0
   71.2602   85.6052   87.5229 C   0  0  0  0  0  0  0  0  0  0  0  0
   72.4526   86.3134   87.6075 O   0  0  0  0  0  0  0  0  0  0  0  0
   70.0295   86.2594   87.6775 C   0  0  0  0  0  0  0  0  0  0  0  0
   68.8380   85.5368   87.5966 C   0  0  0  0  0  0  0  0  0  0  0  0
   73.2704   85.8681   87.5029 H   0  0  0  0  0  0  0  0  0  0  0  0
   69.1127   75.4619   92.8458 C   0  0  0  0  0  0  0  0  0  0  0  0
   70.0993   74.5187   93.2612 O   0  0  0  0  0  0  0  0  0  0  0  0
   70.5074   70.7993   93.5954 C   0  0  0  0  0  0  0  0  0  0  0  0
   70.5497   72.1752   93.9052 C   0  0  0  0  0  0  0  0  0  0  0  0
   70.0678   73.1398   92.9986 C   0  0  0  0  0  0  0  0  0  0  0  0
   69.5298   72.7193   91.7834 C   0  0  0  0  0  0  0  0  0  0  0  0
   69.4675   71.3630   91.4678 C   0  0  0  0  0  0  0  0  0  0  0  0
   69.9539   70.3988   92.3601 C   0  0  0  0  0  0  0  0  0  0  0  0
   69.8788   69.0468   92.0129 O   0  0  0  0  0  0  0  0  0  0  0  0
   69.5091   68.7943   91.1899 H   0  0  0  0  0  0  0  0  0  0  0  0
   70.2529   68.9372   95.0606 O   0  0  0  0  0  0  0  0  0  0  0  0
   71.0248   69.8059   94.5718 C   0  0  0  0  0  0  0  0  0  0  0  0
   72.3602   69.8195   94.9615 O   0  0  0  0  0  0  0  0  0  0  0  0
   72.9454   70.4594   94.6065 H   0  0  0  0  0  0  0  0  0  0  0  0
 33 34  2  0  0  0
 34 35  1  0  0  0
 34 25  1  0  0  0
 25 26  2  0  0  0
 26 27  1  0  0  0
 27 24  1  0  0  0
 24 23  1  0  0  0
 23  1  1  0  0  0
  1  2  2  0  0  0
  2  3  1  0  0  0
  3  4  2  0  0  0
  4  5  1  0  0  0
  5  7  1  0  0  0
  7  8  2  0  0  0
  8  9  1  0  0  0
  9 10  2  0  0  0
 10 11  1  0  0  0
 11 13  1  0  0  0
 13 14  1  0  0  0
 14 15  1  0  0  0
 15 16  2  0  0  0
 16 17  1  0  0  0
 17 18  2  0  0  0
 18 19  1  0  0  0
 18 20  1  0  0  0
 20 21  2  0  0  0
 11 12  2  0  0  0
  5  6  2  0  0  0
 27 28  2  0  0  0
 28 29  1  0  0  0
 29 30  2  0  0  0
 30 31  1  0  0  0
 30 25  1  0  0  0
  6  1  1  0  0  0
 12  7  1  0  0  0
 21 15  1  0  0  0
 35 36  1  0  0  0
 19 22  1  0  0  0
 31 32  1  0  0  0
M  END
> <score>
-1.116919

> <minimizedAffinity>
-9.54171

$$$$
HIPS7006


 36 39  0  0  0  0  0  0  0  0999 V2000
   70.1182   78.4674   90.7012 C   0  0  0  0  0  0  0  0  0  0  0  0
   68.7192   78.5411   90.7040 C   0  0  0  0  0  0  0  0  0  0  0  0
   68.0727   79.7146   90.3137 C   0  0  0  0  0  0  0  0  0  0  0  0
   68.8207   80.8287   89.9244 C   0  0  0  0  0  0  0  0  0  0  0  0
   70.2298   80.7833   89.9175 C   0  0  0  0  0  0  0  0  0  0  0  0
   70.8695   79.5880   90.3015 C   0  0  0  0  0  0  0  0  0  0  0  0
   71.0251   81.9806   89.5165 C   0  0  0  0  0  0  0  0  0  0  0  0
   72.2952   82.2183   90.0705 C   0  0  0  0  0  0  0  0  0  0  0  0
   73.0432   83.3307   89.6813 C   0  0  0  0  0  0  0  0  0  0  0  0
   72.5434   84.2127   88.7280 C   0  0  0  0  0  0  0  0  0  0  0  0
   71.2843   84.0043   88.1569 C   0  0  0  0  0  0  0  0  0  0  0  0
   70.5271   82.8867   88.5591 C   0  0  0  0  0  0  0  0  0  0  0  0
   70.8345   84.9212   87.1862 O   0  0  0  0  0  0  0  0  0  0  0  0
   69.5966   85.6316   87.2274 C   0  0  0  0  0  0  0  0  0  0  0  0
   69.5221   86.4840   88.4614 C   0  0  0  0  0  0  0  0  0  0  0  0
   68.8643   85.9984   89.6015 C   0  0  0  0  0  0  0  0  0  0  0  0
   68.7654   86.7900   90.7466 C   0  0  0  0  0  0  0  0  0  0  0  0
   69.3168   88.0742   90.7645 C   0  0  0  0  0  0  0  0  0  0  0  0
   69.1989   88.8574   91.9061 O   0  0  0  0  0  0  0  0  0  0  0  0
   69.9854   88.5606   89.6318 C   0  0  0  0  0  0  0  0  0  0  0  0
   70.0926   87.7672   88.4883 C   0  0  0  0  0  0  0  0  0  0  0  0
   68.7505   88.5244   92.6585 H   0  0  0  0  0  0  0  0  0  0  0  0
   70.7926   77.1655   91.0470 C   0  0  0  0  0  0  0  0  0  0  0  0
   70.2442   76.5729   92.2234 O   0  0  0  0  0  0  0  0  0  0  0  0
   67.6762   74.0735   93.3504 C   0  0  0  0  0  0  0  0  0  0  0  0
   68.5531   75.1788   93.3661 C   0  0  0  0  0  0  0  0  0  0  0  0
   69.3514   75.4895   92.2479 C   0  0  0  0  0  0  0  0  0  0  0  0
   69.2581   74.6953   91.1062 C   0  0  0  0  0  0  0  0  0  0  0  0
   68.3864   73.6081   91.0689 C   0  0  0  0  0  0  0  0  0  0  0  0
   67.5968   73.2872   92.1807 C   0  0  0  0  0  0  0  0  0  0  0  0
   66.7343   72.1893   92.1122 O   0  0  0  0  0  0  0  0  0  0  0  0
   66.6911   71.6756   91.3298 H   0  0  0  0  0  0  0  0  0  0  0  0
   67.4002   73.4946   95.6455 O   0  0  0  0  0  0  0  0  0  0  0  0
   66.8479   73.7704   94.5462 C   0  0  0  0  0  0  0  0  0  0  0  0
   65.4588   73.7841   94.4723 O   0  0  0  0  0  0  0  0  0  0  0  0
   65.0348   73.9874   93.6618 H   0  0  0  0  0  0  0  0  0  0  0  0
 33 34  2  0  0  0
 34 35  1  0  0  0
 34 25  1  0  0  0
 25 26  2  0  0  0
 26 27  1  0  0  0
 27 24  1  0  0  0
 24 23  1  0  0  0
 23  1  1  0  0  0
  1  2  2  0  0  0
  2  3  1  0  0  0
  3  4  2  0  0  0
  4  5  1  0  0  0
  5  7  1  0  0  0
  7  8  2  0  0  0
  8  9  1  0  0  0
  9 10  2  0  0  0
 10 11  1  0  0  0
 11 13  1  0  0  0
 13 14  1  0  0  0
 14 15  1  0  0  0
 15 16  2  0  0  0
 16 17  1  0  0  0
 17 18  2  0  0  0
 18 19  1  0  0  0
 18 20  1  0  0  0
 20 21  2  0  0  0
 11 12  2  0  0  0
  5  6  2  0  0  0
 27 28  2  0  0  0
 28 29  1  0  0  0
 29 30  2  0  0  0
 30 31  1  0  0  0
 30 25  1  0  0  0
  6  1  1  0  0  0
 12  7  1  0  0  0
 21 15  1  0  0  0
 35 36  1  0  0  0
 19 22  1  0  0  0
 31 32  1  0  0  0
M  END
> <score>
-1.116919

> <minimizedAffinity>
-9.54027

$$$$
HIPS7006


 36 39  0  0  0  0  0  0  0  0999 V2000
   68.0407   79.4351   89.4001 C   0  0  0  0  0  0  0  0  0  0  0  0
   67.4078   79.8064   88.2066 C   0  0  0  0  0  0  0  0  0  0  0  0
   66.8442   78.8379   87.3748 C   0  0  0  0  0  0  0  0  0  0  0  0
   66.9157   77.4874   87.7259 C   0  0  0  0  0  0  0  0  0  0  0  0
   67.5514   77.0860   88.9185 C   0  0  0  0  0  0  0  0  0  0  0  0
   68.1049   78.0752   89.7554 C   0  0  0  0  0  0  0  0  0  0  0  0
   67.6397   75.6412   89.2816 C   0  0  0  0  0  0  0  0  0  0  0  0
   66.9096   74.6748   88.5678 C   0  0  0  0  0  0  0  0  0  0  0  0
   67.0069   73.3225   88.8998 C   0  0  0  0  0  0  0  0  0  0  0  0
   67.8402   72.9136   89.9366 C   0  0  0  0  0  0  0  0  0  0  0  0
   68.5805   73.8494   90.6654 C   0  0  0  0  0  0  0  0  0  0  0  0
   68.4726   75.2144   90.3351 C   0  0  0  0  0  0  0  0  0  0  0  0
   69.4189   73.3777   91.6949 O   0  0  0  0  0  0  0  0  0  0  0  0
   68.9924   72.6322   92.8354 C   0  0  0  0  0  0  0  0  0  0  0  0
   68.0356   73.4414   93.6628 C   0  0  0  0  0  0  0  0  0  0  0  0
   68.5329   74.3334   94.6248 C   0  0  0  0  0  0  0  0  0  0  0  0
   67.6547   75.0728   95.4183 C   0  0  0  0  0  0  0  0  0  0  0  0
   66.2732   74.9268   95.2638 C   0  0  0  0  0  0  0  0  0  0  0  0
   65.4099   75.6584   96.0700 O   0  0  0  0  0  0  0  0  0  0  0  0
   65.7704   74.0451   94.2961 C   0  0  0  0  0  0  0  0  0  0  0  0
   66.6471   73.3107   93.4958 C   0  0  0  0  0  0  0  0  0  0  0  0
   65.7546   76.2452   96.7141 H   0  0  0  0  0  0  0  0  0  0  0  0
   68.5691   80.5029   90.3222 C   0  0  0  0  0  0  0  0  0  0  0  0
   69.9557   80.7604   90.1061 O   0  0  0  0  0  0  0  0  0  0  0  0
   70.3460   83.9241   88.1184 C   0  0  0  0  0  0  0  0  0  0  0  0
   69.7678   82.7573   88.6617 C   0  0  0  0  0  0  0  0  0  0  0  0
   70.4879   81.9346   89.5499 C   0  0  0  0  0  0  0  0  0  0  0  0
   71.7877   82.2930   89.9035 C   0  0  0  0  0  0  0  0  0  0  0  0
   72.3688   83.4500   89.3871 C   0  0  0  0  0  0  0  0  0  0  0  0
   71.6623   84.2675   88.4955 C   0  0  0  0  0  0  0  0  0  0  0  0
   72.2741   85.4199   87.9937 O   0  0  0  0  0  0  0  0  0  0  0  0
   73.1484   85.6365   88.2520 H   0  0  0  0  0  0  0  0  0  0  0  0
   68.3745   85.0908   87.4622 O   0  0  0  0  0  0  0  0  0  0  0  0
   69.5615   84.7708   87.1828 C   0  0  0  0  0  0  0  0  0  0  0  0
   70.1196   85.2196   85.9902 O   0  0  0  0  0  0  0  0  0  0  0  0
   71.0007   84.9896   85.7695 H   0  0  0  0  0  0  0  0  0  0  0  0
 33 34  2  0  0  0
 34 35  1  0  0  0
 34 25  1  0  0  0
 25 26  2  0  0  0
 26 27  1  0  0  0
 27 24  1  0  0  0
 24 23  1  0  0  0
 23  1  1  0  0  0
  1  2  2  0  0  0
  2  3  1  0  0  0
  3  4  2  0  0  0
  4  5  1  0  0  0
  5  7  1  0  0  0
  7  8  2  0  0  0
  8  9  1  0  0  0
  9 10  2  0  0  0
 10 11  1  0  0  0
 11 13  1  0  0  0
 13 14  1  0  0  0
 14 15  1  0  0  0
 15 16  2  0  0  0
 16 17  1  0  0  0
 17 18  2  0  0  0
 18 19  1  0  0  0
 18 20  1  0  0  0
 20 21  2  0  0  0
 11 12  2  0  0  0
  5  6  2  0  0  0
 27 28  2  0  0  0
 28 29  1  0  0  0
 29 30  2  0  0  0
 30 31  1  0  0  0
 30 25  1  0  0  0
  6  1  1  0  0  0
 12  7  1  0  0  0
 21 15  1  0  0  0
 35 36  1  0  0  0
 19 22  1  0  0  0
 31 32  1  0  0  0
M  END
> <score>
-1.116919

> <minimizedAffinity>
-9.45252

$$$$
HIPS7007


 34 37  0  0  0  0  0  0  0  0999 V2000
   69.0715   79.1447   89.6688 C   0  0  0  0  0  0  0  0  0  0  0  0
   67.9807   79.8718   89.1759 C   0  0  0  0  0  0  0  0  0  0  0  0
   66.8479   79.2276   88.7927 N   0  0  0  0  0  0  0  0  0  0  0  0
   66.7335   77.8751   88.8589 C   0  0  0  0  0  0  0  0  0  0  0  0
   67.8028   77.0938   89.3289 C   0  0  0  0  0  0  0  0  0  0  0  0
   68.9804   77.7476   89.7289 C   0  0  0  0  0  0  0  0  0  0  0  0
   67.6926   75.6142   89.3975 C   0  0  0  0  0  0  0  0  0  0  0  0
   66.8829   74.9149   88.4855 C   0  0  0  0  0  0  0  0  0  0  0  0
   66.7831   73.5238   88.5513 C   0  0  0  0  0  0  0  0  0  0  0  0
   67.4849   72.8132   89.5267 C   0  0  0  0  0  0  0  0  0  0  0  0
   68.2962   73.4947   90.4527 C   0  0  0  0  0  0  0  0  0  0  0  0
   68.3968   74.8893   90.3770 C   0  0  0  0  0  0  0  0  0  0  0  0
   69.0172   72.8323   91.4596 O   0  0  0  0  0  0  0  0  0  0  0  0
   68.4432   72.1805   92.5933 C   0  0  0  0  0  0  0  0  0  0  0  0
   67.8327   73.1839   93.5356 C   0  0  0  0  0  0  0  0  0  0  0  0
   68.6580   73.9886   94.3387 C   0  0  0  0  0  0  0  0  0  0  0  0
   68.0950   74.9152   95.2216 C   0  0  0  0  0  0  0  0  0  0  0  0
   66.7062   75.0387   95.3155 C   0  0  0  0  0  0  0  0  0  0  0  0
   65.8781   74.2331   94.5292 C   0  0  0  0  0  0  0  0  0  0  0  0
   66.4371   73.3050   93.6450 C   0  0  0  0  0  0  0  0  0  0  0  0
   70.3437   79.8418   90.0514 C   0  0  0  0  0  0  0  0  0  0  0  0
   70.0660   81.2165   90.3029 O   0  0  0  0  0  0  0  0  0  0  0  0
   70.5314   84.1503   88.0851 C   0  0  0  0  0  0  0  0  0  0  0  0
   69.9514   83.0682   88.7722 C   0  0  0  0  0  0  0  0  0  0  0  0
   70.7021   82.2866   89.6567 C   0  0  0  0  0  0  0  0  0  0  0  0
   72.0579   82.5923   89.8618 C   0  0  0  0  0  0  0  0  0  0  0  0
   72.6405   83.6753   89.2025 C   0  0  0  0  0  0  0  0  0  0  0  0
   71.8883   84.4723   88.3328 C   0  0  0  0  0  0  0  0  0  0  0  0
   72.5117   85.5871   87.7684 O   0  0  0  0  0  0  0  0  0  0  0  0
   73.4119   85.7660   87.9571 H   0  0  0  0  0  0  0  0  0  0  0  0
   68.4884   85.1002   87.3329 O   0  0  0  0  0  0  0  0  0  0  0  0
   69.7092   84.8875   87.1008 C   0  0  0  0  0  0  0  0  0  0  0  0
   70.2546   85.2988   85.8881 O   0  0  0  0  0  0  0  0  0  0  0  0
   71.1608   85.1454   85.7059 H   0  0  0  0  0  0  0  0  0  0  0  0
 31 32  2  0  0  0
 32 33  1  0  0  0
 32 23  1  0  0  0
 23 24  2  0  0  0
 24 25  1  0  0  0
 25 22  1  0  0  0
 22 21  1  0  0  0
 21  1  1  0  0  0
  1  2  2  0  0  0
  2  3  2  0  0  0
  3  4  2  0  0  0
  4  5  1  0  0  0
  5  7  1  0  0  0
  7  8  2  0  0  0
  8  9  1  0  0  0
  9 10  2  0  0  0
 10 11  1  0  0  0
 11 13  1  0  0  0
 13 14  1  0  0  0
 14 15  1  0  0  0
 15 16  2  0  0  0
 16 17  1  0  0  0
 17 18  2  0  0  0
 18 19  1  0  0  0
 19 20  2  0  0  0
 11 12  2  0  0  0
  5  6  2  0  0  0
 25 26  2  0  0  0
 26 27  1  0  0  0
 27 28  2  0  0  0
 28 29  1  0  0  0
 28 23  1  0  0  0
  6  1  1  0  0  0
 12  7  1  0  0  0
 20 15  1  0  0  0
 33 34  1  0  0  0
 29 30  1  0  0  0
M  END
> <score>
0.012237

> <minimizedAffinity>
-9.18567

$$$$
HIPS7007


 34 37  0  0  0  0  0  0  0  0999 V2000
   67.1226   79.2229   88.7976 C   0  0  0  0  0  0  0  0  0  0  0  0
   66.7299   78.9756   87.4762 C   0  0  0  0  0  0  0  0  0  0  0  0
   66.7699   77.7128   86.9771 N   0  0  0  0  0  0  0  0  0  0  0  0
   67.1969   76.6594   87.7220 C   0  0  0  0  0  0  0  0  0  0  0  0
   67.6194   76.8519   89.0482 C   0  0  0  0  0  0  0  0  0  0  0  0
   67.5827   78.1531   89.5771 C   0  0  0  0  0  0  0  0  0  0  0  0
   68.0964   75.7096   89.8691 C   0  0  0  0  0  0  0  0  0  0  0  0
   67.7655   74.3894   89.5172 C   0  0  0  0  0  0  0  0  0  0  0  0
   68.2173   73.3177   90.2897 C   0  0  0  0  0  0  0  0  0  0  0  0
   69.0003   73.5473   91.4224 C   0  0  0  0  0  0  0  0  0  0  0  0
   69.3377   74.8616   91.7953 C   0  0  0  0  0  0  0  0  0  0  0  0
   68.8867   75.9314   91.0123 C   0  0  0  0  0  0  0  0  0  0  0  0
   70.1146   75.1516   92.9287 O   0  0  0  0  0  0  0  0  0  0  0  0
   69.6739   75.9005   94.0621 C   0  0  0  0  0  0  0  0  0  0  0  0
   68.3057   75.4509   94.5018 C   0  0  0  0  0  0  0  0  0  0  0  0
   68.1602   74.2782   95.2617 C   0  0  0  0  0  0  0  0  0  0  0  0
   66.8907   73.8522   95.6642 C   0  0  0  0  0  0  0  0  0  0  0  0
   65.7583   74.5878   95.3040 C   0  0  0  0  0  0  0  0  0  0  0  0
   65.8935   75.7485   94.5375 C   0  0  0  0  0  0  0  0  0  0  0  0
   67.1614   76.1779   94.1328 C   0  0  0  0  0  0  0  0  0  0  0  0
   67.1261   80.6200   89.3445 C   0  0  0  0  0  0  0  0  0  0  0  0
   68.4429   81.1559   89.2494 O   0  0  0  0  0  0  0  0  0  0  0  0
   70.4929   83.9175   87.8660 C   0  0  0  0  0  0  0  0  0  0  0  0
   70.0811   82.7968   88.6104 C   0  0  0  0  0  0  0  0  0  0  0  0
   68.7933   82.2689   88.4710 C   0  0  0  0  0  0  0  0  0  0  0  0
   67.8992   82.8694   87.5691 C   0  0  0  0  0  0  0  0  0  0  0  0
   68.3012   83.9687   86.8095 C   0  0  0  0  0  0  0  0  0  0  0  0
   69.5949   84.4873   86.9306 C   0  0  0  0  0  0  0  0  0  0  0  0
   69.9571   85.5369   86.0837 O   0  0  0  0  0  0  0  0  0  0  0  0
   69.3336   85.8866   85.4780 H   0  0  0  0  0  0  0  0  0  0  0  0
   72.1329   85.6258   87.6811 O   0  0  0  0  0  0  0  0  0  0  0  0
   71.8375   84.4805   88.1177 C   0  0  0  0  0  0  0  0  0  0  0  0
   72.8059   83.7331   88.7817 O   0  0  0  0  0  0  0  0  0  0  0  0
   72.5965   82.8809   89.1099 H   0  0  0  0  0  0  0  0  0  0  0  0
 31 32  2  0  0  0
 32 33  1  0  0  0
 32 23  1  0  0  0
 23 24  2  0  0  0
 24 25  1  0  0  0
 25 22  1  0  0  0
 22 21  1  0  0  0
 21  1  1  0  0  0
  1  2  2  0  0  0
  2  3  2  0  0  0
  3  4  2  0  0  0
  4  5  1  0  0  0
  5  7  1  0  0  0
  7  8  2  0  0  0
  8  9  1  0  0  0
  9 10  2  0  0  0
 10 11  1  0  0  0
 11 13  1  0  0  0
 13 14  1  0  0  0
 14 15  1  0  0  0
 15 16  2  0  0  0
 16 17  1  0  0  0
 17 18  2  0  0  0
 18 19  1  0  0  0
 19 20  2  0  0  0
 11 12  2  0  0  0
  5  6  2  0  0  0
 25 26  2  0  0  0
 26 27  1  0  0  0
 27 28  2  0  0  0
 28 29  1  0  0  0
 28 23  1  0  0  0
  6  1  1  0  0  0
 12  7  1  0  0  0
 20 15  1  0  0  0
 33 34  1  0  0  0
 29 30  1  0  0  0
M  END
> <score>
0.012237

> <minimizedAffinity>
-9.13862

$$$$
HIPS7007


 34 37  0  0  0  0  0  0  0  0999 V2000
   70.2497   78.5633   90.6022 C   0  0  0  0  0  0  0  0  0  0  0  0
   68.8562   78.6844   90.6742 C   0  0  0  0  0  0  0  0  0  0  0  0
   68.2557   79.8601   90.3543 N   0  0  0  0  0  0  0  0  0  0  0  0
   68.9703   80.9504   89.9707 C   0  0  0  0  0  0  0  0  0  0  0  0
   70.3723   80.8914   89.8977 C   0  0  0  0  0  0  0  0  0  0  0  0
   71.0063   79.6811   90.2256 C   0  0  0  0  0  0  0  0  0  0  0  0
   71.1645   82.0792   89.4881 C   0  0  0  0  0  0  0  0  0  0  0  0
   72.4394   82.3106   90.0337 C   0  0  0  0  0  0  0  0  0  0  0  0
   73.1825   83.4269   89.6451 C   0  0  0  0  0  0  0  0  0  0  0  0
   72.6646   84.3271   88.7122 C   0  0  0  0  0  0  0  0  0  0  0  0
   71.3881   84.1169   88.1586 C   0  0  0  0  0  0  0  0  0  0  0  0
   70.6509   82.9918   88.5480 C   0  0  0  0  0  0  0  0  0  0  0  0
   70.8142   84.9936   87.2234 O   0  0  0  0  0  0  0  0  0  0  0  0
   69.5284   85.6033   87.3441 C   0  0  0  0  0  0  0  0  0  0  0  0
   69.4643   86.4804   88.5664 C   0  0  0  0  0  0  0  0  0  0  0  0
   68.8015   86.0318   89.7211 C   0  0  0  0  0  0  0  0  0  0  0  0
   68.7318   86.8468   90.8551 C   0  0  0  0  0  0  0  0  0  0  0  0
   69.3144   88.1169   90.8416 C   0  0  0  0  0  0  0  0  0  0  0  0
   69.9646   88.5755   89.6927 C   0  0  0  0  0  0  0  0  0  0  0  0
   70.0365   87.7636   88.5563 C   0  0  0  0  0  0  0  0  0  0  0  0
   70.9265   77.2840   90.9974 C   0  0  0  0  0  0  0  0  0  0  0  0
   70.3314   76.7908   92.1944 O   0  0  0  0  0  0  0  0  0  0  0  0
   67.7113   74.4915   93.4559 C   0  0  0  0  0  0  0  0  0  0  0  0
   68.5843   75.5875   93.3278 C   0  0  0  0  0  0  0  0  0  0  0  0
   69.4817   75.6766   92.2586 C   0  0  0  0  0  0  0  0  0  0  0  0
   69.5071   74.6532   91.2965 C   0  0  0  0  0  0  0  0  0  0  0  0
   68.6326   73.5708   91.4002 C   0  0  0  0  0  0  0  0  0  0  0  0
   67.7191   73.4878   92.4565 C   0  0  0  0  0  0  0  0  0  0  0  0
   66.8192   72.4201   92.4562 O   0  0  0  0  0  0  0  0  0  0  0  0
   66.8567   71.7759   91.7768 H   0  0  0  0  0  0  0  0  0  0  0  0
   66.8180   73.3576   95.3422 O   0  0  0  0  0  0  0  0  0  0  0  0
   66.8441   74.4121   94.6517 C   0  0  0  0  0  0  0  0  0  0  0  0
   66.0067   75.4707   94.9915 O   0  0  0  0  0  0  0  0  0  0  0  0
   66.0185   76.2588   94.4847 H   0  0  0  0  0  0  0  0  0  0  0  0
 31 32  2  0  0  0
 32 33  1  0  0  0
 32 23  1  0  0  0
 23 24  2  0  0  0
 24 25  1  0  0  0
 25 22  1  0  0  0
 22 21  1  0  0  0
 21  1  1  0  0  0
  1  2  2  0  0  0
  2  3  2  0  0  0
  3  4  2  0  0  0
  4  5  1  0  0  0
  5  7  1  0  0  0
  7  8  2  0  0  0
  8  9  1  0  0  0
  9 10  2  0  0  0
 10 11  1  0  0  0
 11 13  1  0  0  0
 13 14  1  0  0  0
 14 15  1  0  0  0
 15 16  2  0  0  0
 16 17  1  0  0  0
 17 18  2  0  0  0
 18 19  1  0  0  0
 19 20  2  0  0  0
 11 12  2  0  0  0
  5  6  2  0  0  0
 25 26  2  0  0  0
 26 27  1  0  0  0
 27 28  2  0  0  0
 28 29  1  0  0  0
 28 23  1  0  0  0
  6  1  1  0  0  0
 12  7  1  0  0  0
 20 15  1  0  0  0
 33 34  1  0  0  0
 29 30  1  0  0  0
M  END
> <score>
0.012237

> <minimizedAffinity>
-9.12844

$$$$
HIPS7008


 34 37  0  0  0  0  0  0  0  0999 V2000
   69.5492   78.9487   90.2599 C   0  0  0  0  0  0  0  0  0  0  0  0
   68.3084   79.5786   90.4180 C   0  0  0  0  0  0  0  0  0  0  0  0
   67.1643   78.8029   90.6032 C   0  0  0  0  0  0  0  0  0  0  0  0
   67.2573   77.4478   90.6363 N   0  0  0  0  0  0  0  0  0  0  0  0
   68.4455   76.7959   90.4920 C   0  0  0  0  0  0  0  0  0  0  0  0
   69.6208   77.5493   90.3147 C   0  0  0  0  0  0  0  0  0  0  0  0
   68.4720   75.3120   90.5513 C   0  0  0  0  0  0  0  0  0  0  0  0
   69.3485   74.6287   91.4148 C   0  0  0  0  0  0  0  0  0  0  0  0
   69.3630   73.2328   91.4478 C   0  0  0  0  0  0  0  0  0  0  0  0
   68.5101   72.4997   90.6214 C   0  0  0  0  0  0  0  0  0  0  0  0
   67.6305   73.1628   89.7464 C   0  0  0  0  0  0  0  0  0  0  0  0
   67.6252   74.5627   89.7134 C   0  0  0  0  0  0  0  0  0  0  0  0
   66.7496   72.4768   88.8943 O   0  0  0  0  0  0  0  0  0  0  0  0
   66.4992   72.8057   87.5272 C   0  0  0  0  0  0  0  0  0  0  0  0
   66.9540   71.6957   86.6169 C   0  0  0  0  0  0  0  0  0  0  0  0
   67.7890   70.6735   87.0985 C   0  0  0  0  0  0  0  0  0  0  0  0
   68.2156   69.6518   86.2442 C   0  0  0  0  0  0  0  0  0  0  0  0
   67.8201   69.6480   84.9040 C   0  0  0  0  0  0  0  0  0  0  0  0
   67.0001   70.6683   84.4143 C   0  0  0  0  0  0  0  0  0  0  0  0
   66.5713   71.6918   85.2651 C   0  0  0  0  0  0  0  0  0  0  0  0
   70.8002   79.7648   90.1149 C   0  0  0  0  0  0  0  0  0  0  0  0
   70.5061   81.1271   90.4108 O   0  0  0  0  0  0  0  0  0  0  0  0
   70.6349   83.8994   87.9530 C   0  0  0  0  0  0  0  0  0  0  0  0
   70.1967   82.7931   88.7038 C   0  0  0  0  0  0  0  0  0  0  0  0
   71.0064   82.2224   89.6912 C   0  0  0  0  0  0  0  0  0  0  0  0
   72.2800   82.7642   89.9324 C   0  0  0  0  0  0  0  0  0  0  0  0
   72.7353   83.8481   89.1809 C   0  0  0  0  0  0  0  0  0  0  0  0
   71.9368   84.4093   88.1785 C   0  0  0  0  0  0  0  0  0  0  0  0
   72.4843   85.4396   87.4112 O   0  0  0  0  0  0  0  0  0  0  0  0
   73.3500   85.7493   87.5921 H   0  0  0  0  0  0  0  0  0  0  0  0
   68.5408   84.0400   86.8404 O   0  0  0  0  0  0  0  0  0  0  0  0
   69.7017   84.5113   86.9818 C   0  0  0  0  0  0  0  0  0  0  0  0
   70.0700   85.6444   86.2624 O   0  0  0  0  0  0  0  0  0  0  0  0
   70.9303   86.0024   86.3603 H   0  0  0  0  0  0  0  0  0  0  0  0
 31 32  2  0  0  0
 32 33  1  0  0  0
 32 23  1  0  0  0
 23 24  2  0  0  0
 24 25  1  0  0  0
 25 22  1  0  0  0
 22 21  1  0  0  0
 21  1  1  0  0  0
  1  2  2  0  0  0
  2  3  1  0  0  0
  3  4  2  0  0  0
  4  5  2  0  0  0
  5  7  1  0  0  0
  7  8  2  0  0  0
  8  9  1  0  0  0
  9 10  2  0  0  0
 10 11  1  0  0  0
 11 13  1  0  0  0
 13 14  1  0  0  0
 14 15  1  0  0  0
 15 16  2  0  0  0
 16 17  1  0  0  0
 17 18  2  0  0  0
 18 19  1  0  0  0
 19 20  2  0  0  0
 11 12  2  0  0  0
  5  6  2  0  0  0
 25 26  2  0  0  0
 26 27  1  0  0  0
 27 28  2  0  0  0
 28 29  1  0  0  0
 28 23  1  0  0  0
  6  1  1  0  0  0
 12  7  1  0  0  0
 20 15  1  0  0  0
 33 34  1  0  0  0
 29 30  1  0  0  0
M  END
> <score>
-0.236922

> <minimizedAffinity>
-9.54659

$$$$
HIPS7008


 34 37  0  0  0  0  0  0  0  0999 V2000
   67.2517   79.2783   88.8717 C   0  0  0  0  0  0  0  0  0  0  0  0
   66.8477   79.0583   87.5490 C   0  0  0  0  0  0  0  0  0  0  0  0
   66.8778   77.7646   87.0289 C   0  0  0  0  0  0  0  0  0  0  0  0
   67.2898   76.7276   87.8041 N   0  0  0  0  0  0  0  0  0  0  0  0
   67.6857   76.8977   89.0972 C   0  0  0  0  0  0  0  0  0  0  0  0
   67.6568   78.1887   89.6562 C   0  0  0  0  0  0  0  0  0  0  0  0
   68.1121   75.7148   89.8880 C   0  0  0  0  0  0  0  0  0  0  0  0
   67.7382   74.4104   89.5146 C   0  0  0  0  0  0  0  0  0  0  0  0
   68.1428   73.3132   90.2777 C   0  0  0  0  0  0  0  0  0  0  0  0
   68.9199   73.4991   91.4220 C   0  0  0  0  0  0  0  0  0  0  0  0
   69.2994   74.7951   91.8165 C   0  0  0  0  0  0  0  0  0  0  0  0
   68.8852   75.8916   91.0505 C   0  0  0  0  0  0  0  0  0  0  0  0
   70.0815   75.0411   92.9568 O   0  0  0  0  0  0  0  0  0  0  0  0
   69.6623   75.7866   94.1005 C   0  0  0  0  0  0  0  0  0  0  0  0
   68.2837   75.3672   94.5379 C   0  0  0  0  0  0  0  0  0  0  0  0
   68.0999   74.2028   95.3024 C   0  0  0  0  0  0  0  0  0  0  0  0
   66.8154   73.8143   95.6957 C   0  0  0  0  0  0  0  0  0  0  0  0
   65.7068   74.5786   95.3221 C   0  0  0  0  0  0  0  0  0  0  0  0
   65.8803   75.7310   94.5508 C   0  0  0  0  0  0  0  0  0  0  0  0
   67.1629   76.1231   94.1553 C   0  0  0  0  0  0  0  0  0  0  0  0
   67.1749   80.6529   89.4688 C   0  0  0  0  0  0  0  0  0  0  0  0
   67.7520   81.5887   88.5627 O   0  0  0  0  0  0  0  0  0  0  0  0
   70.6135   83.8799   88.0101 C   0  0  0  0  0  0  0  0  0  0  0  0
   69.3620   83.2469   87.8969 C   0  0  0  0  0  0  0  0  0  0  0  0
   69.0193   82.1690   88.7197 C   0  0  0  0  0  0  0  0  0  0  0  0
   69.9448   81.7114   89.6725 C   0  0  0  0  0  0  0  0  0  0  0  0
   71.1974   82.3166   89.7813 C   0  0  0  0  0  0  0  0  0  0  0  0
   71.5520   83.3819   88.9466 C   0  0  0  0  0  0  0  0  0  0  0  0
   72.8487   83.8887   89.0539 O   0  0  0  0  0  0  0  0  0  0  0  0
   73.4403   83.5318   89.6869 H   0  0  0  0  0  0  0  0  0  0  0  0
   71.7766   85.8907   87.5137 O   0  0  0  0  0  0  0  0  0  0  0  0
   70.8857   85.0671   87.1706 C   0  0  0  0  0  0  0  0  0  0  0  0
   70.2094   85.2554   85.9688 O   0  0  0  0  0  0  0  0  0  0  0  0
   69.5457   84.6490   85.7047 H   0  0  0  0  0  0  0  0  0  0  0  0
 31 32  2  0  0  0
 32 33  1  0  0  0
 32 23  1  0  0  0
 23 24  2  0  0  0
 24 25  1  0  0  0
 25 22  1  0  0  0
 22 21  1  0  0  0
 21  1  1  0  0  0
  1  2  2  0  0  0
  2  3  1  0  0  0
  3  4  2  0  0  0
  4  5  2  0  0  0
  5  7  1  0  0  0
  7  8  2  0  0  0
  8  9  1  0  0  0
  9 10  2  0  0  0
 10 11  1  0  0  0
 11 13  1  0  0  0
 13 14  1  0  0  0
 14 15  1  0  0  0
 15 16  2  0  0  0
 16 17  1  0  0  0
 17 18  2  0  0  0
 18 19  1  0  0  0
 19 20  2  0  0  0
 11 12  2  0  0  0
  5  6  2  0  0  0
 25 26  2  0  0  0
 26 27  1  0  0  0
 27 28  2  0  0  0
 28 29  1  0  0  0
 28 23  1  0  0  0
  6  1  1  0  0  0
 12  7  1  0  0  0
 20 15  1  0  0  0
 33 34  1  0  0  0
 29 30  1  0  0  0
M  END
> <score>
-0.236922

> <minimizedAffinity>
-9.17516

$$$$
HIPS7008


 34 37  0  0  0  0  0  0  0  0999 V2000
   69.5296   78.7259   90.1787 C   0  0  0  0  0  0  0  0  0  0  0  0
   68.2178   79.2023   90.0630 C   0  0  0  0  0  0  0  0  0  0  0  0
   67.1515   78.3119   90.1857 C   0  0  0  0  0  0  0  0  0  0  0  0
   67.3869   76.9949   90.4224 N   0  0  0  0  0  0  0  0  0  0  0  0
   68.6474   76.4916   90.5470 C   0  0  0  0  0  0  0  0  0  0  0  0
   69.7454   77.3651   90.4397 C   0  0  0  0  0  0  0  0  0  0  0  0
   68.8275   75.0422   90.8176 C   0  0  0  0  0  0  0  0  0  0  0  0
   68.1223   74.0674   90.0873 C   0  0  0  0  0  0  0  0  0  0  0  0
   68.3002   72.7104   90.3644 C   0  0  0  0  0  0  0  0  0  0  0  0
   69.1774   72.3062   91.3720 C   0  0  0  0  0  0  0  0  0  0  0  0
   69.8874   73.2645   92.1181 C   0  0  0  0  0  0  0  0  0  0  0  0
   69.6998   74.6239   91.8397 C   0  0  0  0  0  0  0  0  0  0  0  0
   70.7837   72.9155   93.1415 O   0  0  0  0  0  0  0  0  0  0  0  0
   70.5037   72.0122   94.2118 C   0  0  0  0  0  0  0  0  0  0  0  0
   71.3134   70.7501   94.0736 C   0  0  0  0  0  0  0  0  0  0  0  0
   70.7460   69.5005   94.3748 C   0  0  0  0  0  0  0  0  0  0  0  0
   71.5076   68.3339   94.2541 C   0  0  0  0  0  0  0  0  0  0  0  0
   72.8407   68.4068   93.8415 C   0  0  0  0  0  0  0  0  0  0  0  0
   73.4161   69.6472   93.5526 C   0  0  0  0  0  0  0  0  0  0  0  0
   72.6581   70.8161   93.6720 C   0  0  0  0  0  0  0  0  0  0  0  0
   70.6897   79.6750   90.1053 C   0  0  0  0  0  0  0  0  0  0  0  0
   70.2076   81.0112   90.2153 O   0  0  0  0  0  0  0  0  0  0  0  0
   70.5969   83.9902   88.0434 C   0  0  0  0  0  0  0  0  0  0  0  0
   70.0583   82.8575   88.6809 C   0  0  0  0  0  0  0  0  0  0  0  0
   70.8068   82.1246   89.6078 C   0  0  0  0  0  0  0  0  0  0  0  0
   72.1199   82.5280   89.9022 C   0  0  0  0  0  0  0  0  0  0  0  0
   72.6736   83.6371   89.2617 C   0  0  0  0  0  0  0  0  0  0  0  0
   71.9357   84.3611   88.3191 C   0  0  0  0  0  0  0  0  0  0  0  0
   72.5767   85.4106   87.6577 O   0  0  0  0  0  0  0  0  0  0  0  0
   73.4641   85.6250   87.8689 H   0  0  0  0  0  0  0  0  0  0  0  0
   68.5269   84.9922   87.4484 O   0  0  0  0  0  0  0  0  0  0  0  0
   69.7288   84.7729   87.1367 C   0  0  0  0  0  0  0  0  0  0  0  0
   70.2414   85.3254   85.9665 O   0  0  0  0  0  0  0  0  0  0  0  0
   71.1333   85.1685   85.7259 H   0  0  0  0  0  0  0  0  0  0  0  0
 31 32  2  0  0  0
 32 33  1  0  0  0
 32 23  1  0  0  0
 23 24  2  0  0  0
 24 25  1  0  0  0
 25 22  1  0  0  0
 22 21  1  0  0  0
 21  1  1  0  0  0
  1  2  2  0  0  0
  2  3  1  0  0  0
  3  4  2  0  0  0
  4  5  2  0  0  0
  5  7  1  0  0  0
  7  8  2  0  0  0
  8  9  1  0  0  0
  9 10  2  0  0  0
 10 11  1  0  0  0
 11 13  1  0  0  0
 13 14  1  0  0  0
 14 15  1  0  0  0
 15 16  2  0  0  0
 16 17  1  0  0  0
 17 18  2  0  0  0
 18 19  1  0  0  0
 19 20  2  0  0  0
 11 12  2  0  0  0
  5  6  2  0  0  0
 25 26  2  0  0  0
 26 27  1  0  0  0
 27 28  2  0  0  0
 28 29  1  0  0  0
 28 23  1  0  0  0
  6  1  1  0  0  0
 12  7  1  0  0  0
 20 15  1  0  0  0
 33 34  1  0  0  0
 29 30  1  0  0  0
M  END
> <score>
-0.236922

> <minimizedAffinity>
-9.11681

$$$$
HIPS7009


 34 37  0  0  0  0  0  0  0  0999 V2000
   68.4458   79.7416   89.6389 C   0  0  0  0  0  0  0  0  0  0  0  0
   67.6733   80.1216   88.5353 C   0  0  0  0  0  0  0  0  0  0  0  0
   66.9908   79.1450   87.8104 C   0  0  0  0  0  0  0  0  0  0  0  0
   67.0928   77.8030   88.1794 C   0  0  0  0  0  0  0  0  0  0  0  0
   67.8999   77.4437   89.2754 C   0  0  0  0  0  0  0  0  0  0  0  0
   68.5473   78.4242   89.9661 N   0  0  0  0  0  0  0  0  0  0  0  0
   68.0427   76.0315   89.7175 C   0  0  0  0  0  0  0  0  0  0  0  0
   68.8752   75.7212   90.8075 C   0  0  0  0  0  0  0  0  0  0  0  0
   69.0278   74.3986   91.2297 C   0  0  0  0  0  0  0  0  0  0  0  0
   68.3546   73.3678   90.5723 C   0  0  0  0  0  0  0  0  0  0  0  0
   67.5168   73.6551   89.4793 C   0  0  0  0  0  0  0  0  0  0  0  0
   67.3763   74.9823   89.0547 C   0  0  0  0  0  0  0  0  0  0  0  0
   66.8076   72.6606   88.7855 O   0  0  0  0  0  0  0  0  0  0  0  0
   66.3849   72.7423   87.4236 C   0  0  0  0  0  0  0  0  0  0  0  0
   67.0019   71.6415   86.6009 C   0  0  0  0  0  0  0  0  0  0  0  0
   67.7751   70.6449   87.2214 C   0  0  0  0  0  0  0  0  0  0  0  0
   68.3414   69.6178   86.4612 C   0  0  0  0  0  0  0  0  0  0  0  0
   68.1320   69.5723   85.0799 C   0  0  0  0  0  0  0  0  0  0  0  0
   67.3521   70.5514   84.4568 C   0  0  0  0  0  0  0  0  0  0  0  0
   66.7836   71.5800   85.2135 C   0  0  0  0  0  0  0  0  0  0  0  0
   69.1896   80.7710   90.4422 C   0  0  0  0  0  0  0  0  0  0  0  0
   70.5091   80.9661   89.9289 O   0  0  0  0  0  0  0  0  0  0  0  0
   70.6316   84.1417   88.0144 C   0  0  0  0  0  0  0  0  0  0  0  0
   70.1903   82.9266   88.5688 C   0  0  0  0  0  0  0  0  0  0  0  0
   71.0101   82.1756   89.4178 C   0  0  0  0  0  0  0  0  0  0  0  0
   72.2937   82.6535   89.7277 C   0  0  0  0  0  0  0  0  0  0  0  0
   72.7531   83.8485   89.1697 C   0  0  0  0  0  0  0  0  0  0  0  0
   71.9466   84.5863   88.2964 C   0  0  0  0  0  0  0  0  0  0  0  0
   72.4993   85.7251   87.7047 O   0  0  0  0  0  0  0  0  0  0  0  0
   73.3736   85.9864   87.9177 H   0  0  0  0  0  0  0  0  0  0  0  0
   68.5574   85.2422   87.6402 O   0  0  0  0  0  0  0  0  0  0  0  0
   69.6902   84.9248   87.1831 C   0  0  0  0  0  0  0  0  0  0  0  0
   70.0629   85.3686   85.9178 O   0  0  0  0  0  0  0  0  0  0  0  0
   70.9017   85.1388   85.5690 H   0  0  0  0  0  0  0  0  0  0  0  0
 31 32  2  0  0  0
 32 33  1  0  0  0
 32 23  1  0  0  0
 23 24  2  0  0  0
 24 25  1  0  0  0
 25 22  1  0  0  0
 22 21  1  0  0  0
 21  1  1  0  0  0
  1  2  2  0  0  0
  2  3  1  0  0  0
  3  4  2  0  0  0
  4  5  1  0  0  0
  5  7  1  0  0  0
  7  8  2  0  0  0
  8  9  1  0  0  0
  9 10  2  0  0  0
 10 11  1  0  0  0
 11 13  1  0  0  0
 13 14  1  0  0  0
 14 15  1  0  0  0
 15 16  2  0  0  0
 16 17  1  0  0  0
 17 18  2  0  0  0
 18 19  1  0  0  0
 19 20  2  0  0  0
 11 12  2  0  0  0
  5  6  2  0  0  0
 25 26  2  0  0  0
 26 27  1  0  0  0
 27 28  2  0  0  0
 28 29  1  0  0  0
 28 23  1  0  0  0
  6  1  2  0  0  0
 12  7  1  0  0  0
 20 15  1  0  0  0
 33 34  1  0  0  0
 29 30  1  0  0  0
M  END
> <score>
-0.565679

> <minimizedAffinity>
-9.44698

$$$$
HIPS7009


 34 37  0  0  0  0  0  0  0  0999 V2000
   67.3114   79.2456   88.9445 C   0  0  0  0  0  0  0  0  0  0  0  0
   66.8730   79.1365   87.6198 C   0  0  0  0  0  0  0  0  0  0  0  0
   66.8210   77.8791   87.0188 C   0  0  0  0  0  0  0  0  0  0  0  0
   67.2170   76.7473   87.7328 C   0  0  0  0  0  0  0  0  0  0  0  0
   67.6820   76.8874   89.0540 C   0  0  0  0  0  0  0  0  0  0  0  0
   67.7130   78.1300   89.6132 N   0  0  0  0  0  0  0  0  0  0  0  0
   68.1121   75.7178   89.8647 C   0  0  0  0  0  0  0  0  0  0  0  0
   67.7282   74.4211   89.4792 C   0  0  0  0  0  0  0  0  0  0  0  0
   68.1158   73.3122   90.2348 C   0  0  0  0  0  0  0  0  0  0  0  0
   68.8898   73.4795   91.3841 C   0  0  0  0  0  0  0  0  0  0  0  0
   69.2851   74.7676   91.7887 C   0  0  0  0  0  0  0  0  0  0  0  0
   68.8844   75.8760   91.0321 C   0  0  0  0  0  0  0  0  0  0  0  0
   70.0712   74.9960   92.9303 O   0  0  0  0  0  0  0  0  0  0  0  0
   69.6630   75.7345   94.0828 C   0  0  0  0  0  0  0  0  0  0  0  0
   68.2739   75.3400   94.5114 C   0  0  0  0  0  0  0  0  0  0  0  0
   68.0772   74.1925   95.2994 C   0  0  0  0  0  0  0  0  0  0  0  0
   66.7901   73.8294   95.7055 C   0  0  0  0  0  0  0  0  0  0  0  0
   65.6927   74.6131   95.3373 C   0  0  0  0  0  0  0  0  0  0  0  0
   65.8811   75.7641   94.5660 C   0  0  0  0  0  0  0  0  0  0  0  0
   67.1667   76.1310   94.1581 C   0  0  0  0  0  0  0  0  0  0  0  0
   67.3747   80.5861   89.6208 C   0  0  0  0  0  0  0  0  0  0  0  0
   67.8935   81.5820   88.7367 O   0  0  0  0  0  0  0  0  0  0  0  0
   70.7035   83.9080   88.0591 C   0  0  0  0  0  0  0  0  0  0  0  0
   69.4529   83.2661   88.0102 C   0  0  0  0  0  0  0  0  0  0  0  0
   69.1596   82.1825   88.8449 C   0  0  0  0  0  0  0  0  0  0  0  0
   70.1324   81.7374   89.7548 C   0  0  0  0  0  0  0  0  0  0  0  0
   71.3854   82.3523   89.8016 C   0  0  0  0  0  0  0  0  0  0  0  0
   71.6919   83.4166   88.9469 C   0  0  0  0  0  0  0  0  0  0  0  0
   72.9918   83.9280   88.9837 O   0  0  0  0  0  0  0  0  0  0  0  0
   73.6171   83.5755   89.5859 H   0  0  0  0  0  0  0  0  0  0  0  0
   71.7734   85.9665   87.5382 O   0  0  0  0  0  0  0  0  0  0  0  0
   70.9253   85.0942   87.2023 C   0  0  0  0  0  0  0  0  0  0  0  0
   70.2487   85.2319   85.9940 O   0  0  0  0  0  0  0  0  0  0  0  0
   69.6170   84.5901   85.7350 H   0  0  0  0  0  0  0  0  0  0  0  0
 31 32  2  0  0  0
 32 33  1  0  0  0
 32 23  1  0  0  0
 23 24  2  0  0  0
 24 25  1  0  0  0
 25 22  1  0  0  0
 22 21  1  0  0  0
 21  1  1  0  0  0
  1  2  2  0  0  0
  2  3  1  0  0  0
  3  4  2  0  0  0
  4  5  1  0  0  0
  5  7  1  0  0  0
  7  8  2  0  0  0
  8  9  1  0  0  0
  9 10  2  0  0  0
 10 11  1  0  0  0
 11 13  1  0  0  0
 13 14  1  0  0  0
 14 15  1  0  0  0
 15 16  2  0  0  0
 16 17  1  0  0  0
 17 18  2  0  0  0
 18 19  1  0  0  0
 19 20  2  0  0  0
 11 12  2  0  0  0
  5  6  2  0  0  0
 25 26  2  0  0  0
 26 27  1  0  0  0
 27 28  2  0  0  0
 28 29  1  0  0  0
 28 23  1  0  0  0
  6  1  2  0  0  0
 12  7  1  0  0  0
 20 15  1  0  0  0
 33 34  1  0  0  0
 29 30  1  0  0  0
M  END
> <score>
-0.565679

> <minimizedAffinity>
-9.34070

$$$$
HIPS7009


 34 37  0  0  0  0  0  0  0  0999 V2000
   67.3052   79.3038   88.9165 C   0  0  0  0  0  0  0  0  0  0  0  0
   66.8991   79.1674   87.5840 C   0  0  0  0  0  0  0  0  0  0  0  0
   66.8846   77.9006   87.0006 C   0  0  0  0  0  0  0  0  0  0  0  0
   67.2855   76.7870   87.7400 C   0  0  0  0  0  0  0  0  0  0  0  0
   67.7176   76.9550   89.0692 C   0  0  0  0  0  0  0  0  0  0  0  0
   67.7124   78.2058   89.6104 N   0  0  0  0  0  0  0  0  0  0  0  0
   68.1511   75.8056   89.9065 C   0  0  0  0  0  0  0  0  0  0  0  0
   67.7670   74.4996   89.5536 C   0  0  0  0  0  0  0  0  0  0  0  0
   68.1578   73.4097   90.3346 C   0  0  0  0  0  0  0  0  0  0  0  0
   68.9353   73.6052   91.4770 C   0  0  0  0  0  0  0  0  0  0  0  0
   69.3309   74.9029   91.8491 C   0  0  0  0  0  0  0  0  0  0  0  0
   68.9270   75.9924   91.0673 C   0  0  0  0  0  0  0  0  0  0  0  0
   70.1204   75.1593   92.9824 O   0  0  0  0  0  0  0  0  0  0  0  0
   69.6770   75.8200   94.1685 C   0  0  0  0  0  0  0  0  0  0  0  0
   68.2881   75.3753   94.5459 C   0  0  0  0  0  0  0  0  0  0  0  0
   68.1045   74.2247   95.3325 C   0  0  0  0  0  0  0  0  0  0  0  0
   66.8171   73.8150   95.6910 C   0  0  0  0  0  0  0  0  0  0  0  0
   65.7062   74.5552   95.2764 C   0  0  0  0  0  0  0  0  0  0  0  0
   65.8807   75.7090   94.5061 C   0  0  0  0  0  0  0  0  0  0  0  0
   67.1665   76.1224   94.1457 C   0  0  0  0  0  0  0  0  0  0  0  0
   67.3278   80.6549   89.5741 C   0  0  0  0  0  0  0  0  0  0  0  0
   68.6213   81.2537   89.4703 O   0  0  0  0  0  0  0  0  0  0  0  0
   70.6022   83.9994   87.9530 C   0  0  0  0  0  0  0  0  0  0  0  0
   70.2050   82.9267   88.7717 C   0  0  0  0  0  0  0  0  0  0  0  0
   68.9576   82.3142   88.6116 C   0  0  0  0  0  0  0  0  0  0  0  0
   68.0931   82.7761   87.6059 C   0  0  0  0  0  0  0  0  0  0  0  0
   68.4655   83.8526   86.7979 C   0  0  0  0  0  0  0  0  0  0  0  0
   69.6999   84.4866   86.9758 C   0  0  0  0  0  0  0  0  0  0  0  0
   69.9727   85.6121   86.1940 O   0  0  0  0  0  0  0  0  0  0  0  0
   69.3494   85.9028   85.5577 H   0  0  0  0  0  0  0  0  0  0  0  0
   72.8714   83.8532   88.6480 O   0  0  0  0  0  0  0  0  0  0  0  0
   71.9630   84.5557   88.1244 C   0  0  0  0  0  0  0  0  0  0  0  0
   72.2707   85.8309   87.6595 O   0  0  0  0  0  0  0  0  0  0  0  0
   71.6038   86.3608   87.2691 H   0  0  0  0  0  0  0  0  0  0  0  0
 31 32  2  0  0  0
 32 33  1  0  0  0
 32 23  1  0  0  0
 23 24  2  0  0  0
 24 25  1  0  0  0
 25 22  1  0  0  0
 22 21  1  0  0  0
 21  1  1  0  0  0
  1  2  2  0  0  0
  2  3  1  0  0  0
  3  4  2  0  0  0
  4  5  1  0  0  0
  5  7  1  0  0  0
  7  8  2  0  0  0
  8  9  1  0  0  0
  9 10  2  0  0  0
 10 11  1  0  0  0
 11 13  1  0  0  0
 13 14  1  0  0  0
 14 15  1  0  0  0
 15 16  2  0  0  0
 16 17  1  0  0  0
 17 18  2  0  0  0
 18 19  1  0  0  0
 19 20  2  0  0  0
 11 12  2  0  0  0
  5  6  2  0  0  0
 25 26  2  0  0  0
 26 27  1  0  0  0
 27 28  2  0  0  0
 28 29  1  0  0  0
 28 23  1  0  0  0
  6  1  2  0  0  0
 12  7  1  0  0  0
 20 15  1  0  0  0
 33 34  1  0  0  0
 29 30  1  0  0  0
M  END
> <score>
-0.565679

> <minimizedAffinity>
-9.26452

$$$$
HIPS7010


 34 37  0  0  0  0  0  0  0  0999 V2000
   69.1990   73.5182   92.0432 C   0  0  0  0  0  0  0  0  0  0  0  0
   68.6613   72.4722   91.2800 C   0  0  0  0  0  0  0  0  0  0  0  0
   67.9753   72.7465   90.0961 C   0  0  0  0  0  0  0  0  0  0  0  0
   67.8288   74.0642   89.6569 C   0  0  0  0  0  0  0  0  0  0  0  0
   68.3802   75.1285   90.3962 C   0  0  0  0  0  0  0  0  0  0  0  0
   69.0620   74.8418   91.5935 C   0  0  0  0  0  0  0  0  0  0  0  0
   68.2344   76.5377   89.9496 C   0  0  0  0  0  0  0  0  0  0  0  0
   69.2236   77.5024   90.2151 C   0  0  0  0  0  0  0  0  0  0  0  0
   69.0382   78.8300   89.7873 C   0  0  0  0  0  0  0  0  0  0  0  0
   67.8704   79.1633   89.0973 C   0  0  0  0  0  0  0  0  0  0  0  0
   66.9063   78.1854   88.8561 C   0  0  0  0  0  0  0  0  0  0  0  0
   67.1055   76.9123   89.2850 N   0  0  0  0  0  0  0  0  0  0  0  0
   69.9807   79.8438   90.0267 O   0  0  0  0  0  0  0  0  0  0  0  0
   69.6723   81.2142   90.2866 C   0  0  0  0  0  0  0  0  0  0  0  0
   70.7463   82.1188   89.7419 C   0  0  0  0  0  0  0  0  0  0  0  0
   72.0338   82.1017   90.3038 C   0  0  0  0  0  0  0  0  0  0  0  0
   73.0319   82.9440   89.8042 C   0  0  0  0  0  0  0  0  0  0  0  0
   72.7500   83.8141   88.7475 C   0  0  0  0  0  0  0  0  0  0  0  0
   71.4681   83.8464   88.1916 C   0  0  0  0  0  0  0  0  0  0  0  0
   70.4669   83.0064   88.6888 C   0  0  0  0  0  0  0  0  0  0  0  0
   69.9379   73.2148   93.3199 C   0  0  0  0  0  0  0  0  0  0  0  0
   69.9346   71.8115   93.5856 O   0  0  0  0  0  0  0  0  0  0  0  0
   73.3875   70.5118   93.9562 C   0  0  0  0  0  0  0  0  0  0  0  0
   72.2614   71.2110   93.4858 C   0  0  0  0  0  0  0  0  0  0  0  0
   71.0151   71.0811   94.1075 C   0  0  0  0  0  0  0  0  0  0  0  0
   70.8918   70.2399   95.2258 C   0  0  0  0  0  0  0  0  0  0  0  0
   71.9951   69.5238   95.6908 C   0  0  0  0  0  0  0  0  0  0  0  0
   73.2374   69.6312   95.0566 C   0  0  0  0  0  0  0  0  0  0  0  0
   74.2778   68.8267   95.5267 O   0  0  0  0  0  0  0  0  0  0  0  0
   74.1365   68.2578   96.2577 H   0  0  0  0  0  0  0  0  0  0  0  0
   75.6520   71.2581   93.9340 O   0  0  0  0  0  0  0  0  0  0  0  0
   74.6895   70.7543   93.2960 C   0  0  0  0  0  0  0  0  0  0  0  0
   74.8389   70.4822   91.9385 O   0  0  0  0  0  0  0  0  0  0  0  0
   74.1292   70.1075   91.4549 H   0  0  0  0  0  0  0  0  0  0  0  0
 31 32  2  0  0  0
 32 33  1  0  0  0
 32 23  1  0  0  0
 23 24  2  0  0  0
 24 25  1  0  0  0
 25 22  1  0  0  0
 22 21  1  0  0  0
 21  1  1  0  0  0
  1  2  2  0  0  0
  2  3  1  0  0  0
  3  4  2  0  0  0
  4  5  1  0  0  0
  5  7  1  0  0  0
  7  8  2  0  0  0
  8  9  1  0  0  0
  9 13  1  0  0  0
 13 14  1  0  0  0
 14 15  1  0  0  0
 15 16  2  0  0  0
 16 17  1  0  0  0
 17 18  2  0  0  0
 18 19  1  0  0  0
 19 20  2  0  0  0
  9 10  2  0  0  0
 10 11  1  0  0  0
 11 12  2  0  0  0
  5  6  2  0  0  0
 25 26  2  0  0  0
 26 27  1  0  0  0
 27 28  2  0  0  0
 28 29  1  0  0  0
 28 23  1  0  0  0
  6  1  1  0  0  0
 12  7  2  0  0  0
 20 15  1  0  0  0
 33 34  1  0  0  0
 29 30  1  0  0  0
M  END
> <score>
-0.038268

> <minimizedAffinity>
-9.28802

$$$$
HIPS7010


 34 37  0  0  0  0  0  0  0  0999 V2000
   69.0657   73.6364   91.0887 C   0  0  0  0  0  0  0  0  0  0  0  0
   68.2614   72.6976   90.4272 C   0  0  0  0  0  0  0  0  0  0  0  0
   67.3465   73.1137   89.4591 C   0  0  0  0  0  0  0  0  0  0  0  0
   67.2332   74.4673   89.1339 C   0  0  0  0  0  0  0  0  0  0  0  0
   68.0469   75.4247   89.7698 C   0  0  0  0  0  0  0  0  0  0  0  0
   68.9596   74.9956   90.7513 C   0  0  0  0  0  0  0  0  0  0  0  0
   67.9416   76.8697   89.4417 C   0  0  0  0  0  0  0  0  0  0  0  0
   68.9110   77.7961   89.8680 C   0  0  0  0  0  0  0  0  0  0  0  0
   68.7644   79.1585   89.5482 C   0  0  0  0  0  0  0  0  0  0  0  0
   67.6548   79.5647   88.8033 C   0  0  0  0  0  0  0  0  0  0  0  0
   66.7085   78.6227   88.4019 C   0  0  0  0  0  0  0  0  0  0  0  0
   66.8691   77.3143   88.7287 N   0  0  0  0  0  0  0  0  0  0  0  0
   69.6894   80.1367   89.9494 O   0  0  0  0  0  0  0  0  0  0  0  0
   69.4306   81.5398   90.0185 C   0  0  0  0  0  0  0  0  0  0  0  0
   70.6423   82.3304   89.5997 C   0  0  0  0  0  0  0  0  0  0  0  0
   70.5613   83.2244   88.5191 C   0  0  0  0  0  0  0  0  0  0  0  0
   71.6855   83.9561   88.1240 C   0  0  0  0  0  0  0  0  0  0  0  0
   72.8989   83.7944   88.7983 C   0  0  0  0  0  0  0  0  0  0  0  0
   72.9911   82.8973   89.8661 C   0  0  0  0  0  0  0  0  0  0  0  0
   71.8695   82.1631   90.2638 C   0  0  0  0  0  0  0  0  0  0  0  0
   70.0506   73.1800   92.1326 C   0  0  0  0  0  0  0  0  0  0  0  0
   69.9778   74.0082   93.2939 O   0  0  0  0  0  0  0  0  0  0  0  0
   66.9959   76.0261   94.1799 C   0  0  0  0  0  0  0  0  0  0  0  0
   68.1843   75.5867   93.5691 C   0  0  0  0  0  0  0  0  0  0  0  0
   68.7941   74.3865   93.9489 C   0  0  0  0  0  0  0  0  0  0  0  0
   68.2021   73.6059   94.9557 C   0  0  0  0  0  0  0  0  0  0  0  0
   67.0350   74.0394   95.5852 C   0  0  0  0  0  0  0  0  0  0  0  0
   66.4357   75.2514   95.2262 C   0  0  0  0  0  0  0  0  0  0  0  0
   65.3143   75.6607   95.9512 O   0  0  0  0  0  0  0  0  0  0  0  0
   64.9753   75.1182   96.6357 H   0  0  0  0  0  0  0  0  0  0  0  0
   66.9007   77.9305   92.7482 O   0  0  0  0  0  0  0  0  0  0  0  0
   66.3666   77.2674   93.6768 C   0  0  0  0  0  0  0  0  0  0  0  0
   65.2036   77.7458   94.2750 O   0  0  0  0  0  0  0  0  0  0  0  0
   64.7986   77.2602   94.9665 H   0  0  0  0  0  0  0  0  0  0  0  0
 31 32  2  0  0  0
 32 33  1  0  0  0
 32 23  1  0  0  0
 23 24  2  0  0  0
 24 25  1  0  0  0
 25 22  1  0  0  0
 22 21  1  0  0  0
 21  1  1  0  0  0
  1  2  2  0  0  0
  2  3  1  0  0  0
  3  4  2  0  0  0
  4  5  1  0  0  0
  5  7  1  0  0  0
  7  8  2  0  0  0
  8  9  1  0  0  0
  9 13  1  0  0  0
 13 14  1  0  0  0
 14 15  1  0  0  0
 15 16  2  0  0  0
 16 17  1  0  0  0
 17 18  2  0  0  0
 18 19  1  0  0  0
 19 20  2  0  0  0
  9 10  2  0  0  0
 10 11  1  0  0  0
 11 12  2  0  0  0
  5  6  2  0  0  0
 25 26  2  0  0  0
 26 27  1  0  0  0
 27 28  2  0  0  0
 28 29  1  0  0  0
 28 23  1  0  0  0
  6  1  1  0  0  0
 12  7  2  0  0  0
 20 15  1  0  0  0
 33 34  1  0  0  0
 29 30  1  0  0  0
M  END
> <score>
-0.038268

> <minimizedAffinity>
-9.27098

$$$$
HIPS7010


 34 37  0  0  0  0  0  0  0  0999 V2000
   69.0059   73.4153   93.1303 C   0  0  0  0  0  0  0  0  0  0  0  0
   68.5719   73.8129   94.4029 C   0  0  0  0  0  0  0  0  0  0  0  0
   68.7659   75.1262   94.8331 C   0  0  0  0  0  0  0  0  0  0  0  0
   69.3837   76.0572   93.9950 C   0  0  0  0  0  0  0  0  0  0  0  0
   69.8071   75.6851   92.7044 C   0  0  0  0  0  0  0  0  0  0  0  0
   69.6153   74.3559   92.2839 C   0  0  0  0  0  0  0  0  0  0  0  0
   70.4687   76.6578   91.7972 C   0  0  0  0  0  0  0  0  0  0  0  0
   69.7514   77.7016   91.1844 C   0  0  0  0  0  0  0  0  0  0  0  0
   70.4143   78.5917   90.3195 C   0  0  0  0  0  0  0  0  0  0  0  0
   71.7819   78.4230   90.0908 C   0  0  0  0  0  0  0  0  0  0  0  0
   72.4624   77.3743   90.7081 C   0  0  0  0  0  0  0  0  0  0  0  0
   71.7988   76.5243   91.5337 N   0  0  0  0  0  0  0  0  0  0  0  0
   69.7574   79.6492   89.6685 O   0  0  0  0  0  0  0  0  0  0  0  0
   69.5210   80.9431   90.2256 C   0  0  0  0  0  0  0  0  0  0  0  0
   70.5375   81.9362   89.7266 C   0  0  0  0  0  0  0  0  0  0  0  0
   71.7861   82.0457   90.3613 C   0  0  0  0  0  0  0  0  0  0  0  0
   72.7302   82.9704   89.9042 C   0  0  0  0  0  0  0  0  0  0  0  0
   72.4319   83.7970   88.8175 C   0  0  0  0  0  0  0  0  0  0  0  0
   71.1872   83.7034   88.1890 C   0  0  0  0  0  0  0  0  0  0  0  0
   70.2399   82.7806   88.6434 C   0  0  0  0  0  0  0  0  0  0  0  0
   68.7935   71.9962   92.6728 C   0  0  0  0  0  0  0  0  0  0  0  0
   69.6399   71.0997   93.3937 O   0  0  0  0  0  0  0  0  0  0  0  0
   73.2698   70.4608   92.9888 C   0  0  0  0  0  0  0  0  0  0  0  0
   72.0419   70.9855   93.4307 C   0  0  0  0  0  0  0  0  0  0  0  0
   70.8280   70.5330   92.9033 C   0  0  0  0  0  0  0  0  0  0  0  0
   70.8399   69.5318   91.9179 C   0  0  0  0  0  0  0  0  0  0  0  0
   72.0510   69.0171   91.4546 C   0  0  0  0  0  0  0  0  0  0  0  0
   73.2683   69.4847   91.9611 C   0  0  0  0  0  0  0  0  0  0  0  0
   74.4424   68.9816   91.3964 O   0  0  0  0  0  0  0  0  0  0  0  0
   74.3971   68.3364   90.7184 H   0  0  0  0  0  0  0  0  0  0  0  0
   74.5868   71.0120   94.8985 O   0  0  0  0  0  0  0  0  0  0  0  0
   74.5101   70.9328   93.6435 C   0  0  0  0  0  0  0  0  0  0  0  0
   75.5861   71.3544   92.8664 O   0  0  0  0  0  0  0  0  0  0  0  0
   75.5392   71.2997   91.9322 H   0  0  0  0  0  0  0  0  0  0  0  0
 31 32  2  0  0  0
 32 33  1  0  0  0
 32 23  1  0  0  0
 23 24  2  0  0  0
 24 25  1  0  0  0
 25 22  1  0  0  0
 22 21  1  0  0  0
 21  1  1  0  0  0
  1  2  2  0  0  0
  2  3  1  0  0  0
  3  4  2  0  0  0
  4  5  1  0  0  0
  5  7  1  0  0  0
  7  8  2  0  0  0
  8  9  1  0  0  0
  9 13  1  0  0  0
 13 14  1  0  0  0
 14 15  1  0  0  0
 15 16  2  0  0  0
 16 17  1  0  0  0
 17 18  2  0  0  0
 18 19  1  0  0  0
 19 20  2  0  0  0
  9 10  2  0  0  0
 10 11  1  0  0  0
 11 12  2  0  0  0
  5  6  2  0  0  0
 25 26  2  0  0  0
 26 27  1  0  0  0
 27 28  2  0  0  0
 28 29  1  0  0  0
 28 23  1  0  0  0
  6  1  1  0  0  0
 12  7  2  0  0  0
 20 15  1  0  0  0
 33 34  1  0  0  0
 29 30  1  0  0  0
M  END
> <score>
-0.038268

> <minimizedAffinity>
-9.24206

$$$$
HIPS7011


 34 37  0  0  0  0  0  0  0  0999 V2000
   68.8128   77.8642   90.8095 C   0  0  0  0  0  0  0  0  0  0  0  0
   70.0788   77.3016   91.0332 C   0  0  0  0  0  0  0  0  0  0  0  0
   71.2322   78.0397   90.7571 C   0  0  0  0  0  0  0  0  0  0  0  0
   71.1320   79.3457   90.2684 C   0  0  0  0  0  0  0  0  0  0  0  0
   69.8716   79.9331   90.0596 C   0  0  0  0  0  0  0  0  0  0  0  0
   68.7156   79.1813   90.3343 C   0  0  0  0  0  0  0  0  0  0  0  0
   69.7583   81.3274   89.5633 C   0  0  0  0  0  0  0  0  0  0  0  0
   68.5238   81.8311   89.1342 C   0  0  0  0  0  0  0  0  0  0  0  0
   68.4336   83.1400   88.6616 C   0  0  0  0  0  0  0  0  0  0  0  0
   69.5386   83.9459   88.6098 N   0  0  0  0  0  0  0  0  0  0  0  0
   70.7608   83.4697   89.0197 C   0  0  0  0  0  0  0  0  0  0  0  0
   71.7905   84.1982   88.9636 O   0  0  0  0  0  0  0  0  0  0  0  0
   70.8832   82.1634   89.5067 C   0  0  0  0  0  0  0  0  0  0  0  0
   69.3957   85.3050   88.0619 C   0  0  0  0  0  0  0  0  0  0  0  0
   69.3349   86.3140   89.1782 C   0  0  0  0  0  0  0  0  0  0  0  0
   68.6386   86.0179   90.3626 C   0  0  0  0  0  0  0  0  0  0  0  0
   68.5547   86.9662   91.3873 C   0  0  0  0  0  0  0  0  0  0  0  0
   69.1596   88.2165   91.2347 C   0  0  0  0  0  0  0  0  0  0  0  0
   69.8438   88.5236   90.0551 C   0  0  0  0  0  0  0  0  0  0  0  0
   69.9277   87.5791   89.0269 C   0  0  0  0  0  0  0  0  0  0  0  0
   67.5620   77.0894   91.1015 C   0  0  0  0  0  0  0  0  0  0  0  0
   67.2266   77.2471   92.4812 O   0  0  0  0  0  0  0  0  0  0  0  0
   68.2068   74.3346   94.6298 C   0  0  0  0  0  0  0  0  0  0  0  0
   68.2891   75.3729   93.6798 C   0  0  0  0  0  0  0  0  0  0  0  0
   67.1880   76.2145   93.4301 C   0  0  0  0  0  0  0  0  0  0  0  0
   65.9910   75.9921   94.1148 C   0  0  0  0  0  0  0  0  0  0  0  0
   65.8951   74.9721   95.0608 C   0  0  0  0  0  0  0  0  0  0  0  0
   66.9928   74.1423   95.3275 C   0  0  0  0  0  0  0  0  0  0  0  0
   66.8679   73.1282   96.2761 O   0  0  0  0  0  0  0  0  0  0  0  0
   66.0580   73.0105   96.7323 H   0  0  0  0  0  0  0  0  0  0  0  0
   69.4999   72.8119   95.9380 O   0  0  0  0  0  0  0  0  0  0  0  0
   69.3835   73.4531   94.8565 C   0  0  0  0  0  0  0  0  0  0  0  0
   70.3770   73.3270   93.8887 O   0  0  0  0  0  0  0  0  0  0  0  0
   70.3060   73.7959   93.0806 H   0  0  0  0  0  0  0  0  0  0  0  0
 31 32  2  0  0  0
 32 33  1  0  0  0
 32 23  1  0  0  0
 23 24  2  0  0  0
 24 25  1  0  0  0
 25 22  1  0  0  0
 22 21  1  0  0  0
 21  1  1  0  0  0
  1  2  2  0  0  0
  2  3  1  0  0  0
  3  4  2  0  0  0
  4  5  1  0  0  0
  5  7  1  0  0  0
  7  8  1  0  0  0
  8  9  2  0  0  0
  9 10  1  0  0  0
 10 14  1  0  0  0
 14 15  1  0  0  0
 15 16  2  0  0  0
 16 17  1  0  0  0
 17 18  2  0  0  0
 18 19  1  0  0  0
 19 20  2  0  0  0
 10 11  1  0  0  0
 11 12  2  0  0  0
 11 13  1  0  0  0
  5  6  2  0  0  0
 25 26  2  0  0  0
 26 27  1  0  0  0
 27 28  2  0  0  0
 28 29  1  0  0  0
 28 23  1  0  0  0
  6  1  1  0  0  0
 13  7  2  0  0  0
 20 15  1  0  0  0
 33 34  1  0  0  0
 29 30  1  0  0  0
M  END
> <score>
-0.078672

> <minimizedAffinity>
-9.35926

$$$$
HIPS7011


 34 37  0  0  0  0  0  0  0  0999 V2000
   67.1471   74.9098   88.4815 C   0  0  0  0  0  0  0  0  0  0  0  0
   66.8724   74.8533   87.1066 C   0  0  0  0  0  0  0  0  0  0  0  0
   67.0169   75.9956   86.3157 C   0  0  0  0  0  0  0  0  0  0  0  0
   67.4469   77.1972   86.8864 C   0  0  0  0  0  0  0  0  0  0  0  0
   67.7480   77.2662   88.2582 C   0  0  0  0  0  0  0  0  0  0  0  0
   67.5942   76.1134   89.0484 C   0  0  0  0  0  0  0  0  0  0  0  0
   68.2275   78.5327   88.8659 C   0  0  0  0  0  0  0  0  0  0  0  0
   69.4085   78.5576   89.6186 C   0  0  0  0  0  0  0  0  0  0  0  0
   69.8423   79.7526   90.1916 C   0  0  0  0  0  0  0  0  0  0  0  0
   69.1288   80.9092   90.0295 N   0  0  0  0  0  0  0  0  0  0  0  0
   67.9640   80.9059   89.3004 C   0  0  0  0  0  0  0  0  0  0  0  0
   67.2889   81.9630   89.1554 O   0  0  0  0  0  0  0  0  0  0  0  0
   67.5057   79.7247   88.7058 C   0  0  0  0  0  0  0  0  0  0  0  0
   69.6091   82.1333   90.6918 C   0  0  0  0  0  0  0  0  0  0  0  0
   70.7645   82.7220   89.9261 C   0  0  0  0  0  0  0  0  0  0  0  0
   72.0803   82.5536   90.3904 C   0  0  0  0  0  0  0  0  0  0  0  0
   73.1515   83.1266   89.6973 C   0  0  0  0  0  0  0  0  0  0  0  0
   72.9165   83.8752   88.5411 C   0  0  0  0  0  0  0  0  0  0  0  0
   71.6099   84.0578   88.0792 C   0  0  0  0  0  0  0  0  0  0  0  0
   70.5357   83.4887   88.7709 C   0  0  0  0  0  0  0  0  0  0  0  0
   67.0004   73.6942   89.3479 C   0  0  0  0  0  0  0  0  0  0  0  0
   68.2461   73.4288   89.9948 O   0  0  0  0  0  0  0  0  0  0  0  0
   67.6363   73.4960   93.6939 C   0  0  0  0  0  0  0  0  0  0  0  0
   67.3988   73.5645   92.3060 C   0  0  0  0  0  0  0  0  0  0  0  0
   68.4402   73.3526   91.3822 C   0  0  0  0  0  0  0  0  0  0  0  0
   69.7304   73.1019   91.8550 C   0  0  0  0  0  0  0  0  0  0  0  0
   69.9806   73.0267   93.2248 C   0  0  0  0  0  0  0  0  0  0  0  0
   68.9450   73.2184   94.1497 C   0  0  0  0  0  0  0  0  0  0  0  0
   69.2241   73.1407   95.5135 O   0  0  0  0  0  0  0  0  0  0  0  0
   70.0957   72.9559   95.8035 H   0  0  0  0  0  0  0  0  0  0  0  0
   65.5285   74.4454   94.2925 O   0  0  0  0  0  0  0  0  0  0  0  0
   66.5170   73.7420   94.6424 C   0  0  0  0  0  0  0  0  0  0  0  0
   66.5435   73.2111   95.9297 O   0  0  0  0  0  0  0  0  0  0  0  0
   67.2696   72.6869   96.2054 H   0  0  0  0  0  0  0  0  0  0  0  0
 31 32  2  0  0  0
 32 33  1  0  0  0
 32 23  1  0  0  0
 23 24  2  0  0  0
 24 25  1  0  0  0
 25 22  1  0  0  0
 22 21  1  0  0  0
 21  1  1  0  0  0
  1  2  2  0  0  0
  2  3  1  0  0  0
  3  4  2  0  0  0
  4  5  1  0  0  0
  5  7  1  0  0  0
  7  8  1  0  0  0
  8  9  2  0  0  0
  9 10  1  0  0  0
 10 14  1  0  0  0
 14 15  1  0  0  0
 15 16  2  0  0  0
 16 17  1  0  0  0
 17 18  2  0  0  0
 18 19  1  0  0  0
 19 20  2  0  0  0
 10 11  1  0  0  0
 11 12  2  0  0  0
 11 13  1  0  0  0
  5  6  2  0  0  0
 25 26  2  0  0  0
 26 27  1  0  0  0
 27 28  2  0  0  0
 28 29  1  0  0  0
 28 23  1  0  0  0
  6  1  1  0  0  0
 13  7  2  0  0  0
 20 15  1  0  0  0
 33 34  1  0  0  0
 29 30  1  0  0  0
M  END
> <score>
-0.078672

> <minimizedAffinity>
-9.32823

$$$$
HIPS7011


 34 37  0  0  0  0  0  0  0  0999 V2000
   67.1384   78.6835   91.4271 C   0  0  0  0  0  0  0  0  0  0  0  0
   66.5827   79.2797   92.5694 C   0  0  0  0  0  0  0  0  0  0  0  0
   66.7268   80.6526   92.7835 C   0  0  0  0  0  0  0  0  0  0  0  0
   67.4141   81.4414   91.8563 C   0  0  0  0  0  0  0  0  0  0  0  0
   67.9580   80.8643   90.6951 C   0  0  0  0  0  0  0  0  0  0  0  0
   67.8137   79.4808   90.4900 C   0  0  0  0  0  0  0  0  0  0  0  0
   68.6685   81.6999   89.6950 C   0  0  0  0  0  0  0  0  0  0  0  0
   70.0156   82.0367   89.8783 C   0  0  0  0  0  0  0  0  0  0  0  0
   70.6681   82.8303   88.9354 C   0  0  0  0  0  0  0  0  0  0  0  0
   70.0098   83.2884   87.8263 N   0  0  0  0  0  0  0  0  0  0  0  0
   68.6861   82.9753   87.6302 C   0  0  0  0  0  0  0  0  0  0  0  0
   68.0634   83.4034   86.6187 O   0  0  0  0  0  0  0  0  0  0  0  0
   68.0049   82.1742   88.5538 C   0  0  0  0  0  0  0  0  0  0  0  0
   70.7342   84.1581   86.8848 C   0  0  0  0  0  0  0  0  0  0  0  0
   70.9611   85.5152   87.4968 C   0  0  0  0  0  0  0  0  0  0  0  0
   72.2660   85.9557   87.7772 C   0  0  0  0  0  0  0  0  0  0  0  0
   72.4762   87.2027   88.3748 C   0  0  0  0  0  0  0  0  0  0  0  0
   71.3869   88.0147   88.7010 C   0  0  0  0  0  0  0  0  0  0  0  0
   70.0853   87.5791   88.4367 C   0  0  0  0  0  0  0  0  0  0  0  0
   69.8706   86.3316   87.8417 C   0  0  0  0  0  0  0  0  0  0  0  0
   66.9931   77.2115   91.1773 C   0  0  0  0  0  0  0  0  0  0  0  0
   68.0295   76.5157   91.8718 O   0  0  0  0  0  0  0  0  0  0  0  0
   68.6210   73.9763   94.5665 C   0  0  0  0  0  0  0  0  0  0  0  0
   68.8530   74.8217   93.4626 C   0  0  0  0  0  0  0  0  0  0  0  0
   67.8415   75.6730   92.9776 C   0  0  0  0  0  0  0  0  0  0  0  0
   66.5837   75.6517   93.5845 C   0  0  0  0  0  0  0  0  0  0  0  0
   66.3398   74.8244   94.6802 C   0  0  0  0  0  0  0  0  0  0  0  0
   67.3475   73.9880   95.1796 C   0  0  0  0  0  0  0  0  0  0  0  0
   67.0752   73.1687   96.2744 O   0  0  0  0  0  0  0  0  0  0  0  0
   66.2271   73.1853   96.6724 H   0  0  0  0  0  0  0  0  0  0  0  0
   70.7201   72.8649   94.3203 O   0  0  0  0  0  0  0  0  0  0  0  0
   69.7063   73.0770   95.0424 C   0  0  0  0  0  0  0  0  0  0  0  0
   69.6196   72.4492   96.2826 O   0  0  0  0  0  0  0  0  0  0  0  0
   68.8740   72.5958   96.8309 H   0  0  0  0  0  0  0  0  0  0  0  0
 31 32  2  0  0  0
 32 33  1  0  0  0
 32 23  1  0  0  0
 23 24  2  0  0  0
 24 25  1  0  0  0
 25 22  1  0  0  0
 22 21  1  0  0  0
 21  1  1  0  0  0
  1  2  2  0  0  0
  2  3  1  0  0  0
  3  4  2  0  0  0
  4  5  1  0  0  0
  5  7  1  0  0  0
  7  8  1  0  0  0
  8  9  2  0  0  0
  9 10  1  0  0  0
 10 14  1  0  0  0
 14 15  1  0  0  0
 15 16  2  0  0  0
 16 17  1  0  0  0
 17 18  2  0  0  0
 18 19  1  0  0  0
 19 20  2  0  0  0
 10 11  1  0  0  0
 11 12  2  0  0  0
 11 13  1  0  0  0
  5  6  2  0  0  0
 25 26  2  0  0  0
 26 27  1  0  0  0
 27 28  2  0  0  0
 28 29  1  0  0  0
 28 23  1  0  0  0
  6  1  1  0  0  0
 13  7  2  0  0  0
 20 15  1  0  0  0
 33 34  1  0  0  0
 29 30  1  0  0  0
M  END
> <score>
-0.078672

> <minimizedAffinity>
-8.99037

$$$$
HIPS7012


 32 35  0  0  0  0  0  0  0  0999 V2000
   66.5458   79.4032   92.3740 C   0  0  0  0  0  0  0  0  0  0  0  0
   66.8608   80.7694   92.4317 C   0  0  0  0  0  0  0  0  0  0  0  0
   67.1203   81.4708   91.2518 C   0  0  0  0  0  0  0  0  0  0  0  0
   67.0425   80.8143   90.0177 C   0  0  0  0  0  0  0  0  0  0  0  0
   67.2830   81.4946   88.8148 C   0  0  0  0  0  0  0  0  0  0  0  0
   67.1656   80.8217   87.5949 C   0  0  0  0  0  0  0  0  0  0  0  0
   66.8072   79.4667   87.5706 C   0  0  0  0  0  0  0  0  0  0  0  0
   66.5765   78.7743   88.7650 C   0  0  0  0  0  0  0  0  0  0  0  0
   66.6990   79.4399   89.9953 C   0  0  0  0  0  0  0  0  0  0  0  0
   66.4567   78.7868   91.1625 N   0  0  0  0  0  0  0  0  0  0  0  0
   66.2386   78.6241   93.6199 C   0  0  0  0  0  0  0  0  0  0  0  0
   66.0022   77.2559   93.2988 O   0  0  0  0  0  0  0  0  0  0  0  0
   68.0777   74.3774   94.5182 C   0  0  0  0  0  0  0  0  0  0  0  0
   67.6378   75.4573   93.7238 C   0  0  0  0  0  0  0  0  0  0  0  0
   66.4665   76.1663   94.0521 C   0  0  0  0  0  0  0  0  0  0  0  0
   65.7259   75.7819   95.1714 C   0  0  0  0  0  0  0  0  0  0  0  0
   66.1489   74.7169   95.9671 C   0  0  0  0  0  0  0  0  0  0  0  0
   67.3282   74.0258   95.6712 C   0  0  0  0  0  0  0  0  0  0  0  0
   67.7312   73.0281   96.5644 O   0  0  0  0  0  0  0  0  0  0  0  0
   67.2044   72.8292   97.3134 H   0  0  0  0  0  0  0  0  0  0  0  0
   70.2132   74.2575   93.4543 O   0  0  0  0  0  0  0  0  0  0  0  0
   69.3086   73.6631   94.1032 C   0  0  0  0  0  0  0  0  0  0  0  0
   69.4907   72.3302   94.4580 O   0  0  0  0  0  0  0  0  0  0  0  0
   68.8260   71.8786   94.9398 H   0  0  0  0  0  0  0  0  0  0  0  0
   66.1846   77.4340   88.7087 O   0  0  0  0  0  0  0  0  0  0  0  0
   66.8306   76.4857   87.8671 C   0  0  0  0  0  0  0  0  0  0  0  0
   67.1439   75.2645   88.6780 C   0  0  0  0  0  0  0  0  0  0  0  0
   67.9896   75.3555   89.7981 C   0  0  0  0  0  0  0  0  0  0  0  0
   68.3441   74.2037   90.5061 C   0  0  0  0  0  0  0  0  0  0  0  0
   67.8879   72.9509   90.0879 C   0  0  0  0  0  0  0  0  0  0  0  0
   67.0592   72.8509   88.9646 C   0  0  0  0  0  0  0  0  0  0  0  0
   66.7005   74.0002   88.2546 C   0  0  0  0  0  0  0  0  0  0  0  0
 21 22  2  0  0  0
 22 23  1  0  0  0
 22 13  1  0  0  0
 13 14  2  0  0  0
 14 15  1  0  0  0
 15 12  1  0  0  0
 12 11  1  0  0  0
 11  1  1  0  0  0
  1  2  2  0  0  0
  2  3  1  0  0  0
  3  4  2  0  0  0
  4  5  1  0  0  0
  5  6  2  0  0  0
  6  7  1  0  0  0
  7  8  2  0  0  0
  8 25  1  0  0  0
 25 26  1  0  0  0
 26 27  1  0  0  0
 27 28  2  0  0  0
 28 29  1  0  0  0
 29 30  2  0  0  0
 30 31  1  0  0  0
 31 32  2  0  0  0
  8  9  1  0  0  0
  9 10  2  0  0  0
 15 16  2  0  0  0
 16 17  1  0  0  0
 17 18  2  0  0  0
 18 19  1  0  0  0
 18 13  1  0  0  0
 10  1  2  0  0  0
  9  4  1  0  0  0
 32 27  1  0  0  0
 23 24  1  0  0  0
 19 20  1  0  0  0
M  END
> <score>
0.07621

> <minimizedAffinity>
-8.92339

$$$$
HIPS7012


 32 35  0  0  0  0  0  0  0  0999 V2000
   69.1674   78.6876   89.9267 C   0  0  0  0  0  0  0  0  0  0  0  0
   68.2672   78.4427   88.8785 C   0  0  0  0  0  0  0  0  0  0  0  0
   67.7571   77.1560   88.6899 C   0  0  0  0  0  0  0  0  0  0  0  0
   68.1277   76.1235   89.5599 C   0  0  0  0  0  0  0  0  0  0  0  0
   67.6211   74.8246   89.4056 C   0  0  0  0  0  0  0  0  0  0  0  0
   67.9825   73.8208   90.3092 C   0  0  0  0  0  0  0  0  0  0  0  0
   68.8509   74.1095   91.3711 C   0  0  0  0  0  0  0  0  0  0  0  0
   69.3721   75.3990   91.5282 C   0  0  0  0  0  0  0  0  0  0  0  0
   69.0206   76.4119   90.6215 C   0  0  0  0  0  0  0  0  0  0  0  0
   69.5011   77.6742   90.7737 N   0  0  0  0  0  0  0  0  0  0  0  0
   69.7171   80.0627   90.1726 C   0  0  0  0  0  0  0  0  0  0  0  0
   68.8153   81.0488   89.6774 O   0  0  0  0  0  0  0  0  0  0  0  0
   70.7464   83.8151   88.0346 C   0  0  0  0  0  0  0  0  0  0  0  0
   70.4181   82.7648   88.9176 C   0  0  0  0  0  0  0  0  0  0  0  0
   69.1758   82.1081   88.8299 C   0  0  0  0  0  0  0  0  0  0  0  0
   68.2539   82.5155   87.8638 C   0  0  0  0  0  0  0  0  0  0  0  0
   68.5648   83.5517   86.9829 C   0  0  0  0  0  0  0  0  0  0  0  0
   69.8080   84.1899   87.0377 C   0  0  0  0  0  0  0  0  0  0  0  0
   70.0777   85.1589   86.0661 O   0  0  0  0  0  0  0  0  0  0  0  0
   69.4277   85.3748   85.4267 H   0  0  0  0  0  0  0  0  0  0  0  0
   72.2557   85.6479   87.7710 O   0  0  0  0  0  0  0  0  0  0  0  0
   72.0638   84.4752   88.1961 C   0  0  0  0  0  0  0  0  0  0  0  0
   73.0963   83.8128   88.8525 O   0  0  0  0  0  0  0  0  0  0  0  0
   72.9655   82.9419   89.1725 H   0  0  0  0  0  0  0  0  0  0  0  0
   70.2061   75.6669   92.6172 O   0  0  0  0  0  0  0  0  0  0  0  0
   69.7724   76.4240   93.7413 C   0  0  0  0  0  0  0  0  0  0  0  0
   68.5226   75.7987   94.2834 C   0  0  0  0  0  0  0  0  0  0  0  0
   68.5939   74.6199   95.0473 C   0  0  0  0  0  0  0  0  0  0  0  0
   67.4230   73.9947   95.4852 C   0  0  0  0  0  0  0  0  0  0  0  0
   66.1738   74.5173   95.1406 C   0  0  0  0  0  0  0  0  0  0  0  0
   66.0949   75.6809   94.3671 C   0  0  0  0  0  0  0  0  0  0  0  0
   67.2631   76.3106   93.9285 C   0  0  0  0  0  0  0  0  0  0  0  0
 21 22  2  0  0  0
 22 23  1  0  0  0
 22 13  1  0  0  0
 13 14  2  0  0  0
 14 15  1  0  0  0
 15 12  1  0  0  0
 12 11  1  0  0  0
 11  1  1  0  0  0
  1  2  2  0  0  0
  2  3  1  0  0  0
  3  4  2  0  0  0
  4  5  1  0  0  0
  5  6  2  0  0  0
  6  7  1  0  0  0
  7  8  2  0  0  0
  8 25  1  0  0  0
 25 26  1  0  0  0
 26 27  1  0  0  0
 27 28  2  0  0  0
 28 29  1  0  0  0
 29 30  2  0  0  0
 30 31  1  0  0  0
 31 32  2  0  0  0
  8  9  1  0  0  0
  9 10  2  0  0  0
 15 16  2  0  0  0
 16 17  1  0  0  0
 17 18  2  0  0  0
 18 19  1  0  0  0
 18 13  1  0  0  0
 10  1  2  0  0  0
  9  4  1  0  0  0
 32 27  1  0  0  0
 23 24  1  0  0  0
 19 20  1  0  0  0
M  END
> <score>
0.07621

> <minimizedAffinity>
-8.79265

$$$$
HIPS7012


 32 35  0  0  0  0  0  0  0  0999 V2000
   68.6752   78.8440   90.1029 C   0  0  0  0  0  0  0  0  0  0  0  0
   67.8460   78.4986   89.0248 C   0  0  0  0  0  0  0  0  0  0  0  0
   67.5445   77.1558   88.7853 C   0  0  0  0  0  0  0  0  0  0  0  0
   68.0513   76.1643   89.6341 C   0  0  0  0  0  0  0  0  0  0  0  0
   67.7545   74.8088   89.4287 C   0  0  0  0  0  0  0  0  0  0  0  0
   68.2470   73.8431   90.3116 C   0  0  0  0  0  0  0  0  0  0  0  0
   69.0377   74.2265   91.4038 C   0  0  0  0  0  0  0  0  0  0  0  0
   69.3504   75.5749   91.6121 C   0  0  0  0  0  0  0  0  0  0  0  0
   68.8663   76.5511   90.7266 C   0  0  0  0  0  0  0  0  0  0  0  0
   69.1431   77.8665   90.9282 N   0  0  0  0  0  0  0  0  0  0  0  0
   69.0009   80.2784   90.4032 C   0  0  0  0  0  0  0  0  0  0  0  0
   70.3785   80.5348   90.1436 O   0  0  0  0  0  0  0  0  0  0  0  0
   70.7024   83.7777   88.2838 C   0  0  0  0  0  0  0  0  0  0  0  0
   70.1610   82.5625   88.7535 C   0  0  0  0  0  0  0  0  0  0  0  0
   70.8856   81.7429   89.6399 C   0  0  0  0  0  0  0  0  0  0  0  0
   72.1628   82.1355   90.0446 C   0  0  0  0  0  0  0  0  0  0  0  0
   72.7108   83.3350   89.5895 C   0  0  0  0  0  0  0  0  0  0  0  0
   71.9884   84.1742   88.7354 C   0  0  0  0  0  0  0  0  0  0  0  0
   72.5698   85.3991   88.3929 O   0  0  0  0  0  0  0  0  0  0  0  0
   73.4219   85.6194   88.7143 H   0  0  0  0  0  0  0  0  0  0  0  0
   70.4288   85.1399   86.3405 O   0  0  0  0  0  0  0  0  0  0  0  0
   69.8928   84.5815   87.3373 C   0  0  0  0  0  0  0  0  0  0  0  0
   68.5192   84.6994   87.5250 O   0  0  0  0  0  0  0  0  0  0  0  0
   68.1101   84.2891   88.2614 H   0  0  0  0  0  0  0  0  0  0  0  0
   70.1098   75.9315   92.7299 O   0  0  0  0  0  0  0  0  0  0  0  0
   69.5369   76.5564   93.8727 C   0  0  0  0  0  0  0  0  0  0  0  0
   68.3287   75.7728   94.2888 C   0  0  0  0  0  0  0  0  0  0  0  0
   67.0397   76.2314   93.9624 C   0  0  0  0  0  0  0  0  0  0  0  0
   65.9125   75.5423   94.4185 C   0  0  0  0  0  0  0  0  0  0  0  0
   66.0568   74.4126   95.2282 C   0  0  0  0  0  0  0  0  0  0  0  0
   67.3360   73.9598   95.5705 C   0  0  0  0  0  0  0  0  0  0  0  0
   68.4662   74.6446   95.1152 C   0  0  0  0  0  0  0  0  0  0  0  0
 21 22  2  0  0  0
 22 23  1  0  0  0
 22 13  1  0  0  0
 13 14  2  0  0  0
 14 15  1  0  0  0
 15 12  1  0  0  0
 12 11  1  0  0  0
 11  1  1  0  0  0
  1  2  2  0  0  0
  2  3  1  0  0  0
  3  4  2  0  0  0
  4  5  1  0  0  0
  5  6  2  0  0  0
  6  7  1  0  0  0
  7  8  2  0  0  0
  8 25  1  0  0  0
 25 26  1  0  0  0
 26 27  1  0  0  0
 27 28  2  0  0  0
 28 29  1  0  0  0
 29 30  2  0  0  0
 30 31  1  0  0  0
 31 32  2  0  0  0
  8  9  1  0  0  0
  9 10  2  0  0  0
 15 16  2  0  0  0
 16 17  1  0  0  0
 17 18  2  0  0  0
 18 19  1  0  0  0
 18 13  1  0  0  0
 10  1  2  0  0  0
  9  4  1  0  0  0
 32 27  1  0  0  0
 23 24  1  0  0  0
 19 20  1  0  0  0
M  END
> <score>
0.07621

> <minimizedAffinity>
-8.78904

$$$$
HIPS7013


 32 35  0  0  0  0  0  0  0  0999 V2000
   67.3415   73.8452   89.1231 C   0  0  0  0  0  0  0  0  0  0  0  0
   68.0301   73.0819   90.0760 C   0  0  0  0  0  0  0  0  0  0  0  0
   68.7859   73.7041   91.0835 C   0  0  0  0  0  0  0  0  0  0  0  0
   68.8357   75.1082   91.1316 C   0  0  0  0  0  0  0  0  0  0  0  0
   68.1404   75.8875   90.1907 C   0  0  0  0  0  0  0  0  0  0  0  0
   67.3896   75.2447   89.1923 C   0  0  0  0  0  0  0  0  0  0  0  0
   69.5283   72.8896   92.0790 C   0  0  0  0  0  0  0  0  0  0  0  0
   69.8463   71.5457   91.8178 C   0  0  0  0  0  0  0  0  0  0  0  0
   70.5448   70.7930   92.7632 C   0  0  0  0  0  0  0  0  0  0  0  0
   70.9214   71.3870   93.9679 C   0  0  0  0  0  0  0  0  0  0  0  0
   70.6079   72.6862   94.2130 N   0  0  0  0  0  0  0  0  0  0  0  0
   69.9303   73.4424   93.3083 C   0  0  0  0  0  0  0  0  0  0  0  0
   68.2063   77.3700   90.2451 C   0  0  0  0  0  0  0  0  0  0  0  0
   69.3345   78.0593   89.7681 C   0  0  0  0  0  0  0  0  0  0  0  0
   69.3826   79.4530   89.8278 C   0  0  0  0  0  0  0  0  0  0  0  0
   68.3013   80.1526   90.3639 C   0  0  0  0  0  0  0  0  0  0  0  0
   67.2144   79.4780   90.8218 N   0  0  0  0  0  0  0  0  0  0  0  0
   67.1426   78.1206   90.7772 C   0  0  0  0  0  0  0  0  0  0  0  0
   66.5386   73.1595   88.0489 C   0  0  0  0  0  0  0  0  0  0  0  0
   67.1278   71.9061   87.7001 O   0  0  0  0  0  0  0  0  0  0  0  0
   65.7533   70.9914   84.3803 C   0  0  0  0  0  0  0  0  0  0  0  0
   65.9258   71.5916   85.6409 C   0  0  0  0  0  0  0  0  0  0  0  0
   67.0285   71.2842   86.4446 C   0  0  0  0  0  0  0  0  0  0  0  0
   67.9854   70.3692   85.9742 C   0  0  0  0  0  0  0  0  0  0  0  0
   67.8374   69.7822   84.7173 C   0  0  0  0  0  0  0  0  0  0  0  0
   66.7433   70.0975   83.9048 C   0  0  0  0  0  0  0  0  0  0  0  0
   66.6975   69.5346   82.6277 O   0  0  0  0  0  0  0  0  0  0  0  0
   67.3725   68.9469   82.3503 H   0  0  0  0  0  0  0  0  0  0  0  0
   63.3928   71.0413   84.1196 O   0  0  0  0  0  0  0  0  0  0  0  0
   64.5220   71.2889   83.6163 C   0  0  0  0  0  0  0  0  0  0  0  0
   64.5961   71.7848   82.3179 O   0  0  0  0  0  0  0  0  0  0  0  0
   65.4304   71.9720   81.9348 H   0  0  0  0  0  0  0  0  0  0  0  0
 29 30  2  0  0  0
 30 31  1  0  0  0
 30 21  1  0  0  0
 21 22  2  0  0  0
 22 23  1  0  0  0
 23 20  1  0  0  0
 20 19  1  0  0  0
 19  1  1  0  0  0
  1  2  2  0  0  0
  2  3  1  0  0  0
  3  7  1  0  0  0
  7  8  2  0  0  0
  8  9  1  0  0  0
  9 10  2  0  0  0
 10 11  2  0  0  0
 11 12  2  0  0  0
  3  4  2  0  0  0
  4  5  1  0  0  0
  5 13  1  0  0  0
 13 14  2  0  0  0
 14 15  1  0  0  0
 15 16  2  0  0  0
 16 17  2  0  0  0
 17 18  2  0  0  0
  5  6  2  0  0  0
 23 24  2  0  0  0
 24 25  1  0  0  0
 25 26  2  0  0  0
 26 27  1  0  0  0
 26 21  1  0  0  0
  6  1  1  0  0  0
 12  7  1  0  0  0
 18 13  1  0  0  0
 31 32  1  0  0  0
 27 28  1  0  0  0
M  END
> <score>
0.239319

> <minimizedAffinity>
-9.01026

$$$$
HIPS7013


 32 35  0  0  0  0  0  0  0  0999 V2000
   67.0782   79.0397   90.7282 C   0  0  0  0  0  0  0  0  0  0  0  0
   67.1550   80.3978   90.3898 C   0  0  0  0  0  0  0  0  0  0  0  0
   67.2927   80.7965   89.0499 C   0  0  0  0  0  0  0  0  0  0  0  0
   67.3428   79.8135   88.0462 C   0  0  0  0  0  0  0  0  0  0  0  0
   67.2545   78.4481   88.3687 C   0  0  0  0  0  0  0  0  0  0  0  0
   67.1157   78.0714   89.7150 C   0  0  0  0  0  0  0  0  0  0  0  0
   67.3922   82.2363   88.6995 C   0  0  0  0  0  0  0  0  0  0  0  0
   67.4641   82.6484   87.3577 C   0  0  0  0  0  0  0  0  0  0  0  0
   67.5571   84.0053   87.0441 C   0  0  0  0  0  0  0  0  0  0  0  0
   67.5797   84.9456   88.0743 C   0  0  0  0  0  0  0  0  0  0  0  0
   67.5120   84.5381   89.3687 N   0  0  0  0  0  0  0  0  0  0  0  0
   67.4185   83.2229   89.7016 C   0  0  0  0  0  0  0  0  0  0  0  0
   67.3168   77.4170   87.3017 C   0  0  0  0  0  0  0  0  0  0  0  0
   67.8069   77.7322   86.0226 C   0  0  0  0  0  0  0  0  0  0  0  0
   67.8575   76.7527   85.0295 C   0  0  0  0  0  0  0  0  0  0  0  0
   67.4182   75.4609   85.3196 C   0  0  0  0  0  0  0  0  0  0  0  0
   66.9469   75.1651   86.5590 N   0  0  0  0  0  0  0  0  0  0  0  0
   66.8850   76.1007   87.5441 C   0  0  0  0  0  0  0  0  0  0  0  0
   66.9333   78.6320   92.1710 C   0  0  0  0  0  0  0  0  0  0  0  0
   67.7989   77.5377   92.4761 O   0  0  0  0  0  0  0  0  0  0  0  0
   68.2496   74.4643   94.5007 C   0  0  0  0  0  0  0  0  0  0  0  0
   68.5013   75.5722   93.6710 C   0  0  0  0  0  0  0  0  0  0  0  0
   67.4810   76.4637   93.3239 C   0  0  0  0  0  0  0  0  0  0  0  0
   66.1860   76.2523   93.8263 C   0  0  0  0  0  0  0  0  0  0  0  0
   65.9269   75.1692   94.6666 C   0  0  0  0  0  0  0  0  0  0  0  0
   66.9475   74.2834   95.0272 C   0  0  0  0  0  0  0  0  0  0  0  0
   66.6373   73.2673   95.9335 O   0  0  0  0  0  0  0  0  0  0  0  0
   65.7629   73.1807   96.2590 H   0  0  0  0  0  0  0  0  0  0  0  0
   69.3832   72.8662   95.8435 O   0  0  0  0  0  0  0  0  0  0  0  0
   69.3484   73.5083   94.7591 C   0  0  0  0  0  0  0  0  0  0  0  0
   70.3831   73.3530   93.8411 O   0  0  0  0  0  0  0  0  0  0  0  0
   70.3667   73.8257   93.0322 H   0  0  0  0  0  0  0  0  0  0  0  0
 29 30  2  0  0  0
 30 31  1  0  0  0
 30 21  1  0  0  0
 21 22  2  0  0  0
 22 23  1  0  0  0
 23 20  1  0  0  0
 20 19  1  0  0  0
 19  1  1  0  0  0
  1  2  2  0  0  0
  2  3  1  0  0  0
  3  7  1  0  0  0
  7  8  2  0  0  0
  8  9  1  0  0  0
  9 10  2  0  0  0
 10 11  2  0  0  0
 11 12  2  0  0  0
  3  4  2  0  0  0
  4  5  1  0  0  0
  5 13  1  0  0  0
 13 14  2  0  0  0
 14 15  1  0  0  0
 15 16  2  0  0  0
 16 17  2  0  0  0
 17 18  2  0  0  0
  5  6  2  0  0  0
 23 24  2  0  0  0
 24 25  1  0  0  0
 25 26  2  0  0  0
 26 27  1  0  0  0
 26 21  1  0  0  0
  6  1  1  0  0  0
 12  7  1  0  0  0
 18 13  1  0  0  0
 31 32  1  0  0  0
 27 28  1  0  0  0
M  END
> <score>
0.239319

> <minimizedAffinity>
-8.72568

$$$$
HIPS7013


 32 35  0  0  0  0  0  0  0  0999 V2000
   67.0211   79.0524   90.7576 C   0  0  0  0  0  0  0  0  0  0  0  0
   67.0917   78.0816   89.7490 C   0  0  0  0  0  0  0  0  0  0  0  0
   67.2485   78.4548   88.4038 C   0  0  0  0  0  0  0  0  0  0  0  0
   67.3444   79.8195   88.0801 C   0  0  0  0  0  0  0  0  0  0  0  0
   67.2878   80.8042   89.0818 C   0  0  0  0  0  0  0  0  0  0  0  0
   67.1320   80.4088   90.4208 C   0  0  0  0  0  0  0  0  0  0  0  0
   67.3040   77.4223   87.3378 C   0  0  0  0  0  0  0  0  0  0  0  0
   67.7761   77.7380   86.0521 C   0  0  0  0  0  0  0  0  0  0  0  0
   67.8224   76.7567   85.0607 C   0  0  0  0  0  0  0  0  0  0  0  0
   67.3946   75.4628   85.3583 C   0  0  0  0  0  0  0  0  0  0  0  0
   66.9376   75.1669   86.6032 N   0  0  0  0  0  0  0  0  0  0  0  0
   66.8841   76.1034   87.5879 C   0  0  0  0  0  0  0  0  0  0  0  0
   67.3817   82.2435   88.7285 C   0  0  0  0  0  0  0  0  0  0  0  0
   67.5005   82.6506   87.3885 C   0  0  0  0  0  0  0  0  0  0  0  0
   67.5898   84.0071   87.0722 C   0  0  0  0  0  0  0  0  0  0  0  0
   67.5591   84.9521   88.0979 C   0  0  0  0  0  0  0  0  0  0  0  0
   67.4431   84.5496   89.3903 N   0  0  0  0  0  0  0  0  0  0  0  0
   67.3563   83.2346   89.7261 C   0  0  0  0  0  0  0  0  0  0  0  0
   66.8501   78.6323   92.1940 C   0  0  0  0  0  0  0  0  0  0  0  0
   67.7408   77.5637   92.5173 O   0  0  0  0  0  0  0  0  0  0  0  0
   68.2378   74.4881   94.5277 C   0  0  0  0  0  0  0  0  0  0  0  0
   68.4703   75.5966   93.6932 C   0  0  0  0  0  0  0  0  0  0  0  0
   67.4427   76.4893   93.3716 C   0  0  0  0  0  0  0  0  0  0  0  0
   66.1600   76.2784   93.9049 C   0  0  0  0  0  0  0  0  0  0  0  0
   65.9204   75.1948   94.7503 C   0  0  0  0  0  0  0  0  0  0  0  0
   66.9487   74.3078   95.0854 C   0  0  0  0  0  0  0  0  0  0  0  0
   66.6596   73.2912   95.9980 O   0  0  0  0  0  0  0  0  0  0  0  0
   65.7932   73.2050   96.3445 H   0  0  0  0  0  0  0  0  0  0  0  0
   69.4086   72.8965   95.8460 O   0  0  0  0  0  0  0  0  0  0  0  0
   69.3418   73.5311   94.7586 C   0  0  0  0  0  0  0  0  0  0  0  0
   70.3470   73.3665   93.8101 O   0  0  0  0  0  0  0  0  0  0  0  0
   70.3066   73.8335   92.9988 H   0  0  0  0  0  0  0  0  0  0  0  0
 29 30  2  0  0  0
 30 31  1  0  0  0
 30 21  1  0  0  0
 21 22  2  0  0  0
 22 23  1  0  0  0
 23 20  1  0  0  0
 20 19  1  0  0  0
 19  1  1  0  0  0
  1  2  2  0  0  0
  2  3  1  0  0  0
  3  7  1  0  0  0
  7  8  2  0  0  0
  8  9  1  0  0  0
  9 10  2  0  0  0
 10 11  2  0  0  0
 11 12  2  0  0  0
  3  4  2  0  0  0
  4  5  1  0  0  0
  5 13  1  0  0  0
 13 14  2  0  0  0
 14 15  1  0  0  0
 15 16  2  0  0  0
 16 17  2  0  0  0
 17 18  2  0  0  0
  5  6  2  0  0  0
 23 24  2  0  0  0
 24 25  1  0  0  0
 25 26  2  0  0  0
 26 27  1  0  0  0
 26 21  1  0  0  0
  6  1  1  0  0  0
 12  7  1  0  0  0
 18 13  1  0  0  0
 31 32  1  0  0  0
 27 28  1  0  0  0
M  END
> <score>
0.239319

> <minimizedAffinity>
-8.70689

$$$$
HIPS7014


 38 41  0  0  0  0  0  0  0  0999 V2000
   68.3326   75.7392   90.1742 C   0  0  0  0  0  0  0  0  0  0  0  0
   67.5558   75.1122   89.1856 C   0  0  0  0  0  0  0  0  0  0  0  0
   67.4028   73.7192   89.1722 C   0  0  0  0  0  0  0  0  0  0  0  0
   68.0081   72.9462   90.1723 C   0  0  0  0  0  0  0  0  0  0  0  0
   68.7929   73.5503   91.1692 C   0  0  0  0  0  0  0  0  0  0  0  0
   68.9515   74.9480   91.1586 C   0  0  0  0  0  0  0  0  0  0  0  0
   69.6371   79.2509   90.2077 C   0  0  0  0  0  0  0  0  0  0  0  0
   69.7387   77.8666   90.1984 C   0  0  0  0  0  0  0  0  0  0  0  0
   68.4907   77.2158   90.1810 C   0  0  0  0  0  0  0  0  0  0  0  0
   67.4136   78.1046   90.1639 C   0  0  0  0  0  0  0  0  0  0  0  0
   68.0132   79.6750   90.1631 S   0  0  0  0  0  0  0  0  0  0  0  0
   70.3479   81.5300   89.7045 N   0  0  0  0  0  0  0  0  0  0  0  0
   70.7851   80.2143   90.1652 C   0  0  0  0  0  0  0  0  0  0  0  0
   71.1454   82.1656   89.6845 H   0  0  0  0  0  0  0  0  0  0  0  0
   69.6385   81.8945   90.3403 H   0  0  0  0  0  0  0  0  0  0  0  0
   69.4447   72.7247   92.2177 C   0  0  0  0  0  0  0  0  0  0  0  0
   69.9156   73.2431   93.4263 C   0  0  0  0  0  0  0  0  0  0  0  0
   70.5662   71.9855   94.3328 S   0  0  0  0  0  0  0  0  0  0  0  0
   70.2762   70.7766   93.2044 C   0  0  0  0  0  0  0  0  0  0  0  0
   69.6427   71.3356   92.1026 C   0  0  0  0  0  0  0  0  0  0  0  0
   70.5484   69.3210   93.4113 C   0  0  0  0  0  0  0  0  0  0  0  0
   70.4013   68.9843   94.8223 N   0  0  0  0  0  0  0  0  0  0  0  0
   71.0648   69.5295   95.3729 H   0  0  0  0  0  0  0  0  0  0  0  0
   70.5851   67.9899   94.9556 H   0  0  0  0  0  0  0  0  0  0  0  0
   66.5368   73.0696   88.1319 C   0  0  0  0  0  0  0  0  0  0  0  0
   67.1638   71.8713   87.6836 O   0  0  0  0  0  0  0  0  0  0  0  0
   66.9748   71.2993   86.4170 C   0  0  0  0  0  0  0  0  0  0  0  0
   67.9587   70.4372   85.9291 C   0  0  0  0  0  0  0  0  0  0  0  0
   67.8215   69.8433   84.6749 C   0  0  0  0  0  0  0  0  0  0  0  0
   66.6938   70.1024   83.8845 C   0  0  0  0  0  0  0  0  0  0  0  0
   66.5832   69.4960   82.6327 O   0  0  0  0  0  0  0  0  0  0  0  0
   65.6844   70.9714   84.3602 C   0  0  0  0  0  0  0  0  0  0  0  0
   65.8381   71.5632   85.6293 C   0  0  0  0  0  0  0  0  0  0  0  0
   67.2588   68.9222   82.3288 H   0  0  0  0  0  0  0  0  0  0  0  0
   64.4710   71.2771   83.5586 C   0  0  0  0  0  0  0  0  0  0  0  0
   63.3214   70.9937   83.9902 O   0  0  0  0  0  0  0  0  0  0  0  0
   64.5919   71.8856   82.3113 O   0  0  0  0  0  0  0  0  0  0  0  0
   65.4396   72.1027   81.9761 H   0  0  0  0  0  0  0  0  0  0  0  0
 12 13  1  0  0  0
 13  7  1  0  0  0
  7  8  2  0  0  0
  8  9  1  0  0  0
  9  1  1  0  0  0
  1  2  2  0  0  0
  2  3  1  0  0  0
  3 25  1  0  0  0
 25 26  1  0  0  0
 26 27  1  0  0  0
 27 28  2  0  0  0
 28 29  1  0  0  0
 29 30  2  0  0  0
 30 31  1  0  0  0
 30 32  1  0  0  0
 32 35  1  0  0  0
 35 36  2  0  0  0
 35 37  1  0  0  0
 32 33  2  0  0  0
  3  4  2  0  0  0
  4  5  1  0  0  0
  5 16  1  0  0  0
 16 17  2  0  0  0
 17 18  1  0  0  0
 18 19  1  0  0  0
 19 21  1  0  0  0
 21 22  1  0  0  0
 19 20  2  0  0  0
  5  6  2  0  0  0
  9 10  2  0  0  0
 10 11  1  0  0  0
 11  7  1  0  0  0
  6  1  1  0  0  0
 33 27  1  0  0  0
 20 16  1  0  0  0
 12 14  1  0  0  0
 12 15  1  0  0  0
 31 34  1  0  0  0
 37 38  1  0  0  0
 22 23  1  0  0  0
 22 24  1  0  0  0
M  END
> <score>
0.257233

> <minimizedAffinity>
-8.66930

$$$$
HIPS7014


 38 41  0  0  0  0  0  0  0  0999 V2000
   68.7914   73.8758   91.1036 C   0  0  0  0  0  0  0  0  0  0  0  0
   67.9688   73.2721   90.1378 C   0  0  0  0  0  0  0  0  0  0  0  0
   67.3688   74.0379   89.1291 C   0  0  0  0  0  0  0  0  0  0  0  0
   67.6149   75.4162   89.0668 C   0  0  0  0  0  0  0  0  0  0  0  0
   68.4308   76.0430   90.0238 C   0  0  0  0  0  0  0  0  0  0  0  0
   69.0115   75.2635   91.0406 C   0  0  0  0  0  0  0  0  0  0  0  0
   70.3771   71.1556   93.1337 C   0  0  0  0  0  0  0  0  0  0  0  0
   69.8146   71.7169   91.9955 C   0  0  0  0  0  0  0  0  0  0  0  0
   69.4228   73.0575   92.1700 C   0  0  0  0  0  0  0  0  0  0  0  0
   69.6963   73.5421   93.4509 C   0  0  0  0  0  0  0  0  0  0  0  0
   70.4214   72.3173   94.3451 S   0  0  0  0  0  0  0  0  0  0  0  0
   70.2863   69.0172   94.3048 N   0  0  0  0  0  0  0  0  0  0  0  0
   70.9435   69.7715   93.2402 C   0  0  0  0  0  0  0  0  0  0  0  0
   70.6886   68.0813   94.3567 H   0  0  0  0  0  0  0  0  0  0  0  0
   69.2883   68.9476   94.1060 H   0  0  0  0  0  0  0  0  0  0  0  0
   68.6757   77.5066   89.9619 C   0  0  0  0  0  0  0  0  0  0  0  0
   67.6654   78.4503   89.7620 C   0  0  0  0  0  0  0  0  0  0  0  0
   68.3538   79.9841   89.7713 S   0  0  0  0  0  0  0  0  0  0  0  0
   69.9354   79.4740   90.0108 C   0  0  0  0  0  0  0  0  0  0  0  0
   69.9488   78.0892   90.1097 C   0  0  0  0  0  0  0  0  0  0  0  0
   71.1118   80.3761   90.2059 C   0  0  0  0  0  0  0  0  0  0  0  0
   70.7423   81.7498   89.8859 N   0  0  0  0  0  0  0  0  0  0  0  0
   70.4390   81.8025   88.9135 H   0  0  0  0  0  0  0  0  0  0  0  0
   71.5481   82.3596   90.0243 H   0  0  0  0  0  0  0  0  0  0  0  0
   66.5250   73.3704   88.0821 C   0  0  0  0  0  0  0  0  0  0  0  0
   67.0975   72.1070   87.7559 O   0  0  0  0  0  0  0  0  0  0  0  0
   66.9422   71.4568   86.5228 C   0  0  0  0  0  0  0  0  0  0  0  0
   67.9332   70.5592   86.1211 C   0  0  0  0  0  0  0  0  0  0  0  0
   67.8291   69.8876   84.9034 C   0  0  0  0  0  0  0  0  0  0  0  0
   66.7280   70.1031   84.0638 C   0  0  0  0  0  0  0  0  0  0  0  0
   66.6504   69.4190   82.8502 O   0  0  0  0  0  0  0  0  0  0  0  0
   65.7120   71.0070   84.4522 C   0  0  0  0  0  0  0  0  0  0  0  0
   65.8320   71.6773   85.6854 C   0  0  0  0  0  0  0  0  0  0  0  0
   67.3300   68.8227   82.6042 H   0  0  0  0  0  0  0  0  0  0  0  0
   64.5260   71.2687   83.5959 C   0  0  0  0  0  0  0  0  0  0  0  0
   63.3610   71.0269   84.0116 O   0  0  0  0  0  0  0  0  0  0  0  0
   64.6901   71.7889   82.3140 O   0  0  0  0  0  0  0  0  0  0  0  0
   65.5496   71.9742   81.9901 H   0  0  0  0  0  0  0  0  0  0  0  0
 12 13  1  0  0  0
 13  7  1  0  0  0
  7  8  2  0  0  0
  8  9  1  0  0  0
  9  1  1  0  0  0
  1  2  2  0  0  0
  2  3  1  0  0  0
  3 25  1  0  0  0
 25 26  1  0  0  0
 26 27  1  0  0  0
 27 28  2  0  0  0
 28 29  1  0  0  0
 29 30  2  0  0  0
 30 31  1  0  0  0
 30 32  1  0  0  0
 32 35  1  0  0  0
 35 36  2  0  0  0
 35 37  1  0  0  0
 32 33  2  0  0  0
  3  4  2  0  0  0
  4  5  1  0  0  0
  5 16  1  0  0  0
 16 17  2  0  0  0
 17 18  1  0  0  0
 18 19  1  0  0  0
 19 21  1  0  0  0
 21 22  1  0  0  0
 19 20  2  0  0  0
  5  6  2  0  0  0
  9 10  2  0  0  0
 10 11  1  0  0  0
 11  7  1  0  0  0
  6  1  1  0  0  0
 33 27  1  0  0  0
 20 16  1  0  0  0
 12 14  1  0  0  0
 12 15  1  0  0  0
 31 34  1  0  0  0
 37 38  1  0  0  0
 22 23  1  0  0  0
 22 24  1  0  0  0
M  END
> <score>
0.257233

> <minimizedAffinity>
-8.49326

$$$$
HIPS7014


 38 41  0  0  0  0  0  0  0  0999 V2000
   67.1899   72.5663   87.8300 C   0  0  0  0  0  0  0  0  0  0  0  0
   66.7411   73.8894   87.6826 C   0  0  0  0  0  0  0  0  0  0  0  0
   66.8904   74.8160   88.7233 C   0  0  0  0  0  0  0  0  0  0  0  0
   67.5197   74.4257   89.9132 C   0  0  0  0  0  0  0  0  0  0  0  0
   67.9733   73.1069   90.0855 C   0  0  0  0  0  0  0  0  0  0  0  0
   67.8000   72.1839   89.0382 C   0  0  0  0  0  0  0  0  0  0  0  0
   66.1806   70.7409   84.7180 C   0  0  0  0  0  0  0  0  0  0  0  0
   66.1716   71.7930   85.6235 C   0  0  0  0  0  0  0  0  0  0  0  0
   67.0270   71.5900   86.7228 C   0  0  0  0  0  0  0  0  0  0  0  0
   67.7138   70.3756   86.6611 C   0  0  0  0  0  0  0  0  0  0  0  0
   67.2637   69.5750   85.2533 S   0  0  0  0  0  0  0  0  0  0  0  0
   64.0980   71.2859   83.5698 N   0  0  0  0  0  0  0  0  0  0  0  0
   65.4245   70.6914   83.4243 C   0  0  0  0  0  0  0  0  0  0  0  0
   63.6051   71.2400   82.6779 H   0  0  0  0  0  0  0  0  0  0  0  0
   64.1917   72.2603   83.8567 H   0  0  0  0  0  0  0  0  0  0  0  0
   68.6256   72.6947   91.3545 C   0  0  0  0  0  0  0  0  0  0  0  0
   69.3563   71.5129   91.4983 C   0  0  0  0  0  0  0  0  0  0  0  0
   69.9367   71.4287   93.0739 S   0  0  0  0  0  0  0  0  0  0  0  0
   69.2592   72.8733   93.5965 C   0  0  0  0  0  0  0  0  0  0  0  0
   68.5820   73.4595   92.5357 C   0  0  0  0  0  0  0  0  0  0  0  0
   69.4593   73.4799   94.9484 C   0  0  0  0  0  0  0  0  0  0  0  0
   69.8379   74.8814   94.8125 N   0  0  0  0  0  0  0  0  0  0  0  0
   70.7079   74.9488   94.2843 H   0  0  0  0  0  0  0  0  0  0  0  0
   69.9695   75.2893   95.7380 H   0  0  0  0  0  0  0  0  0  0  0  0
   66.4411   76.2359   88.5338 C   0  0  0  0  0  0  0  0  0  0  0  0
   66.7646   76.9881   89.6999 O   0  0  0  0  0  0  0  0  0  0  0  0
   67.9570   77.7045   89.8800 C   0  0  0  0  0  0  0  0  0  0  0  0
   68.0168   79.0158   89.4042 C   0  0  0  0  0  0  0  0  0  0  0  0
   69.1788   79.7717   89.5554 C   0  0  0  0  0  0  0  0  0  0  0  0
   70.3048   79.2271   90.1872 C   0  0  0  0  0  0  0  0  0  0  0  0
   71.4549   80.0054   90.3232 O   0  0  0  0  0  0  0  0  0  0  0  0
   70.2651   77.9013   90.6779 C   0  0  0  0  0  0  0  0  0  0  0  0
   69.0837   77.1510   90.5174 C   0  0  0  0  0  0  0  0  0  0  0  0
   71.4687   80.8826   89.9939 H   0  0  0  0  0  0  0  0  0  0  0  0
   71.4334   77.2801   91.3544 C   0  0  0  0  0  0  0  0  0  0  0  0
   72.5727   77.2866   90.8156 O   0  0  0  0  0  0  0  0  0  0  0  0
   71.2809   76.6793   92.6020 O   0  0  0  0  0  0  0  0  0  0  0  0
   70.4405   76.6661   93.0161 H   0  0  0  0  0  0  0  0  0  0  0  0
 12 13  1  0  0  0
 13  7  1  0  0  0
  7  8  2  0  0  0
  8  9  1  0  0  0
  9  1  1  0  0  0
  1  2  2  0  0  0
  2  3  1  0  0  0
  3 25  1  0  0  0
 25 26  1  0  0  0
 26 27  1  0  0  0
 27 28  2  0  0  0
 28 29  1  0  0  0
 29 30  2  0  0  0
 30 31  1  0  0  0
 30 32  1  0  0  0
 32 35  1  0  0  0
 35 36  2  0  0  0
 35 37  1  0  0  0
 32 33  2  0  0  0
  3  4  2  0  0  0
  4  5  1  0  0  0
  5 16  1  0  0  0
 16 17  2  0  0  0
 17 18  1  0  0  0
 18 19  1  0  0  0
 19 21  1  0  0  0
 21 22  1  0  0  0
 19 20  2  0  0  0
  5  6  2  0  0  0
  9 10  2  0  0  0
 10 11  1  0  0  0
 11  7  1  0  0  0
  6  1  1  0  0  0
 33 27  1  0  0  0
 20 16  1  0  0  0
 12 14  1  0  0  0
 12 15  1  0  0  0
 31 34  1  0  0  0
 37 38  1  0  0  0
 22 23  1  0  0  0
 22 24  1  0  0  0
M  END
> <score>
0.257233

> <minimizedAffinity>
-8.27249

$$$$
HIPS7015


 39 42  0  0  0  0  0  0  0  0999 V2000
   67.2234   79.4808   88.4344 C   0  0  0  0  0  0  0  0  0  0  0  0
   67.4503   78.4712   87.4931 C   0  0  0  0  0  0  0  0  0  0  0  0
   67.6519   77.1932   87.9039 N   0  0  0  0  0  0  0  0  0  0  0  0
   67.6307   76.8597   89.2242 C   0  0  0  0  0  0  0  0  0  0  0  0
   67.3976   77.8287   90.1514 N   0  0  0  0  0  0  0  0  0  0  0  0
   67.1916   79.1208   89.7861 C   0  0  0  0  0  0  0  0  0  0  0  0
   67.8435   75.4520   89.6444 C   0  0  0  0  0  0  0  0  0  0  0  0
   67.1483   74.4014   89.0174 C   0  0  0  0  0  0  0  0  0  0  0  0
   67.3549   73.0789   89.4168 C   0  0  0  0  0  0  0  0  0  0  0  0
   68.2645   72.7860   90.4356 C   0  0  0  0  0  0  0  0  0  0  0  0
   68.9838   73.8135   91.0645 C   0  0  0  0  0  0  0  0  0  0  0  0
   68.7534   75.1463   90.6751 C   0  0  0  0  0  0  0  0  0  0  0  0
   69.9384   73.4823   92.0899 N   0  0  0  0  0  0  0  0  0  0  0  0
   70.8633   73.2798   91.8201 H   0  0  0  0  0  0  0  0  0  0  0  0
   69.5396   73.4225   93.7790 S   0  0  0  0  0  0  0  0  0  0  0  0
   69.6815   74.7971   94.3756 O   0  0  0  0  0  0  0  0  0  0  0  0
   68.1105   72.9778   93.9243 O   0  0  0  0  0  0  0  0  0  0  0  0
   70.6001   72.2317   94.6042 C   0  0  0  0  0  0  0  0  0  0  0  0
   71.0725   71.1317   93.6418 C   0  0  0  0  0  0  0  0  0  0  0  0
   72.0480   70.1593   94.3189 C   0  0  0  0  0  0  0  0  0  0  0  0
   73.4224   70.4176   93.8940 N   0  0  0  0  0  0  0  0  0  0  0  0
   73.9827   70.1503   92.7014 C   0  0  0  0  0  0  0  0  0  0  0  0
   75.2564   70.5858   92.6928 N   0  0  0  0  0  0  0  0  0  0  0  0
   75.4510   71.1187   93.8938 N   0  0  0  0  0  0  0  0  0  0  0  0
   74.3451   71.0211   94.6199 N   0  0  0  0  0  0  0  0  0  0  0  0
   66.9717   80.9011   88.0060 C   0  0  0  0  0  0  0  0  0  0  0  0
   67.5290   81.8248   88.9411 O   0  0  0  0  0  0  0  0  0  0  0  0
   70.4339   83.9539   88.0406 C   0  0  0  0  0  0  0  0  0  0  0  0
   69.1317   83.4195   88.1174 C   0  0  0  0  0  0  0  0  0  0  0  0
   68.8483   82.3086   88.9201 C   0  0  0  0  0  0  0  0  0  0  0  0
   69.8846   81.7188   89.6633 C   0  0  0  0  0  0  0  0  0  0  0  0
   71.1775   82.2404   89.6042 C   0  0  0  0  0  0  0  0  0  0  0  0
   71.4628   83.3522   88.8006 C   0  0  0  0  0  0  0  0  0  0  0  0
   72.7657   83.8510   88.7638 O   0  0  0  0  0  0  0  0  0  0  0  0
   73.4383   83.4425   89.2725 H   0  0  0  0  0  0  0  0  0  0  0  0
   71.4546   86.0540   87.5542 O   0  0  0  0  0  0  0  0  0  0  0  0
   70.6945   85.1264   87.1639 C   0  0  0  0  0  0  0  0  0  0  0  0
   70.1037   85.2260   85.9068 O   0  0  0  0  0  0  0  0  0  0  0  0
   69.5363   84.5461   85.6006 H   0  0  0  0  0  0  0  0  0  0  0  0
 36 37  2  0  0  0
 37 38  1  0  0  0
 37 28  1  0  0  0
 28 29  2  0  0  0
 29 30  1  0  0  0
 30 27  1  0  0  0
 27 26  1  0  0  0
 26  1  1  0  0  0
  1  2  2  0  0  0
  2  3  2  0  0  0
  3  4  2  0  0  0
  4  7  1  0  0  0
  7  8  2  0  0  0
  8  9  1  0  0  0
  9 10  2  0  0  0
 10 11  1  0  0  0
 11 13  1  0  0  0
 13 15  1  0  0  0
 15 16  2  0  0  0
 15 17  2  0  0  0
 15 18  1  0  0  0
 18 19  1  0  0  0
 19 20  1  0  0  0
 20 21  1  0  0  0
 21 22  1  0  0  0
 22 23  2  0  0  0
 23 24  1  0  0  0
 24 25  2  0  0  0
 11 12  2  0  0  0
  4  5  2  0  0  0
  5  6  2  0  0  0
 30 31  2  0  0  0
 31 32  1  0  0  0
 32 33  2  0  0  0
 33 34  1  0  0  0
 33 28  1  0  0  0
  6  1  1  0  0  0
 12  7  1  0  0  0
 25 21  1  0  0  0
 38 39  1  0  0  0
 13 14  1  0  0  0
 34 35  1  0  0  0
M  END
> <score>
0.875691

> <minimizedAffinity>
-8.84133

$$$$
HIPS7015


 39 42  0  0  0  0  0  0  0  0999 V2000
   68.6464   79.8143   89.8094 C   0  0  0  0  0  0  0  0  0  0  0  0
   69.6418   78.8913   90.1473 C   0  0  0  0  0  0  0  0  0  0  0  0
   69.3802   77.5605   90.0918 N   0  0  0  0  0  0  0  0  0  0  0  0
   68.1622   77.0915   89.7028 C   0  0  0  0  0  0  0  0  0  0  0  0
   67.1876   77.9771   89.3578 N   0  0  0  0  0  0  0  0  0  0  0  0
   67.4044   79.3174   89.3993 C   0  0  0  0  0  0  0  0  0  0  0  0
   67.9073   75.6305   89.6409 C   0  0  0  0  0  0  0  0  0  0  0  0
   67.0267   75.0940   88.6834 C   0  0  0  0  0  0  0  0  0  0  0  0
   66.7929   73.7178   88.6297 C   0  0  0  0  0  0  0  0  0  0  0  0
   67.4423   72.8592   89.5198 C   0  0  0  0  0  0  0  0  0  0  0  0
   68.3389   73.3667   90.4721 C   0  0  0  0  0  0  0  0  0  0  0  0
   68.5516   74.7565   90.5380 C   0  0  0  0  0  0  0  0  0  0  0  0
   69.0192   72.4575   91.3570 N   0  0  0  0  0  0  0  0  0  0  0  0
   69.3988   71.6320   90.9780 H   0  0  0  0  0  0  0  0  0  0  0  0
   69.2034   72.7445   93.0598 S   0  0  0  0  0  0  0  0  0  0  0  0
   69.6695   71.4813   93.7325 O   0  0  0  0  0  0  0  0  0  0  0  0
   70.2434   73.8116   93.2619 O   0  0  0  0  0  0  0  0  0  0  0  0
   67.6463   73.3208   93.7432 C   0  0  0  0  0  0  0  0  0  0  0  0
   67.7081   74.8096   94.1159 C   0  0  0  0  0  0  0  0  0  0  0  0
   66.3118   75.4447   94.1682 C   0  0  0  0  0  0  0  0  0  0  0  0
   66.3673   76.8594   93.8053 N   0  0  0  0  0  0  0  0  0  0  0  0
   67.3621   77.5140   93.1813 C   0  0  0  0  0  0  0  0  0  0  0  0
   67.0062   78.7976   92.9867 N   0  0  0  0  0  0  0  0  0  0  0  0
   65.7856   78.9028   93.5000 N   0  0  0  0  0  0  0  0  0  0  0  0
   65.3963   77.7340   93.9922 N   0  0  0  0  0  0  0  0  0  0  0  0
   68.9166   81.2943   89.8374 C   0  0  0  0  0  0  0  0  0  0  0  0
   70.3191   81.5585   89.8761 O   0  0  0  0  0  0  0  0  0  0  0  0
   70.7472   84.7414   88.0137 C   0  0  0  0  0  0  0  0  0  0  0  0
   70.1823   83.5785   88.5757 C   0  0  0  0  0  0  0  0  0  0  0  0
   70.9468   82.7028   89.3551 C   0  0  0  0  0  0  0  0  0  0  0  0
   72.3028   82.9934   89.5807 C   0  0  0  0  0  0  0  0  0  0  0  0
   72.8753   84.1444   89.0379 C   0  0  0  0  0  0  0  0  0  0  0  0
   72.1113   85.0216   88.2568 C   0  0  0  0  0  0  0  0  0  0  0  0
   72.7127   86.1651   87.7289 O   0  0  0  0  0  0  0  0  0  0  0  0
   73.6178   86.3388   87.8979 H   0  0  0  0  0  0  0  0  0  0  0  0
   69.6229   86.7997   87.5800 O   0  0  0  0  0  0  0  0  0  0  0  0
   69.9028   85.6370   87.1795 C   0  0  0  0  0  0  0  0  0  0  0  0
   69.4024   85.2107   85.9518 O   0  0  0  0  0  0  0  0  0  0  0  0
   69.6003   84.3501   85.6386 H   0  0  0  0  0  0  0  0  0  0  0  0
 36 37  2  0  0  0
 37 38  1  0  0  0
 37 28  1  0  0  0
 28 29  2  0  0  0
 29 30  1  0  0  0
 30 27  1  0  0  0
 27 26  1  0  0  0
 26  1  1  0  0  0
  1  2  2  0  0  0
  2  3  2  0  0  0
  3  4  2  0  0  0
  4  7  1  0  0  0
  7  8  2  0  0  0
  8  9  1  0  0  0
  9 10  2  0  0  0
 10 11  1  0  0  0
 11 13  1  0  0  0
 13 15  1  0  0  0
 15 16  2  0  0  0
 15 17  2  0  0  0
 15 18  1  0  0  0
 18 19  1  0  0  0
 19 20  1  0  0  0
 20 21  1  0  0  0
 21 22  1  0  0  0
 22 23  2  0  0  0
 23 24  1  0  0  0
 24 25  2  0  0  0
 11 12  2  0  0  0
  4  5  2  0  0  0
  5  6  2  0  0  0
 30 31  2  0  0  0
 31 32  1  0  0  0
 32 33  2  0  0  0
 33 34  1  0  0  0
 33 28  1  0  0  0
  6  1  1  0  0  0
 12  7  1  0  0  0
 25 21  1  0  0  0
 38 39  1  0  0  0
 13 14  1  0  0  0
 34 35  1  0  0  0
M  END
> <score>
0.875691

> <minimizedAffinity>
-8.78383

$$$$
HIPS7015


 39 42  0  0  0  0  0  0  0  0999 V2000
   66.7262   79.2457   88.3259 C   0  0  0  0  0  0  0  0  0  0  0  0
   67.0628   78.2633   87.3886 C   0  0  0  0  0  0  0  0  0  0  0  0
   67.3721   77.0081   87.8025 N   0  0  0  0  0  0  0  0  0  0  0  0
   67.3556   76.6708   89.1219 C   0  0  0  0  0  0  0  0  0  0  0  0
   67.0168   77.6122   90.0449 N   0  0  0  0  0  0  0  0  0  0  0  0
   66.7008   78.8810   89.6764 C   0  0  0  0  0  0  0  0  0  0  0  0
   67.6878   75.2874   89.5453 C   0  0  0  0  0  0  0  0  0  0  0  0
   67.0477   74.1816   88.9557 C   0  0  0  0  0  0  0  0  0  0  0  0
   67.3666   72.8824   89.3579 C   0  0  0  0  0  0  0  0  0  0  0  0
   68.3346   72.6687   90.3419 C   0  0  0  0  0  0  0  0  0  0  0  0
   69.0005   73.7532   90.9326 C   0  0  0  0  0  0  0  0  0  0  0  0
   68.6574   75.0610   90.5414 C   0  0  0  0  0  0  0  0  0  0  0  0
   70.0164   73.5047   91.9219 N   0  0  0  0  0  0  0  0  0  0  0  0
   70.9441   73.7605   91.7141 H   0  0  0  0  0  0  0  0  0  0  0  0
   69.6869   72.7761   93.4634 S   0  0  0  0  0  0  0  0  0  0  0  0
   69.3538   71.3212   93.2682 O   0  0  0  0  0  0  0  0  0  0  0  0
   70.9175   72.8792   94.3213 O   0  0  0  0  0  0  0  0  0  0  0  0
   68.3469   73.6579   94.2698 C   0  0  0  0  0  0  0  0  0  0  0  0
   68.8475   74.9287   94.9726 C   0  0  0  0  0  0  0  0  0  0  0  0
   68.9126   76.1251   94.0133 C   0  0  0  0  0  0  0  0  0  0  0  0
   67.5954   76.7378   93.8521 N   0  0  0  0  0  0  0  0  0  0  0  0
   66.3927   76.1861   94.0901 C   0  0  0  0  0  0  0  0  0  0  0  0
   65.4259   77.0955   93.8654 N   0  0  0  0  0  0  0  0  0  0  0  0
   66.0647   78.1987   93.4920 N   0  0  0  0  0  0  0  0  0  0  0  0
   67.3742   77.9866   93.4858 N   0  0  0  0  0  0  0  0  0  0  0  0
   66.3543   80.6381   87.8934 C   0  0  0  0  0  0  0  0  0  0  0  0
   67.1124   81.6156   88.6062 O   0  0  0  0  0  0  0  0  0  0  0  0
   70.0949   83.7043   87.8816 C   0  0  0  0  0  0  0  0  0  0  0  0
   69.2428   82.7190   88.4204 C   0  0  0  0  0  0  0  0  0  0  0  0
   67.9056   82.6169   88.0201 C   0  0  0  0  0  0  0  0  0  0  0  0
   67.4076   83.5149   87.0611 C   0  0  0  0  0  0  0  0  0  0  0  0
   68.2401   84.4911   86.5124 C   0  0  0  0  0  0  0  0  0  0  0  0
   69.5789   84.5949   86.9126 C   0  0  0  0  0  0  0  0  0  0  0  0
   70.3863   85.5812   86.3442 O   0  0  0  0  0  0  0  0  0  0  0  0
   70.0315   86.1650   85.7029 H   0  0  0  0  0  0  0  0  0  0  0  0
   72.4192   84.1183   87.5422 O   0  0  0  0  0  0  0  0  0  0  0  0
   71.5052   83.7871   88.3456 C   0  0  0  0  0  0  0  0  0  0  0  0
   71.8433   83.4963   89.6648 O   0  0  0  0  0  0  0  0  0  0  0  0
   71.1772   83.2485   90.2755 H   0  0  0  0  0  0  0  0  0  0  0  0
 36 37  2  0  0  0
 37 38  1  0  0  0
 37 28  1  0  0  0
 28 29  2  0  0  0
 29 30  1  0  0  0
 30 27  1  0  0  0
 27 26  1  0  0  0
 26  1  1  0  0  0
  1  2  2  0  0  0
  2  3  2  0  0  0
  3  4  2  0  0  0
  4  7  1  0  0  0
  7  8  2  0  0  0
  8  9  1  0  0  0
  9 10  2  0  0  0
 10 11  1  0  0  0
 11 13  1  0  0  0
 13 15  1  0  0  0
 15 16  2  0  0  0
 15 17  2  0  0  0
 15 18  1  0  0  0
 18