HIPS387
     RDKit          3D

 26 27  0  0  0  0  0  0  0  0999 V2000
   68.4365   74.5082   90.8993 C   0  0  0  0  0  0  0  0  0  0  0  0
   68.5008   75.7962   90.3403 C   0  0  0  0  0  0  0  0  0  0  0  0
   69.3803   76.6496   90.9981 C   0  0  0  0  0  0  0  0  0  0  0  0
   70.0579   75.8047   92.2889 S   0  0  0  0  0  0  0  0  0  0  0  0
   69.2703   74.3425   92.0093 C   0  0  0  0  0  0  0  0  0  0  0  0
   69.5981   78.0767   90.6656 C   0  0  0  0  0  0  0  0  0  0  0  0
   68.4853   78.9372   90.6183 C   0  0  0  0  0  0  0  0  0  0  0  0
   68.6434   80.2919   90.3188 C   0  0  0  0  0  0  0  0  0  0  0  0
   69.9136   80.8071   90.0570 C   0  0  0  0  0  0  0  0  0  0  0  0
   70.1096   82.5089   89.6791 Cl  0  0  0  0  0  0  0  0  0  0  0  0
   71.0271   79.9641   90.0859 C   0  0  0  0  0  0  0  0  0  0  0  0
   70.8814   78.6028   90.3835 C   0  0  0  0  0  0  0  0  0  0  0  0
   72.3220   77.5937   90.3020 Cl  0  0  0  0  0  0  0  0  0  0  0  0
   66.8719   72.2895   88.2762 N   0  0  0  0  0  0  0  0  0  0  0  0
   67.1662   73.5062   88.9752 C   0  0  0  0  0  0  0  0  0  0  0  0
   66.9988   74.6206   88.4083 O   0  0  0  0  0  0  0  0  0  0  0  0
   67.6512   73.4537   90.3228 N   0  0  0  0  0  0  0  0  0  0  0  0
   66.6052   72.2499   86.8382 C   0  0  0  0  0  0  0  0  0  0  0  0
   67.3038   71.0501   86.1786 C   0  0  0  0  0  0  0  0  0  0  0  0
   67.4745   71.1751   84.6531 C   0  0  0  0  0  0  0  0  0  0  0  0
   66.5488   70.2268   83.8711 C   0  0  0  0  0  0  0  0  0  0  0  0
   64.7840   70.1386   82.0267 C   0  0  0  0  0  0  0  0  0  0  0  0
   65.4252   70.9734   83.1343 C   0  0  0  0  0  0  0  0  0  0  0  0
   69.4198   73.1470   92.8562 C   0  0  0  0  0  0  0  0  0  0  0  0
   68.4635   72.3334   92.9621 O   0  0  0  0  0  0  0  0  0  0  0  0
   70.6128   72.8917   93.5243 O   0  0  0  0  0  0  0  0  0  0  0  0
 22 23  1  0
 23 21  1  0
 21 20  1  0
 20 19  1  0
 19 18  1  0
 18 14  1  0
 14 15  1  0
 15 16  2  0
 15 17  1  0
 17  1  1  0
  1  2  1  0
  2  3  2  0
  3  6  1  0
  6  7  2  0
  7  8  1  0
  8  9  2  0
  9 10  1  0
  9 11  1  0
 11 12  2  0
 12 13  1  0
  3  4  1  0
  4  5  1  0
  5 24  1  0
 24 25  2  0
 24 26  1  0
  5  1  2  0
 12  6  1  0
M  END
>  <score>  (1) 
-0.51975

>  <minimizedAffinity>  (1) 
-7.49163

>  <CNNscore>  (1) 
0.5255396366

>  <CNNaffinity>  (1) 
5.9730491638

>  <CNN_VS>  (1) 
3.1390740871

>  <MorganFP>  (1) 
<rdkit.DataStructs.cDataStructs.ExplicitBitVect object at 0x7ff72be732e0>

$$$$
HIPS407
     RDKit          3D

 29 30  0  0  0  0  0  0  0  0999 V2000
   68.3241   77.8369   91.0219 C   0  0  0  0  0  0  0  0  0  0  0  0
   68.4270   79.1768   90.6059 C   0  0  0  0  0  0  0  0  0  0  0  0
   69.7246   79.5681   90.2793 C   0  0  0  0  0  0  0  0  0  0  0  0
   70.7365   78.2423   90.5290 S   0  0  0  0  0  0  0  0  0  0  0  0
   69.5494   77.1652   91.0417 C   0  0  0  0  0  0  0  0  0  0  0  0
   70.1549   80.9141   89.8208 C   0  0  0  0  0  0  0  0  0  0  0  0
   71.4039   81.4260   90.2067 C   0  0  0  0  0  0  0  0  0  0  0  0
   71.8120   82.6915   89.7862 C   0  0  0  0  0  0  0  0  0  0  0  0
   70.9869   83.4702   88.9707 C   0  0  0  0  0  0  0  0  0  0  0  0
   71.5687   85.0600   88.4834 Cl  0  0  0  0  0  0  0  0  0  0  0  0
   69.7289   82.9762   88.5605 C   0  0  0  0  0  0  0  0  0  0  0  0
   69.3271   81.6962   88.9924 C   0  0  0  0  0  0  0  0  0  0  0  0
   68.8268   83.8065   87.6713 C   0  0  0  0  0  0  0  0  0  0  0  0
   68.4256   84.9437   88.3489 F   0  0  0  0  0  0  0  0  0  0  0  0
   69.4662   84.1994   86.5079 F   0  0  0  0  0  0  0  0  0  0  0  0
   67.7110   83.0671   87.3231 F   0  0  0  0  0  0  0  0  0  0  0  0
   65.8781   76.1861   93.3556 N   0  0  0  0  0  0  0  0  0  0  0  0
   66.7309   77.2282   92.8659 C   0  0  0  0  0  0  0  0  0  0  0  0
   67.1644   78.1150   93.6513 O   0  0  0  0  0  0  0  0  0  0  0  0
   67.0900   77.2628   91.4795 N   0  0  0  0  0  0  0  0  0  0  0  0
   65.8520   75.7947   94.7652 C   0  0  0  0  0  0  0  0  0  0  0  0
   66.0949   74.2857   94.9199 C   0  0  0  0  0  0  0  0  0  0  0  0
   67.3709   73.9233   95.7071 C   0  0  0  0  0  0  0  0  0  0  0  0
   68.6905   74.3411   95.0339 C   0  0  0  0  0  0  0  0  0  0  0  0
   69.7219   72.5203   93.6240 C   0  0  0  0  0  0  0  0  0  0  0  0
   69.7223   73.2058   94.9876 C   0  0  0  0  0  0  0  0  0  0  0  0
   69.8034   75.7571   91.3907 C   0  0  0  0  0  0  0  0  0  0  0  0
   70.7932   75.4613   92.1121 O   0  0  0  0  0  0  0  0  0  0  0  0
   68.9771   74.7449   90.9138 O   0  0  0  0  0  0  0  0  0  0  0  0
 25 26  1  0
 26 24  1  0
 24 23  1  0
 23 22  1  0
 22 21  1  0
 21 17  1  0
 17 18  1  0
 18 19  2  0
 18 20  1  0
 20  1  1  0
  1  2  1  0
  2  3  2  0
  3  6  1  0
  6  7  2  0
  7  8  1  0
  8  9  2  0
  9 10  1  0
  9 11  1  0
 11 13  1  0
 13 14  1  0
 13 15  1  0
 13 16  1  0
 11 12  2  0
  3  4  1  0
  4  5  1  0
  5 27  1  0
 27 28  2  0
 27 29  1  0
  5  1  2  0
 12  6  1  0
M  END
>  <score>  (2) 
-0.415373

>  <minimizedAffinity>  (2) 
-7.15664

>  <CNNscore>  (2) 
0.3782809675

>  <CNNaffinity>  (2) 
6.1739511490

>  <CNN_VS>  (2) 
2.3354883194

>  <MorganFP>  (2) 
<rdkit.DataStructs.cDataStructs.ExplicitBitVect object at 0x7ff72be734a0>

$$$$
HIPS408
     RDKit          3D

 28 30  0  0  0  0  0  0  0  0999 V2000
   69.3055   78.2768   90.4771 C   0  0  0  0  0  0  0  0  0  0  0  0
   68.9105   79.5297   89.9729 C   0  0  0  0  0  0  0  0  0  0  0  0
   69.9458   80.4593   89.8946 C   0  0  0  0  0  0  0  0  0  0  0  0
   71.3472   79.7148   90.4630 S   0  0  0  0  0  0  0  0  0  0  0  0
   70.6640   78.2171   90.8069 C   0  0  0  0  0  0  0  0  0  0  0  0
   69.8376   81.8661   89.4323 C   0  0  0  0  0  0  0  0  0  0  0  0
   68.5807   82.4695   89.2402 C   0  0  0  0  0  0  0  0  0  0  0  0
   68.4881   83.7972   88.8163 C   0  0  0  0  0  0  0  0  0  0  0  0
   69.6440   84.5434   88.5718 C   0  0  0  0  0  0  0  0  0  0  0  0
   69.4849   86.2118   88.0395 Cl  0  0  0  0  0  0  0  0  0  0  0  0
   70.9045   83.9523   88.7512 C   0  0  0  0  0  0  0  0  0  0  0  0
   72.3840   84.8553   88.4537 Cl  0  0  0  0  0  0  0  0  0  0  0  0
   70.9967   82.6219   89.1772 C   0  0  0  0  0  0  0  0  0  0  0  0
   67.4216   78.1260   92.6657 O   0  0  0  0  0  0  0  0  0  0  0  0
   67.6303   77.1036   91.9570 C   0  0  0  0  0  0  0  0  0  0  0  0
   67.1164   75.8288   92.3650 N   0  0  0  0  0  0  0  0  0  0  0  0
   68.3743   77.2126   90.7359 N   0  0  0  0  0  0  0  0  0  0  0  0
   66.6833   75.5633   93.7367 C   0  0  0  0  0  0  0  0  0  0  0  0
   66.4997   74.0590   93.9673 C   0  0  0  0  0  0  0  0  0  0  0  0
   67.7295   73.2757   93.5809 C   0  0  0  0  0  0  0  0  0  0  0  0
   67.7008   72.4047   92.4778 C   0  0  0  0  0  0  0  0  0  0  0  0
   68.8480   71.6946   92.1104 C   0  0  0  0  0  0  0  0  0  0  0  0
   70.0327   71.8545   92.8341 C   0  0  0  0  0  0  0  0  0  0  0  0
   70.0743   72.7312   93.9216 C   0  0  0  0  0  0  0  0  0  0  0  0
   68.9282   73.4409   94.2948 C   0  0  0  0  0  0  0  0  0  0  0  0
   71.4259   77.0681   91.3249 C   0  0  0  0  0  0  0  0  0  0  0  0
   72.6247   76.8818   90.9868 O   0  0  0  0  0  0  0  0  0  0  0  0
   70.8210   76.1900   92.2189 O   0  0  0  0  0  0  0  0  0  0  0  0
 14 15  2  0
 15 16  1  0
 16 18  1  0
 18 19  1  0
 19 20  1  0
 20 21  2  0
 21 22  1  0
 22 23  2  0
 23 24  1  0
 24 25  2  0
 15 17  1  0
 17  1  1  0
  1  2  1  0
  2  3  2  0
  3  6  1  0
  6  7  2  0
  7  8  1  0
  8  9  2  0
  9 10  1  0
  9 11  1  0
 11 12  1  0
 11 13  2  0
  3  4  1  0
  4  5  1  0
  5 26  1  0
 26 27  2  0
 26 28  1  0
 25 20  1  0
  5  1  2  0
 13  6  1  0
M  END
>  <score>  (3) 
-0.565669

>  <minimizedAffinity>  (3) 
-7.53065

>  <CNNscore>  (3) 
0.6170910001

>  <CNNaffinity>  (3) 
6.1577033997

>  <CNN_VS>  (3) 
3.7998633385

>  <MorganFP>  (3) 
<rdkit.DataStructs.cDataStructs.ExplicitBitVect object at 0x7ff72be73580>

$$$$
HIPS408
     RDKit          3D

 28 30  0  0  0  0  0  0  0  0999 V2000
   69.1259   78.2890   90.5506 C   0  0  0  0  0  0  0  0  0  0  0  0
   68.7569   79.5561   90.0623 C   0  0  0  0  0  0  0  0  0  0  0  0
   69.8291   80.4291   89.8887 C   0  0  0  0  0  0  0  0  0  0  0  0
   71.2314   79.6175   90.3534 S   0  0  0  0  0  0  0  0  0  0  0  0
   70.5016   78.1612   90.7715 C   0  0  0  0  0  0  0  0  0  0  0  0
   69.7568   81.8352   89.4171 C   0  0  0  0  0  0  0  0  0  0  0  0
   70.7493   82.7684   89.7705 C   0  0  0  0  0  0  0  0  0  0  0  0
   70.6797   84.0862   89.3128 C   0  0  0  0  0  0  0  0  0  0  0  0
   69.6192   84.4975   88.5011 C   0  0  0  0  0  0  0  0  0  0  0  0
   69.5678   86.1651   87.9456 Cl  0  0  0  0  0  0  0  0  0  0  0  0
   68.6175   83.5799   88.1473 C   0  0  0  0  0  0  0  0  0  0  0  0
   67.2652   84.0562   87.1289 Cl  0  0  0  0  0  0  0  0  0  0  0  0
   68.6884   82.2588   88.6054 C   0  0  0  0  0  0  0  0  0  0  0  0
   67.3259   78.3230   92.8134 O   0  0  0  0  0  0  0  0  0  0  0  0
   67.4662   77.2594   92.1499 C   0  0  0  0  0  0  0  0  0  0  0  0
   66.9195   76.0282   92.6408 N   0  0  0  0  0  0  0  0  0  0  0  0
   68.1649   77.2778   90.8978 N   0  0  0  0  0  0  0  0  0  0  0  0
   66.5312   75.8482   94.0395 C   0  0  0  0  0  0  0  0  0  0  0  0
   67.5699   75.0051   94.7880 C   0  0  0  0  0  0  0  0  0  0  0  0
   68.1233   73.8978   93.9261 C   0  0  0  0  0  0  0  0  0  0  0  0
   69.4964   73.5974   93.9486 C   0  0  0  0  0  0  0  0  0  0  0  0
   70.0035   72.5575   93.1630 C   0  0  0  0  0  0  0  0  0  0  0  0
   69.1445   71.8053   92.3573 C   0  0  0  0  0  0  0  0  0  0  0  0
   67.7757   72.0865   92.3421 C   0  0  0  0  0  0  0  0  0  0  0  0
   67.2647   73.1279   93.1237 C   0  0  0  0  0  0  0  0  0  0  0  0
   71.2424   76.9786   91.2426 C   0  0  0  0  0  0  0  0  0  0  0  0
   70.6356   75.9816   91.7157 O   0  0  0  0  0  0  0  0  0  0  0  0
   72.6300   76.9523   91.1412 O   0  0  0  0  0  0  0  0  0  0  0  0
 14 15  2  0
 15 16  1  0
 16 18  1  0
 18 19  1  0
 19 20  1  0
 20 21  2  0
 21 22  1  0
 22 23  2  0
 23 24  1  0
 24 25  2  0
 15 17  1  0
 17  1  1  0
  1  2  1  0
  2  3  2  0
  3  6  1  0
  6  7  2  0
  7  8  1  0
  8  9  2  0
  9 10  1  0
  9 11  1  0
 11 12  1  0
 11 13  2  0
  3  4  1  0
  4  5  1  0
  5 26  1  0
 26 27  2  0
 26 28  1  0
 25 20  1  0
  5  1  2  0
 13  6  1  0
M  END
>  <score>  (4) 
-0.565669

>  <minimizedAffinity>  (4) 
-7.48907

>  <CNNscore>  (4) 
0.5944637656

>  <CNNaffinity>  (4) 
6.2447147369

>  <CNN_VS>  (4) 
3.7122566700

>  <MorganFP>  (4) 
<rdkit.DataStructs.cDataStructs.ExplicitBitVect object at 0x7ff72be73660>

$$$$
HIPS435
     RDKit          3D

 28 30  0  0  0  0  0  0  0  0999 V2000
   66.9687   80.3713   89.1717 C   0  0  0  0  0  0  0  0  0  0  0  0
   68.0347   81.1025   88.6157 C   0  0  0  0  0  0  0  0  0  0  0  0
   68.2464   82.3409   89.2240 C   0  0  0  0  0  0  0  0  0  0  0  0
   67.0968   82.5122   90.4455 S   0  0  0  0  0  0  0  0  0  0  0  0
   66.3242   81.0371   90.2197 C   0  0  0  0  0  0  0  0  0  0  0  0
   69.2832   83.3450   88.8686 C   0  0  0  0  0  0  0  0  0  0  0  0
   68.9505   84.5141   88.1582 C   0  0  0  0  0  0  0  0  0  0  0  0
   69.9342   85.4505   87.8305 C   0  0  0  0  0  0  0  0  0  0  0  0
   71.2639   85.2402   88.2049 C   0  0  0  0  0  0  0  0  0  0  0  0
   72.4718   86.4430   87.7734 Cl  0  0  0  0  0  0  0  0  0  0  0  0
   71.6107   84.0811   88.9161 C   0  0  0  0  0  0  0  0  0  0  0  0
   73.2721   83.7774   89.4067 Cl  0  0  0  0  0  0  0  0  0  0  0  0
   70.6248   83.1432   89.2448 C   0  0  0  0  0  0  0  0  0  0  0  0
   67.0562   76.6998   88.1606 N   0  0  0  0  0  0  0  0  0  0  0  0
   67.1579   77.8620   89.0131 C   0  0  0  0  0  0  0  0  0  0  0  0
   67.7902   77.7812   90.1026 O   0  0  0  0  0  0  0  0  0  0  0  0
   66.5385   79.1055   88.6463 N   0  0  0  0  0  0  0  0  0  0  0  0
   67.2522   75.3859   88.7252 C   0  0  0  0  0  0  0  0  0  0  0  0
   66.6753   74.2513   88.1257 C   0  0  0  0  0  0  0  0  0  0  0  0
   66.8701   72.9828   88.6808 C   0  0  0  0  0  0  0  0  0  0  0  0
   67.6395   72.8343   89.8374 C   0  0  0  0  0  0  0  0  0  0  0  0
   68.2158   73.9545   90.4414 C   0  0  0  0  0  0  0  0  0  0  0  0
   68.0241   75.2248   89.8897 C   0  0  0  0  0  0  0  0  0  0  0  0
   68.0875   77.3357   86.0056 C   0  0  0  0  0  0  0  0  0  0  0  0
   66.8270   76.8444   86.7135 C   0  0  0  0  0  0  0  0  0  0  0  0
   65.2066   80.5617   91.0531 C   0  0  0  0  0  0  0  0  0  0  0  0
   64.0142   80.6796   90.6655 O   0  0  0  0  0  0  0  0  0  0  0  0
   65.4729   79.9515   92.2752 O   0  0  0  0  0  0  0  0  0  0  0  0
 24 25  1  0
 25 14  1  0
 14 15  1  0
 15 16  2  0
 15 17  1  0
 17  1  1  0
  1  2  1  0
  2  3  2  0
  3  6  1  0
  6  7  2  0
  7  8  1  0
  8  9  2  0
  9 10  1  0
  9 11  1  0
 11 12  1  0
 11 13  2  0
  3  4  1  0
  4  5  1  0
  5 26  1  0
 26 27  2  0
 26 28  1  0
 14 18  1  0
 18 19  2  0
 19 20  1  0
 20 21  2  0
 21 22  1  0
 22 23  2  0
  5  1  2  0
 23 18  1  0
 13  6  1  0
M  END
>  <score>  (5) 
-0.57467

>  <minimizedAffinity>  (5) 
-8.33012

>  <CNNscore>  (5) 
0.5586650372

>  <CNNaffinity>  (5) 
6.5593042374

>  <CNN_VS>  (5) 
3.6644539833

>  <MorganFP>  (5) 
<rdkit.DataStructs.cDataStructs.ExplicitBitVect object at 0x7ff72c603200>

$$$$
HIPS435
     RDKit          3D

 28 30  0  0  0  0  0  0  0  0999 V2000
   68.0803   73.7753   92.6224 C   0  0  0  0  0  0  0  0  0  0  0  0
   68.1482   74.5728   91.4650 C   0  0  0  0  0  0  0  0  0  0  0  0
   67.4818   75.7938   91.5822 C   0  0  0  0  0  0  0  0  0  0  0  0
   66.8102   75.8619   93.1273 S   0  0  0  0  0  0  0  0  0  0  0  0
   67.3475   74.3614   93.6598 C   0  0  0  0  0  0  0  0  0  0  0  0
   67.3644   76.8506   90.5436 C   0  0  0  0  0  0  0  0  0  0  0  0
   67.1864   78.2016   90.8972 C   0  0  0  0  0  0  0  0  0  0  0  0
   67.0777   79.1857   89.9114 C   0  0  0  0  0  0  0  0  0  0  0  0
   67.1455   78.8424   88.5586 C   0  0  0  0  0  0  0  0  0  0  0  0
   67.0045   80.1108   87.3489 Cl  0  0  0  0  0  0  0  0  0  0  0  0
   67.3257   77.5003   88.1903 C   0  0  0  0  0  0  0  0  0  0  0  0
   67.4164   77.0249   86.4994 Cl  0  0  0  0  0  0  0  0  0  0  0  0
   67.4351   76.5145   89.1782 C   0  0  0  0  0  0  0  0  0  0  0  0
   70.6684   70.9809   92.6804 N   0  0  0  0  0  0  0  0  0  0  0  0
   70.0007   72.2028   93.0664 C   0  0  0  0  0  0  0  0  0  0  0  0
   70.6197   73.0587   93.7573 O   0  0  0  0  0  0  0  0  0  0  0  0
   68.6375   72.4528   92.6873 N   0  0  0  0  0  0  0  0  0  0  0  0
   71.8169   70.5320   93.4307 C   0  0  0  0  0  0  0  0  0  0  0  0
   73.1148   70.6527   92.9012 C   0  0  0  0  0  0  0  0  0  0  0  0
   74.2210   70.2140   93.6355 C   0  0  0  0  0  0  0  0  0  0  0  0
   74.0435   69.6510   94.9016 C   0  0  0  0  0  0  0  0  0  0  0  0
   72.7589   69.5255   95.4363 C   0  0  0  0  0  0  0  0  0  0  0  0
   71.6499   69.9631   94.7060 C   0  0  0  0  0  0  0  0  0  0  0  0
   69.9161   68.7789   91.8453 C   0  0  0  0  0  0  0  0  0  0  0  0
   70.2359   70.2292   91.4907 C   0  0  0  0  0  0  0  0  0  0  0  0
   67.1055   73.8384   95.0154 C   0  0  0  0  0  0  0  0  0  0  0  0
   65.9532   73.8644   95.5230 O   0  0  0  0  0  0  0  0  0  0  0  0
   68.1597   73.2856   95.7362 O   0  0  0  0  0  0  0  0  0  0  0  0
 24 25  1  0
 25 14  1  0
 14 15  1  0
 15 16  2  0
 15 17  1  0
 17  1  1  0
  1  2  1  0
  2  3  2  0
  3  6  1  0
  6  7  2  0
  7  8  1  0
  8  9  2  0
  9 10  1  0
  9 11  1  0
 11 12  1  0
 11 13  2  0
  3  4  1  0
  4  5  1  0
  5 26  1  0
 26 27  2  0
 26 28  1  0
 14 18  1  0
 18 19  2  0
 19 20  1  0
 20 21  2  0
 21 22  1  0
 22 23  2  0
  5  1  2  0
 23 18  1  0
 13  6  1  0
M  END
>  <score>  (6) 
-0.57467

>  <minimizedAffinity>  (6) 
-7.83856

>  <CNNscore>  (6) 
0.4209777117

>  <CNNaffinity>  (6) 
6.1918354034

>  <CNN_VS>  (6) 
2.6066246033

>  <MorganFP>  (6) 
<rdkit.DataStructs.cDataStructs.ExplicitBitVect object at 0x7ff72c603190>

$$$$
HIPS435
     RDKit          3D

 28 30  0  0  0  0  0  0  0  0999 V2000
   67.5034   80.5937   89.5916 C   0  0  0  0  0  0  0  0  0  0  0  0
   68.4480   81.3749   88.9004 C   0  0  0  0  0  0  0  0  0  0  0  0
   68.8385   82.5255   89.5874 C   0  0  0  0  0  0  0  0  0  0  0  0
   67.9960   82.5583   91.0476 S   0  0  0  0  0  0  0  0  0  0  0  0
   67.1342   81.1323   90.8287 C   0  0  0  0  0  0  0  0  0  0  0  0
   69.8100   83.5530   89.1293 C   0  0  0  0  0  0  0  0  0  0  0  0
   71.1300   83.2043   88.7858 C   0  0  0  0  0  0  0  0  0  0  0  0
   72.0336   84.1794   88.3562 C   0  0  0  0  0  0  0  0  0  0  0  0
   71.6389   85.5163   88.2599 C   0  0  0  0  0  0  0  0  0  0  0  0
   72.8064   86.7130   87.7148 Cl  0  0  0  0  0  0  0  0  0  0  0  0
   70.3255   85.8792   88.5958 C   0  0  0  0  0  0  0  0  0  0  0  0
   69.7874   87.5502   88.4890 Cl  0  0  0  0  0  0  0  0  0  0  0  0
   69.4202   84.9019   89.0258 C   0  0  0  0  0  0  0  0  0  0  0  0
   67.1727   77.0074   88.3507 N   0  0  0  0  0  0  0  0  0  0  0  0
   67.4520   78.0946   89.2607 C   0  0  0  0  0  0  0  0  0  0  0  0
   68.1665   77.8851   90.2799 O   0  0  0  0  0  0  0  0  0  0  0  0
   66.9173   79.4082   89.0306 N   0  0  0  0  0  0  0  0  0  0  0  0
   67.2981   75.6455   88.8122 C   0  0  0  0  0  0  0  0  0  0  0  0
   68.0429   75.3422   89.9667 C   0  0  0  0  0  0  0  0  0  0  0  0
   68.1592   74.0196   90.4052 C   0  0  0  0  0  0  0  0  0  0  0  0
   67.5361   72.9889   89.6973 C   0  0  0  0  0  0  0  0  0  0  0  0
   66.7952   73.2789   88.5490 C   0  0  0  0  0  0  0  0  0  0  0  0
   66.6757   74.5999   88.1070 C   0  0  0  0  0  0  0  0  0  0  0  0
   68.0930   77.4182   86.0933 C   0  0  0  0  0  0  0  0  0  0  0  0
   66.8328   77.2715   86.9428 C   0  0  0  0  0  0  0  0  0  0  0  0
   66.2111   80.5711   91.8299 C   0  0  0  0  0  0  0  0  0  0  0  0
   66.5980   80.3304   93.0040 O   0  0  0  0  0  0  0  0  0  0  0  0
   64.8865   80.3260   91.4811 O   0  0  0  0  0  0  0  0  0  0  0  0
 24 25  1  0
 25 14  1  0
 14 15  1  0
 15 16  2  0
 15 17  1  0
 17  1  1  0
  1  2  1  0
  2  3  2  0
  3  6  1  0
  6  7  2  0
  7  8  1  0
  8  9  2  0
  9 10  1  0
  9 11  1  0
 11 12  1  0
 11 13  2  0
  3  4  1  0
  4  5  1  0
  5 26  1  0
 26 27  2  0
 26 28  1  0
 14 18  1  0
 18 19  2  0
 19 20  1  0
 20 21  2  0
 21 22  1  0
 22 23  2  0
  5  1  2  0
 23 18  1  0
 13  6  1  0
M  END
>  <score>  (7) 
-0.57467

>  <minimizedAffinity>  (7) 
-7.93283

>  <CNNscore>  (7) 
0.4191150367

>  <CNNaffinity>  (7) 
6.3630695343

>  <CNN_VS>  (7) 
2.6668581963

>  <MorganFP>  (7) 
<rdkit.DataStructs.cDataStructs.ExplicitBitVect object at 0x7ff72c603ba0>

$$$$
HIPS495
     RDKit          3D

 26 27  0  0  0  0  0  0  0  0999 V2000
   69.2382   78.2274   90.7365 C   0  0  0  0  0  0  0  0  0  0  0  0
   68.8516   79.7479   90.1447 S   0  0  0  0  0  0  0  0  0  0  0  0
   70.4361   80.3220   90.0539 C   0  0  0  0  0  0  0  0  0  0  0  0
   71.2901   79.3024   90.4849 C   0  0  0  0  0  0  0  0  0  0  0  0
   70.6272   78.1192   90.8555 C   0  0  0  0  0  0  0  0  0  0  0  0
   70.8326   81.6757   89.5864 C   0  0  0  0  0  0  0  0  0  0  0  0
   72.1097   82.1834   89.8876 C   0  0  0  0  0  0  0  0  0  0  0  0
   72.4910   83.4548   89.4517 C   0  0  0  0  0  0  0  0  0  0  0  0
   71.6060   84.2426   88.7112 C   0  0  0  0  0  0  0  0  0  0  0  0
   72.1234   85.8375   88.1811 Cl  0  0  0  0  0  0  0  0  0  0  0  0
   70.3267   83.7523   88.4065 C   0  0  0  0  0  0  0  0  0  0  0  0
   69.1797   84.7149   87.4839 Cl  0  0  0  0  0  0  0  0  0  0  0  0
   69.9451   82.4778   88.8430 C   0  0  0  0  0  0  0  0  0  0  0  0
   66.5683   76.2214   92.5679 N   0  0  0  0  0  0  0  0  0  0  0  0
   67.5130   77.2633   92.2887 C   0  0  0  0  0  0  0  0  0  0  0  0
   67.6746   78.2084   93.1090 O   0  0  0  0  0  0  0  0  0  0  0  0
   68.2616   77.2334   91.0662 N   0  0  0  0  0  0  0  0  0  0  0  0
   65.7597   76.1967   93.7852 C   0  0  0  0  0  0  0  0  0  0  0  0
   65.8069   74.8068   94.4310 C   0  0  0  0  0  0  0  0  0  0  0  0
   66.6833   74.7621   95.6941 C   0  0  0  0  0  0  0  0  0  0  0  0
   67.9088   73.8330   95.5648 C   0  0  0  0  0  0  0  0  0  0  0  0
   69.3768   75.8325   95.0877 C   0  0  0  0  0  0  0  0  0  0  0  0
   68.9908   74.4231   94.6484 C   0  0  0  0  0  0  0  0  0  0  0  0
   71.3612   76.8958   91.2359 C   0  0  0  0  0  0  0  0  0  0  0  0
   72.6159   76.8406   91.1349 O   0  0  0  0  0  0  0  0  0  0  0  0
   70.6674   75.8021   91.7454 O   0  0  0  0  0  0  0  0  0  0  0  0
 22 23  1  0
 23 21  1  0
 21 20  1  0
 20 19  1  0
 19 18  1  0
 18 14  1  0
 14 15  1  0
 15 16  2  0
 15 17  1  0
 17  1  1  0
  1  2  1  0
  2  3  1  0
  3  6  1  0
  6  7  2  0
  7  8  1  0
  8  9  2  0
  9 10  1  0
  9 11  1  0
 11 12  1  0
 11 13  2  0
  3  4  2  0
  4  5  1  0
  5 24  1  0
 24 25  2  0
 24 26  1  0
  5  1  2  0
 13  6  1  0
M  END
>  <score>  (8) 
0.554324

>  <minimizedAffinity>  (8) 
-7.24112

>  <CNNscore>  (8) 
0.6606259346

>  <CNNaffinity>  (8) 
6.0769710541

>  <CNN_VS>  (8) 
4.0146045685

>  <MorganFP>  (8) 
<rdkit.DataStructs.cDataStructs.ExplicitBitVect object at 0x7ff72c4e92e0>

$$$$
HIPS495
     RDKit          3D

 26 27  0  0  0  0  0  0  0  0999 V2000
   67.3159   74.7045   89.2870 C   0  0  0  0  0  0  0  0  0  0  0  0
   66.7032   76.1679   88.7438 S   0  0  0  0  0  0  0  0  0  0  0  0
   67.5439   77.1404   89.8372 C   0  0  0  0  0  0  0  0  0  0  0  0
   68.3299   76.3080   90.6397 C   0  0  0  0  0  0  0  0  0  0  0  0
   68.2190   74.9416   90.3278 C   0  0  0  0  0  0  0  0  0  0  0  0
   67.4558   78.6220   89.9112 C   0  0  0  0  0  0  0  0  0  0  0  0
   67.4333   79.2689   91.1605 C   0  0  0  0  0  0  0  0  0  0  0  0
   67.3512   80.6613   91.2394 C   0  0  0  0  0  0  0  0  0  0  0  0
   67.2873   81.4323   90.0758 C   0  0  0  0  0  0  0  0  0  0  0  0
   67.1844   83.1820   90.2172 Cl  0  0  0  0  0  0  0  0  0  0  0  0
   67.3040   80.8017   88.8220 C   0  0  0  0  0  0  0  0  0  0  0  0
   67.2172   81.7345   87.3335 Cl  0  0  0  0  0  0  0  0  0  0  0  0
   67.3871   79.4062   88.7434 C   0  0  0  0  0  0  0  0  0  0  0  0
   66.3439   71.9280   86.8678 N   0  0  0  0  0  0  0  0  0  0  0  0
   66.7536   73.2183   87.3401 C   0  0  0  0  0  0  0  0  0  0  0  0
   66.9675   74.1541   86.5211 O   0  0  0  0  0  0  0  0  0  0  0  0
   66.9330   73.4352   88.7460 N   0  0  0  0  0  0  0  0  0  0  0  0
   66.1576   71.6312   85.4488 C   0  0  0  0  0  0  0  0  0  0  0  0
   67.5116   71.3941   84.7694 C   0  0  0  0  0  0  0  0  0  0  0  0
   67.7796   69.9097   84.4688 C   0  0  0  0  0  0  0  0  0  0  0  0
   67.5928   68.9868   85.6915 C   0  0  0  0  0  0  0  0  0  0  0  0
   69.3370   69.1859   87.5078 C   0  0  0  0  0  0  0  0  0  0  0  0
   68.9306   68.4581   86.2297 C   0  0  0  0  0  0  0  0  0  0  0  0
   69.0492   73.9164   90.9911 C   0  0  0  0  0  0  0  0  0  0  0  0
   68.7768   72.6920   90.8722 O   0  0  0  0  0  0  0  0  0  0  0  0
   70.1665   74.3001   91.7273 O   0  0  0  0  0  0  0  0  0  0  0  0
 22 23  1  0
 23 21  1  0
 21 20  1  0
 20 19  1  0
 19 18  1  0
 18 14  1  0
 14 15  1  0
 15 16  2  0
 15 17  1  0
 17  1  1  0
  1  2  1  0
  2  3  1  0
  3  6  1  0
  6  7  2  0
  7  8  1  0
  8  9  2  0
  9 10  1  0
  9 11  1  0
 11 12  1  0
 11 13  2  0
  3  4  2  0
  4  5  1  0
  5 24  1  0
 24 25  2  0
 24 26  1  0
  5  1  2  0
 13  6  1  0
M  END
>  <score>  (9) 
0.554324

>  <minimizedAffinity>  (9) 
-6.68160

>  <CNNscore>  (9) 
0.5573691130

>  <CNNaffinity>  (9) 
6.2361240387

>  <CNN_VS>  (9) 
3.4758229256

>  <MorganFP>  (9) 
<rdkit.DataStructs.cDataStructs.ExplicitBitVect object at 0x7ff72c4e9190>

$$$$
HIPS495
     RDKit          3D

 26 27  0  0  0  0  0  0  0  0999 V2000
   69.3477   78.2067   90.6282 C   0  0  0  0  0  0  0  0  0  0  0  0
   68.9234   79.6888   89.9686 S   0  0  0  0  0  0  0  0  0  0  0  0
   70.4657   80.3710   90.0333 C   0  0  0  0  0  0  0  0  0  0  0  0
   71.3366   79.4193   90.5721 C   0  0  0  0  0  0  0  0  0  0  0  0
   70.7203   78.1975   90.8948 C   0  0  0  0  0  0  0  0  0  0  0  0
   70.8164   81.7431   89.5828 C   0  0  0  0  0  0  0  0  0  0  0  0
   72.0998   82.2637   89.8305 C   0  0  0  0  0  0  0  0  0  0  0  0
   72.4382   83.5523   89.4102 C   0  0  0  0  0  0  0  0  0  0  0  0
   71.5035   84.3447   88.7388 C   0  0  0  0  0  0  0  0  0  0  0  0
   71.9680   85.9614   88.2261 Cl  0  0  0  0  0  0  0  0  0  0  0  0
   70.2174   83.8415   88.4882 C   0  0  0  0  0  0  0  0  0  0  0  0
   69.0089   84.8090   87.6535 Cl  0  0  0  0  0  0  0  0  0  0  0  0
   69.8789   82.5497   88.9090 C   0  0  0  0  0  0  0  0  0  0  0  0
   66.9551   75.7983   92.3550 N   0  0  0  0  0  0  0  0  0  0  0  0
   67.8689   76.8884   92.1744 C   0  0  0  0  0  0  0  0  0  0  0  0
   68.1833   77.6203   93.1530 O   0  0  0  0  0  0  0  0  0  0  0  0
   68.4117   77.1512   90.8735 N   0  0  0  0  0  0  0  0  0  0  0  0
   66.3510   75.4828   93.6480 C   0  0  0  0  0  0  0  0  0  0  0  0
   66.3872   73.9709   93.9010 C   0  0  0  0  0  0  0  0  0  0  0  0
   67.6741   73.3071   93.3825 C   0  0  0  0  0  0  0  0  0  0  0  0
   67.4423   72.3531   92.1917 C   0  0  0  0  0  0  0  0  0  0  0  0
   67.7652   73.2957   89.8705 C   0  0  0  0  0  0  0  0  0  0  0  0
   68.4385   72.5983   91.0488 C   0  0  0  0  0  0  0  0  0  0  0  0
   71.4915   77.0334   91.3748 C   0  0  0  0  0  0  0  0  0  0  0  0
   72.6567   76.8135   90.9488 O   0  0  0  0  0  0  0  0  0  0  0  0
   70.9431   76.1874   92.3344 O   0  0  0  0  0  0  0  0  0  0  0  0
 22 23  1  0
 23 21  1  0
 21 20  1  0
 20 19  1  0
 19 18  1  0
 18 14  1  0
 14 15  1  0
 15 16  2  0
 15 17  1  0
 17  1  1  0
  1  2  1  0
  2  3  1  0
  3  6  1  0
  6  7  2  0
  7  8  1  0
  8  9  2  0
  9 10  1  0
  9 11  1  0
 11 12  1  0
 11 13  2  0
  3  4  2  0
  4  5  1  0
  5 24  1  0
 24 25  2  0
 24 26  1  0
  5  1  2  0
 13  6  1  0
M  END
>  <score>  (10) 
0.554324

>  <minimizedAffinity>  (10) 
-7.28222

>  <CNNscore>  (10) 
0.5466753840

>  <CNNaffinity>  (10) 
6.0352144241

>  <CNN_VS>  (10) 
3.2993030548

>  <MorganFP>  (10) 
<rdkit.DataStructs.cDataStructs.ExplicitBitVect object at 0x7ff72c4e9ba0>

$$$$
HIPS5024
     RDKit          3D

 25 27  0  0  0  0  0  0  0  0999 V2000
   68.0474   78.1635   89.0440 N   0  0  0  0  0  0  0  0  0  0  0  0
   70.0417   76.7766   91.9387 C   0  0  0  0  0  0  0  0  0  0  0  0
   68.9708   77.0401   91.0659 C   0  0  0  0  0  0  0  0  0  0  0  0
   69.1320   77.8847   89.9519 C   0  0  0  0  0  0  0  0  0  0  0  0
   70.3811   78.4750   89.7244 C   0  0  0  0  0  0  0  0  0  0  0  0
   71.4560   78.2093   90.5723 C   0  0  0  0  0  0  0  0  0  0  0  0
   71.3090   77.3482   91.6643 C   0  0  0  0  0  0  0  0  0  0  0  0
   72.4460   77.0630   92.4236 O   0  0  0  0  0  0  0  0  0  0  0  0
   69.3138   74.7706   93.0030 O   0  0  0  0  0  0  0  0  0  0  0  0
   69.7842   75.9328   93.1269 C   0  0  0  0  0  0  0  0  0  0  0  0
   70.1219   76.4007   94.3944 O   0  0  0  0  0  0  0  0  0  0  0  0
   67.5727   79.5090   88.7115 C   0  0  0  0  0  0  0  0  0  0  0  0
   67.5834   80.4145   89.9287 C   0  0  0  0  0  0  0  0  0  0  0  0
   66.8973   79.9910   91.0841 C   0  0  0  0  0  0  0  0  0  0  0  0
   66.8575   80.7895   92.2266 C   0  0  0  0  0  0  0  0  0  0  0  0
   67.4814   82.0338   92.2304 C   0  0  0  0  0  0  0  0  0  0  0  0
   68.1375   82.4903   91.0879 C   0  0  0  0  0  0  0  0  0  0  0  0
   68.1947   81.7007   89.9235 C   0  0  0  0  0  0  0  0  0  0  0  0
   68.8658   82.2858   88.6966 C   0  0  0  0  0  0  0  0  0  0  0  0
   70.2968   82.6679   88.9825 C   0  0  0  0  0  0  0  0  0  0  0  0
   70.8603   83.8065   88.3794 C   0  0  0  0  0  0  0  0  0  0  0  0
   72.1842   84.1660   88.6493 C   0  0  0  0  0  0  0  0  0  0  0  0
   72.9526   83.3999   89.5293 C   0  0  0  0  0  0  0  0  0  0  0  0
   72.3966   82.2757   90.1454 C   0  0  0  0  0  0  0  0  0  0  0  0
   71.0729   81.9125   89.8789 C   0  0  0  0  0  0  0  0  0  0  0  0
  9 10  2  0
 10 11  1  0
 10  2  1  0
  2  3  2  0
  3  4  1  0
  4  1  1  0
  1 12  1  0
 12 13  1  0
 13 14  2  0
 14 15  1  0
 15 16  2  0
 16 17  1  0
 17 18  2  0
 18 19  1  0
 19 20  1  0
 20 21  2  0
 21 22  1  0
 22 23  2  0
 23 24  1  0
 24 25  2  0
  4  5  2  0
  5  6  1  0
  6  7  2  0
  7  8  1  0
  7  2  1  0
 18 13  1  0
 25 20  1  0
M  END
>  <score>  (11) 
0.00847

>  <minimizedAffinity>  (11) 
-7.55092

>  <CNNscore>  (11) 
0.7397844195

>  <CNNaffinity>  (11) 
5.8292627335

>  <CNN_VS>  (11) 
4.3123979568

>  <MorganFP>  (11) 
<rdkit.DataStructs.cDataStructs.ExplicitBitVect object at 0x7ff72c4e9350>

$$$$
HIPS5024
     RDKit          3D

 25 27  0  0  0  0  0  0  0  0999 V2000
   69.0058   79.9910   89.5399 N   0  0  0  0  0  0  0  0  0  0  0  0
   69.4927   76.5526   91.0301 C   0  0  0  0  0  0  0  0  0  0  0  0
   69.6352   77.9311   90.7904 C   0  0  0  0  0  0  0  0  0  0  0  0
   68.8766   78.5784   89.7974 C   0  0  0  0  0  0  0  0  0  0  0  0
   67.9755   77.8254   89.0349 C   0  0  0  0  0  0  0  0  0  0  0  0
   67.8121   76.4610   89.2731 C   0  0  0  0  0  0  0  0  0  0  0  0
   68.5424   75.8185   90.2777 C   0  0  0  0  0  0  0  0  0  0  0  0
   68.2701   74.4695   90.5163 O   0  0  0  0  0  0  0  0  0  0  0  0
   71.0747   76.6306   92.8128 O   0  0  0  0  0  0  0  0  0  0  0  0
   70.3696   75.9246   92.0434 C   0  0  0  0  0  0  0  0  0  0  0  0
   70.3723   74.5402   92.1940 O   0  0  0  0  0  0  0  0  0  0  0  0
   68.0151   80.9967   89.9316 C   0  0  0  0  0  0  0  0  0  0  0  0
   67.8330   82.0432   88.8483 C   0  0  0  0  0  0  0  0  0  0  0  0
   67.1842   81.6664   87.6558 C   0  0  0  0  0  0  0  0  0  0  0  0
   67.0046   82.5807   86.6184 C   0  0  0  0  0  0  0  0  0  0  0  0
   67.4883   83.8801   86.7418 C   0  0  0  0  0  0  0  0  0  0  0  0
   68.1643   84.2674   87.8982 C   0  0  0  0  0  0  0  0  0  0  0  0
   68.3546   83.3634   88.9610 C   0  0  0  0  0  0  0  0  0  0  0  0
   69.1562   83.8301   90.1601 C   0  0  0  0  0  0  0  0  0  0  0  0
   70.6263   83.5415   89.9846 C   0  0  0  0  0  0  0  0  0  0  0  0
   71.3894   84.2834   89.0654 C   0  0  0  0  0  0  0  0  0  0  0  0
   72.7537   84.0219   88.9072 C   0  0  0  0  0  0  0  0  0  0  0  0
   73.3693   83.0267   89.6704 C   0  0  0  0  0  0  0  0  0  0  0  0
   72.6228   82.2949   90.5974 C   0  0  0  0  0  0  0  0  0  0  0  0
   71.2582   82.5531   90.7595 C   0  0  0  0  0  0  0  0  0  0  0  0
  9 10  2  0
 10 11  1  0
 10  2  1  0
  2  3  2  0
  3  4  1  0
  4  1  1  0
  1 12  1  0
 12 13  1  0
 13 14  2  0
 14 15  1  0
 15 16  2  0
 16 17  1  0
 17 18  2  0
 18 19  1  0
 19 20  1  0
 20 21  2  0
 21 22  1  0
 22 23  2  0
 23 24  1  0
 24 25  2  0
  4  5  2  0
  5  6  1  0
  6  7  2  0
  7  8  1  0
  7  2  1  0
 18 13  1  0
 25 20  1  0
M  END
>  <score>  (12) 
0.00847

>  <minimizedAffinity>  (12) 
-7.08555

>  <CNNscore>  (12) 
0.6841396689

>  <CNNaffinity>  (12) 
5.7381086349

>  <CNN_VS>  (12) 
3.9256677628

>  <MorganFP>  (12) 
<rdkit.DataStructs.cDataStructs.ExplicitBitVect object at 0x7ff72c4e9dd0>

$$$$
HIPS5029
     RDKit          3D

 29 31  0  0  0  0  0  0  0  0999 V2000
   69.6640   77.0732   90.8907 C   0  0  0  0  0  0  0  0  0  0  0  0
   68.3653   77.5999   90.7971 C   0  0  0  0  0  0  0  0  0  0  0  0
   68.1612   78.9393   90.4677 C   0  0  0  0  0  0  0  0  0  0  0  0
   69.2453   79.7862   90.2381 C   0  0  0  0  0  0  0  0  0  0  0  0
   70.5508   79.2719   90.3375 C   0  0  0  0  0  0  0  0  0  0  0  0
   70.7751   77.9175   90.6492 C   0  0  0  0  0  0  0  0  0  0  0  0
   69.9596   75.3573   92.7228 C   0  0  0  0  0  0  0  0  0  0  0  0
   69.7333   76.2102   93.6234 O   0  0  0  0  0  0  0  0  0  0  0  0
   69.8453   75.7198   91.3409 N   0  0  0  0  0  0  0  0  0  0  0  0
   70.3122   74.0391   93.0478 O   0  0  0  0  0  0  0  0  0  0  0  0
   69.6659   73.2172   95.1986 C   0  0  0  0  0  0  0  0  0  0  0  0
   69.4702   73.0656   93.6826 C   0  0  0  0  0  0  0  0  0  0  0  0
   69.8786   71.6393   93.2678 C   0  0  0  0  0  0  0  0  0  0  0  0
   67.9901   73.3256   93.3431 C   0  0  0  0  0  0  0  0  0  0  0  0
   72.1698   77.4088   90.6744 C   0  0  0  0  0  0  0  0  0  0  0  0
   72.6401   76.9003   91.7288 O   0  0  0  0  0  0  0  0  0  0  0  0
   72.9883   77.5204   89.5543 O   0  0  0  0  0  0  0  0  0  0  0  0
   68.9827   81.1273   89.9142 O   0  0  0  0  0  0  0  0  0  0  0  0
   69.4578   82.2585   90.6461 C   0  0  0  0  0  0  0  0  0  0  0  0
   70.5462   82.9804   89.8705 C   0  0  0  0  0  0  0  0  0  0  0  0
   71.8768   82.6554   90.1911 C   0  0  0  0  0  0  0  0  0  0  0  0
   72.9451   83.2959   89.5696 C   0  0  0  0  0  0  0  0  0  0  0  0
   72.7136   84.2708   88.6055 C   0  0  0  0  0  0  0  0  0  0  0  0
   71.4036   84.5989   88.2329 C   0  0  0  0  0  0  0  0  0  0  0  0
   71.1891   85.5732   87.2446 C   0  0  0  0  0  0  0  0  0  0  0  0
   69.8953   85.9013   86.8473 C   0  0  0  0  0  0  0  0  0  0  0  0
   68.8045   85.2548   87.4222 C   0  0  0  0  0  0  0  0  0  0  0  0
   68.9957   84.2820   88.4065 C   0  0  0  0  0  0  0  0  0  0  0  0
   70.2973   83.9439   88.8471 C   0  0  0  0  0  0  0  0  0  0  0  0
 11 12  1  0
 12 13  1  0
 12 14  1  0
 12 10  1  0
 10  7  1  0
  7  8  2  0
  7  9  1  0
  9  1  1  0
  1  2  2  0
  2  3  1  0
  3  4  2  0
  4 18  1  0
 18 19  1  0
 19 20  1  0
 20 21  2  0
 21 22  1  0
 22 23  2  0
 23 24  1  0
 24 25  2  0
 25 26  1  0
 26 27  2  0
 27 28  1  0
 28 29  2  0
  4  5  1  0
  5  6  2  0
  6 15  1  0
 15 16  2  0
 15 17  1  0
  6  1  1  0
 29 20  1  0
 29 24  1  0
M  END
>  <score>  (13) 
1.153769

>  <minimizedAffinity>  (13) 
-8.76087

>  <CNNscore>  (13) 
0.5584303737

>  <CNNaffinity>  (13) 
5.9472036362

>  <CNN_VS>  (13) 
3.3210990429

>  <MorganFP>  (13) 
<rdkit.DataStructs.cDataStructs.ExplicitBitVect object at 0x7ff72bc49890>

$$$$
HIPS5029
     RDKit          3D

 29 31  0  0  0  0  0  0  0  0999 V2000
   68.6408   77.3738   91.1151 C   0  0  0  0  0  0  0  0  0  0  0  0
   69.3491   77.6088   89.9252 C   0  0  0  0  0  0  0  0  0  0  0  0
   69.1375   78.7730   89.1876 C   0  0  0  0  0  0  0  0  0  0  0  0
   68.2068   79.7215   89.6112 C   0  0  0  0  0  0  0  0  0  0  0  0
   67.4853   79.4929   90.7968 C   0  0  0  0  0  0  0  0  0  0  0  0
   67.7005   78.3327   91.5647 C   0  0  0  0  0  0  0  0  0  0  0  0
   69.9192   75.8067   92.6310 C   0  0  0  0  0  0  0  0  0  0  0  0
   70.7437   76.7073   92.9455 O   0  0  0  0  0  0  0  0  0  0  0  0
   68.7984   76.1156   91.7929 N   0  0  0  0  0  0  0  0  0  0  0  0
   70.0687   74.4937   93.1011 O   0  0  0  0  0  0  0  0  0  0  0  0
   70.0711   72.7970   94.7865 C   0  0  0  0  0  0  0  0  0  0  0  0
   69.2092   73.8210   94.0329 C   0  0  0  0  0  0  0  0  0  0  0  0
   68.0820   73.0755   93.2935 C   0  0  0  0  0  0  0  0  0  0  0  0
   68.6224   74.8208   95.0478 C   0  0  0  0  0  0  0  0  0  0  0  0
   66.9630   78.1720   92.8433 C   0  0  0  0  0  0  0  0  0  0  0  0
   66.8670   79.1405   93.6458 O   0  0  0  0  0  0  0  0  0  0  0  0
   66.4035   76.9465   93.1928 O   0  0  0  0  0  0  0  0  0  0  0  0
   68.0303   80.8737   88.8278 O   0  0  0  0  0  0  0  0  0  0  0  0
   67.9918   82.2110   89.3287 C   0  0  0  0  0  0  0  0  0  0  0  0
   68.9486   83.1013   88.5548 C   0  0  0  0  0  0  0  0  0  0  0  0
   68.4025   83.8555   87.5002 C   0  0  0  0  0  0  0  0  0  0  0  0
   69.2054   84.6654   86.7020 C   0  0  0  0  0  0  0  0  0  0  0  0
   70.5724   84.7510   86.9409 C   0  0  0  0  0  0  0  0  0  0  0  0
   71.1498   84.0428   88.0028 C   0  0  0  0  0  0  0  0  0  0  0  0
   72.5293   84.1554   88.2402 C   0  0  0  0  0  0  0  0  0  0  0  0
   73.1198   83.4735   89.3012 C   0  0  0  0  0  0  0  0  0  0  0  0
   72.3409   82.6829   90.1416 C   0  0  0  0  0  0  0  0  0  0  0  0
   70.9666   82.5578   89.9237 C   0  0  0  0  0  0  0  0  0  0  0  0
   70.3423   83.2201   88.8400 C   0  0  0  0  0  0  0  0  0  0  0  0
 11 12  1  0
 12 13  1  0
 12 14  1  0
 12 10  1  0
 10  7  1  0
  7  8  2  0
  7  9  1  0
  9  1  1  0
  1  2  2  0
  2  3  1  0
  3  4  2  0
  4 18  1  0
 18 19  1  0
 19 20  1  0
 20 21  2  0
 21 22  1  0
 22 23  2  0
 23 24  1  0
 24 25  2  0
 25 26  1  0
 26 27  2  0
 27 28  1  0
 28 29  2  0
  4  5  1  0
  5  6  2  0
  6 15  1  0
 15 16  2  0
 15 17  1  0
  6  1  1  0
 29 20  1  0
 29 24  1  0
M  END
>  <score>  (14) 
1.153769

>  <minimizedAffinity>  (14) 
-8.21708

>  <CNNscore>  (14) 
0.4867980182

>  <CNNaffinity>  (14) 
5.9170570374

>  <CNN_VS>  (14) 
2.8804116249

>  <MorganFP>  (14) 
<rdkit.DataStructs.cDataStructs.ExplicitBitVect object at 0x7ff72bc49040>

$$$$
HIPS5029
     RDKit          3D

 29 31  0  0  0  0  0  0  0  0999 V2000
   69.4369   76.7403   90.7130 C   0  0  0  0  0  0  0  0  0  0  0  0
   68.1005   76.9692   90.3466 C   0  0  0  0  0  0  0  0  0  0  0  0
   67.7130   78.1861   89.7869 C   0  0  0  0  0  0  0  0  0  0  0  0
   68.6445   79.2058   89.5926 C   0  0  0  0  0  0  0  0  0  0  0  0
   69.9843   78.9911   89.9638 C   0  0  0  0  0  0  0  0  0  0  0  0
   70.3971   77.7617   90.5115 C   0  0  0  0  0  0  0  0  0  0  0  0
   69.7198   75.3619   92.8126 C   0  0  0  0  0  0  0  0  0  0  0  0
   69.1862   76.2535   93.5268 O   0  0  0  0  0  0  0  0  0  0  0  0
   69.7836   75.5199   91.3895 N   0  0  0  0  0  0  0  0  0  0  0  0
   70.2475   74.1959   93.3864 O   0  0  0  0  0  0  0  0  0  0  0  0
   70.4242   71.8948   94.0134 C   0  0  0  0  0  0  0  0  0  0  0  0
   69.4969   73.1184   93.9656 C   0  0  0  0  0  0  0  0  0  0  0  0
   68.2705   72.7805   93.0968 C   0  0  0  0  0  0  0  0  0  0  0  0
   69.0631   73.4708   95.4014 C   0  0  0  0  0  0  0  0  0  0  0  0
   71.8351   77.5620   90.8226 C   0  0  0  0  0  0  0  0  0  0  0  0
   72.6993   77.6464   89.9075 O   0  0  0  0  0  0  0  0  0  0  0  0
   72.2461   77.2413   92.1130 O   0  0  0  0  0  0  0  0  0  0  0  0
   68.1992   80.4128   89.0293 O   0  0  0  0  0  0  0  0  0  0  0  0
   68.3020   81.6965   89.6477 C   0  0  0  0  0  0  0  0  0  0  0  0
   69.0676   82.6606   88.7580 C   0  0  0  0  0  0  0  0  0  0  0  0
   68.3470   83.2724   87.7161 C   0  0  0  0  0  0  0  0  0  0  0  0
   68.9699   84.1349   86.8185 C   0  0  0  0  0  0  0  0  0  0  0  0
   70.3258   84.4166   86.9424 C   0  0  0  0  0  0  0  0  0  0  0  0
   71.0715   83.8549   87.9869 C   0  0  0  0  0  0  0  0  0  0  0  0
   72.4359   84.1647   88.1071 C   0  0  0  0  0  0  0  0  0  0  0  0
   73.1908   83.6308   89.1484 C   0  0  0  0  0  0  0  0  0  0  0  0
   72.5920   82.7930   90.0853 C   0  0  0  0  0  0  0  0  0  0  0  0
   71.2359   82.4725   89.9846 C   0  0  0  0  0  0  0  0  0  0  0  0
   70.4486   82.9813   88.9244 C   0  0  0  0  0  0  0  0  0  0  0  0
 11 12  1  0
 12 13  1  0
 12 14  1  0
 12 10  1  0
 10  7  1  0
  7  8  2  0
  7  9  1  0
  9  1  1  0
  1  2  2  0
  2  3  1  0
  3  4  2  0
  4 18  1  0
 18 19  1  0
 19 20  1  0
 20 21  2  0
 21 22  1  0
 22 23  2  0
 23 24  1  0
 24 25  2  0
 25 26  1  0
 26 27  2  0
 27 28  1  0
 28 29  2  0
  4  5  1  0
  5  6  2  0
  6 15  1  0
 15 16  2  0
 15 17  1  0
  6  1  1  0
 29 20  1  0
 29 24  1  0
M  END
>  <score>  (15) 
1.153769

>  <minimizedAffinity>  (15) 
-8.76759

>  <CNNscore>  (15) 
0.4380901158

>  <CNNaffinity>  (15) 
5.8591241837

>  <CNN_VS>  (15) 
2.5668244362

>  <MorganFP>  (15) 
<rdkit.DataStructs.cDataStructs.ExplicitBitVect object at 0x7ff72bc49ac0>

$$$$
HIPS5238
     RDKit          3D

 29 31  0  0  0  0  0  0  0  0999 V2000
   68.4709   77.4474   91.0572 C   0  0  0  0  0  0  0  0  0  0  0  0
   67.7631   78.4244   90.3460 C   0  0  0  0  0  0  0  0  0  0  0  0
   68.4192   79.5339   89.8133 C   0  0  0  0  0  0  0  0  0  0  0  0
   69.8050   79.6841   89.9815 C   0  0  0  0  0  0  0  0  0  0  0  0
   70.5223   78.6923   90.6581 C   0  0  0  0  0  0  0  0  0  0  0  0
   69.8781   77.5585   91.1876 C   0  0  0  0  0  0  0  0  0  0  0  0
   67.0592   76.4972   92.9068 C   0  0  0  0  0  0  0  0  0  0  0  0
   67.0862   77.5939   93.5290 O   0  0  0  0  0  0  0  0  0  0  0  0
   67.7343   76.3680   91.6500 N   0  0  0  0  0  0  0  0  0  0  0  0
   66.3689   75.3903   93.4220 O   0  0  0  0  0  0  0  0  0  0  0  0
   65.9930   73.8305   95.1969 C   0  0  0  0  0  0  0  0  0  0  0  0
   66.9542   74.2544   94.0759 C   0  0  0  0  0  0  0  0  0  0  0  0
   68.3126   74.6270   94.7001 C   0  0  0  0  0  0  0  0  0  0  0  0
   67.1130   73.0831   93.0873 C   0  0  0  0  0  0  0  0  0  0  0  0
   70.6991   76.4944   91.8152 C   0  0  0  0  0  0  0  0  0  0  0  0
   71.8021   76.7810   92.3547 O   0  0  0  0  0  0  0  0  0  0  0  0
   70.2828   75.1662   91.7863 O   0  0  0  0  0  0  0  0  0  0  0  0
   70.5130   80.7902   89.4852 O   0  0  0  0  0  0  0  0  0  0  0  0
   70.9321   81.9204   90.2516 C   0  0  0  0  0  0  0  0  0  0  0  0
   71.3130   83.0743   89.3482 C   0  0  0  0  0  0  0  0  0  0  0  0
   72.6154   83.5964   89.4377 C   0  0  0  0  0  0  0  0  0  0  0  0
   73.0273   84.6385   88.6084 C   0  0  0  0  0  0  0  0  0  0  0  0
   72.1479   85.1865   87.6780 C   0  0  0  0  0  0  0  0  0  0  0  0
   70.8371   84.7025   87.5749 C   0  0  0  0  0  0  0  0  0  0  0  0
   69.9540   85.2678   86.6413 C   0  0  0  0  0  0  0  0  0  0  0  0
   68.6441   84.7996   86.5386 C   0  0  0  0  0  0  0  0  0  0  0  0
   68.2022   83.7688   87.3670 C   0  0  0  0  0  0  0  0  0  0  0  0
   69.0674   83.1940   88.3011 C   0  0  0  0  0  0  0  0  0  0  0  0
   70.4011   83.6430   88.4173 C   0  0  0  0  0  0  0  0  0  0  0  0
 11 12  1  0
 12 13  1  0
 12 14  1  0
 12 10  1  0
 10  7  1  0
  7  8  2  0
  7  9  1  0
  9  1  1  0
  1  2  2  0
  2  3  1  0
  3  4  2  0
  4 18  1  0
 18 19  1  0
 19 20  1  0
 20 21  2  0
 21 22  1  0
 22 23  2  0
 23 24  1  0
 24 25  2  0
 25 26  1  0
 26 27  2  0
 27 28  1  0
 28 29  2  0
  4  5  1  0
  5  6  2  0
  6 15  1  0
 15 16  2  0
 15 17  1  0
  6  1  1  0
 29 20  1  0
 29 24  1  0
M  END
>  <score>  (16) 
0.047072

>  <minimizedAffinity>  (16) 
-8.35106

>  <CNNscore>  (16) 
0.7783104777

>  <CNNaffinity>  (16) 
6.0323228836

>  <CNN_VS>  (16) 
4.6950201988

>  <MorganFP>  (16) 
<rdkit.DataStructs.cDataStructs.ExplicitBitVect object at 0x7ff72bcb4f90>

$$$$
HIPS5238
     RDKit          3D

 29 31  0  0  0  0  0  0  0  0999 V2000
   68.4657   77.4967   91.1364 C   0  0  0  0  0  0  0  0  0  0  0  0
   67.6779   78.4255   90.4450 C   0  0  0  0  0  0  0  0  0  0  0  0
   68.2531   79.5549   89.8628 C   0  0  0  0  0  0  0  0  0  0  0  0
   69.6365   79.7740   89.9604 C   0  0  0  0  0  0  0  0  0  0  0  0
   70.4328   78.8302   90.6170 C   0  0  0  0  0  0  0  0  0  0  0  0
   69.8704   77.6771   91.1959 C   0  0  0  0  0  0  0  0  0  0  0  0
   67.1946   76.5143   93.0693 C   0  0  0  0  0  0  0  0  0  0  0  0
   67.2004   77.6219   93.6726 O   0  0  0  0  0  0  0  0  0  0  0  0
   67.8116   76.3947   91.7821 N   0  0  0  0  0  0  0  0  0  0  0  0
   66.5842   75.3857   93.6356 O   0  0  0  0  0  0  0  0  0  0  0  0
   67.3994   73.1529   93.3623 C   0  0  0  0  0  0  0  0  0  0  0  0
   67.2477   74.3266   94.3418 C   0  0  0  0  0  0  0  0  0  0  0  0
   66.4042   73.8643   95.5453 C   0  0  0  0  0  0  0  0  0  0  0  0
   68.6485   74.7763   94.8001 C   0  0  0  0  0  0  0  0  0  0  0  0
   70.7713   76.6651   91.7997 C   0  0  0  0  0  0  0  0  0  0  0  0
   71.8467   77.0237   92.3518 O   0  0  0  0  0  0  0  0  0  0  0  0
   70.4615   75.3093   91.7343 O   0  0  0  0  0  0  0  0  0  0  0  0
   70.2653   80.9030   89.4120 O   0  0  0  0  0  0  0  0  0  0  0  0
   70.9271   81.9283   90.1547 C   0  0  0  0  0  0  0  0  0  0  0  0
   70.1897   83.2450   90.0326 C   0  0  0  0  0  0  0  0  0  0  0  0
   69.9668   83.7741   88.7491 C   0  0  0  0  0  0  0  0  0  0  0  0
   69.2671   84.9677   88.5785 C   0  0  0  0  0  0  0  0  0  0  0  0
   68.7814   85.6623   89.6835 C   0  0  0  0  0  0  0  0  0  0  0  0
   69.0017   85.1731   90.9778 C   0  0  0  0  0  0  0  0  0  0  0  0
   68.5175   85.8852   92.0866 C   0  0  0  0  0  0  0  0  0  0  0  0
   68.7408   85.4115   93.3794 C   0  0  0  0  0  0  0  0  0  0  0  0
   69.4511   84.2283   93.5784 C   0  0  0  0  0  0  0  0  0  0  0  0
   69.9395   83.5063   92.4867 C   0  0  0  0  0  0  0  0  0  0  0  0
   69.7176   83.9592   91.1678 C   0  0  0  0  0  0  0  0  0  0  0  0
 11 12  1  0
 12 13  1  0
 12 14  1  0
 12 10  1  0
 10  7  1  0
  7  8  2  0
  7  9  1  0
  9  1  1  0
  1  2  2  0
  2  3  1  0
  3  4  2  0
  4 18  1  0
 18 19  1  0
 19 20  1  0
 20 21  2  0
 21 22  1  0
 22 23  2  0
 23 24  1  0
 24 25  2  0
 25 26  1  0
 26 27  2  0
 27 28  1  0
 28 29  2  0
  4  5  1  0
  5  6  2  0
  6 15  1  0
 15 16  2  0
 15 17  1  0
  6  1  1  0
 29 20  1  0
 29 24  1  0
M  END
>  <score>  (17) 
0.047072

>  <minimizedAffinity>  (17) 
-7.40002

>  <CNNscore>  (17) 
0.5506667495

>  <CNNaffinity>  (17) 
5.8939371109

>  <CNN_VS>  (17) 
3.2455952168

>  <MorganFP>  (17) 
<rdkit.DataStructs.cDataStructs.ExplicitBitVect object at 0x7ff72bcb4970>

$$$$
HIPS5238
     RDKit          3D

 29 31  0  0  0  0  0  0  0  0999 V2000
   68.8394   77.2595   91.1202 C   0  0  0  0  0  0  0  0  0  0  0  0
   69.6953   77.8575   90.1867 C   0  0  0  0  0  0  0  0  0  0  0  0
   69.4793   79.1671   89.7582 C   0  0  0  0  0  0  0  0  0  0  0  0
   68.3976   79.9069   90.2622 C   0  0  0  0  0  0  0  0  0  0  0  0
   67.5624   79.3274   91.2227 C   0  0  0  0  0  0  0  0  0  0  0  0
   67.7760   78.0128   91.6779 C   0  0  0  0  0  0  0  0  0  0  0  0
   70.0882   75.4792   92.3804 C   0  0  0  0  0  0  0  0  0  0  0  0
   70.8278   76.3437   92.9249 O   0  0  0  0  0  0  0  0  0  0  0  0
   69.0623   75.8850   91.4667 N   0  0  0  0  0  0  0  0  0  0  0  0
   70.2466   74.1137   92.6584 O   0  0  0  0  0  0  0  0  0  0  0  0
   70.3784   72.2417   94.1426 C   0  0  0  0  0  0  0  0  0  0  0  0
   69.4628   73.3384   93.5777 C   0  0  0  0  0  0  0  0  0  0  0  0
   68.2773   72.6722   92.8534 C   0  0  0  0  0  0  0  0  0  0  0  0
   68.9647   74.2184   94.7404 C   0  0  0  0  0  0  0  0  0  0  0  0
   66.9160   77.4807   92.7631 C   0  0  0  0  0  0  0  0  0  0  0  0
   66.4871   78.2495   93.6657 O   0  0  0  0  0  0  0  0  0  0  0  0
   66.6012   76.1257   92.8199 O   0  0  0  0  0  0  0  0  0  0  0  0
   68.1208   81.2203   89.8509 O   0  0  0  0  0  0  0  0  0  0  0  0
   68.5651   82.4080   90.5086 C   0  0  0  0  0  0  0  0  0  0  0  0
   69.9098   82.8514   89.9723 C   0  0  0  0  0  0  0  0  0  0  0  0
   71.0736   82.3985   90.6183 C   0  0  0  0  0  0  0  0  0  0  0  0
   72.3372   82.7522   90.1476 C   0  0  0  0  0  0  0  0  0  0  0  0
   72.4672   83.5701   89.0280 C   0  0  0  0  0  0  0  0  0  0  0  0
   71.3282   84.0542   88.3712 C   0  0  0  0  0  0  0  0  0  0  0  0
   71.4685   84.8867   87.2494 C   0  0  0  0  0  0  0  0  0  0  0  0
   70.3405   85.3819   86.5951 C   0  0  0  0  0  0  0  0  0  0  0  0
   69.0651   85.0560   87.0549 C   0  0  0  0  0  0  0  0  0  0  0  0
   68.9067   84.2283   88.1690 C   0  0  0  0  0  0  0  0  0  0  0  0
   70.0326   83.7057   88.8424 C   0  0  0  0  0  0  0  0  0  0  0  0
 11 12  1  0
 12 13  1  0
 12 14  1  0
 12 10  1  0
 10  7  1  0
  7  8  2  0
  7  9  1  0
  9  1  1  0
  1  2  2  0
  2  3  1  0
  3  4  2  0
  4 18  1  0
 18 19  1  0
 19 20  1  0
 20 21  2  0
 21 22  1  0
 22 23  2  0
 23 24  1  0
 24 25  2  0
 25 26  1  0
 26 27  2  0
 27 28  1  0
 28 29  2  0
  4  5  1  0
  5  6  2  0
  6 15  1  0
 15 16  2  0
 15 17  1  0
  6  1  1  0
 29 20  1  0
 29 24  1  0
M  END
>  <score>  (18) 
0.047072

>  <minimizedAffinity>  (18) 
-8.20152

>  <CNNscore>  (18) 
0.5260741711

>  <CNNaffinity>  (18) 
5.9092760086

>  <CNN_VS>  (18) 
3.1087174416

>  <MorganFP>  (18) 
<rdkit.DataStructs.cDataStructs.ExplicitBitVect object at 0x7ff72bcb4120>

$$$$
HIPS5239
     RDKit          3D

 23 25  0  0  0  0  0  0  0  0999 V2000
   67.4008   79.9379   89.1053 C   0  0  0  0  0  0  0  0  0  0  0  0
   67.8054   81.1634   88.3489 C   0  0  0  0  0  0  0  0  0  0  0  0
   67.1753   81.6636   87.2282 C   0  0  0  0  0  0  0  0  0  0  0  0
   67.8660   82.8079   86.8909 C   0  0  0  0  0  0  0  0  0  0  0  0
   68.8770   82.9355   87.8324 C   0  0  0  0  0  0  0  0  0  0  0  0
   68.8104   81.9370   88.6851 O   0  0  0  0  0  0  0  0  0  0  0  0
   69.8921   84.0111   87.9143 C   0  0  0  0  0  0  0  0  0  0  0  0
   71.2537   83.6731   88.0145 C   0  0  0  0  0  0  0  0  0  0  0  0
   72.2286   84.6718   88.0951 C   0  0  0  0  0  0  0  0  0  0  0  0
   71.8564   86.0188   88.0764 C   0  0  0  0  0  0  0  0  0  0  0  0
   73.0814   87.2702   88.1777 Cl  0  0  0  0  0  0  0  0  0  0  0  0
   70.5065   86.3668   87.9767 C   0  0  0  0  0  0  0  0  0  0  0  0
   69.5279   85.3711   87.8960 C   0  0  0  0  0  0  0  0  0  0  0  0
   68.1620   79.8353   90.3500 N   0  0  0  0  0  0  0  0  0  0  0  0
   69.8511   76.6839   91.4945 C   0  0  0  0  0  0  0  0  0  0  0  0
   71.1775   76.9329   91.1064 C   0  0  0  0  0  0  0  0  0  0  0  0
   71.5132   78.1274   90.4668 C   0  0  0  0  0  0  0  0  0  0  0  0
   70.5337   79.0878   90.2085 C   0  0  0  0  0  0  0  0  0  0  0  0
   69.1989   78.8639   90.5947 C   0  0  0  0  0  0  0  0  0  0  0  0
   68.8683   77.6564   91.2320 C   0  0  0  0  0  0  0  0  0  0  0  0
   70.3877   74.7204   92.7308 O   0  0  0  0  0  0  0  0  0  0  0  0
   69.4975   75.4158   92.1704 C   0  0  0  0  0  0  0  0  0  0  0  0
   68.1758   74.9777   92.1938 O   0  0  0  0  0  0  0  0  0  0  0  0
 21 22  2  0
 22 23  1  0
 22 15  1  0
 15 16  2  0
 16 17  1  0
 17 18  2  0
 18 19  1  0
 19 14  1  0
 14  1  1  0
  1  2  1  0
  2  3  2  0
  3  4  1  0
  4  5  2  0
  5  7  1  0
  7  8  2  0
  8  9  1  0
  9 10  2  0
 10 11  1  0
 10 12  1  0
 12 13  2  0
  5  6  1  0
 19 20  2  0
 20 15  1  0
  6  2  1  0
 13  7  1  0
M  END
>  <score>  (19) 
0.010774

>  <minimizedAffinity>  (19) 
-7.20206

>  <CNNscore>  (19) 
0.7873511314

>  <CNNaffinity>  (19) 
5.6784181595

>  <CNN_VS>  (19) 
4.4709091187

>  <MorganFP>  (19) 
<rdkit.DataStructs.cDataStructs.ExplicitBitVect object at 0x7ff72bcb4c10>

$$$$
HIPS5239
     RDKit          3D

 23 25  0  0  0  0  0  0  0  0999 V2000
   67.1586   80.1591   89.5835 C   0  0  0  0  0  0  0  0  0  0  0  0
   67.9669   81.3391   90.0216 C   0  0  0  0  0  0  0  0  0  0  0  0
   68.0685   81.8115   91.3138 C   0  0  0  0  0  0  0  0  0  0  0  0
   68.9315   82.8847   91.2523 C   0  0  0  0  0  0  0  0  0  0  0  0
   69.3053   82.9986   89.9210 C   0  0  0  0  0  0  0  0  0  0  0  0
   68.7103   82.0612   89.2170 O   0  0  0  0  0  0  0  0  0  0  0  0
   70.2310   83.9951   89.3343 C   0  0  0  0  0  0  0  0  0  0  0  0
   71.5612   83.6290   89.0613 C   0  0  0  0  0  0  0  0  0  0  0  0
   72.4528   84.5538   88.5097 C   0  0  0  0  0  0  0  0  0  0  0  0
   72.0274   85.8539   88.2238 C   0  0  0  0  0  0  0  0  0  0  0  0
   73.1477   87.0127   87.5317 Cl  0  0  0  0  0  0  0  0  0  0  0  0
   70.7077   86.2291   88.4904 C   0  0  0  0  0  0  0  0  0  0  0  0
   69.8125   85.3074   89.0424 C   0  0  0  0  0  0  0  0  0  0  0  0
   68.0257   79.1432   88.9874 N   0  0  0  0  0  0  0  0  0  0  0  0
   69.2819   76.1896   90.9349 C   0  0  0  0  0  0  0  0  0  0  0  0
   68.4463   75.1711   90.4486 C   0  0  0  0  0  0  0  0  0  0  0  0
   67.4717   75.4551   89.4905 C   0  0  0  0  0  0  0  0  0  0  0  0
   67.3194   76.7547   89.0041 C   0  0  0  0  0  0  0  0  0  0  0  0
   68.1499   77.7907   89.4711 C   0  0  0  0  0  0  0  0  0  0  0  0
   69.1239   77.4975   90.4402 C   0  0  0  0  0  0  0  0  0  0  0  0
   71.2434   76.7049   92.1832 O   0  0  0  0  0  0  0  0  0  0  0  0
   70.3127   75.8861   91.9523 C   0  0  0  0  0  0  0  0  0  0  0  0
   70.2645   74.6910   92.6656 O   0  0  0  0  0  0  0  0  0  0  0  0
 21 22  2  0
 22 23  1  0
 22 15  1  0
 15 16  2  0
 16 17  1  0
 17 18  2  0
 18 19  1  0
 19 14  1  0
 14  1  1  0
  1  2  1  0
  2  3  2  0
  3  4  1  0
  4  5  2  0
  5  7  1  0
  7  8  2  0
  8  9  1  0
  9 10  2  0
 10 11  1  0
 10 12  1  0
 12 13  2  0
  5  6  1  0
 19 20  2  0
 20 15  1  0
  6  2  1  0
 13  7  1  0
M  END
>  <score>  (20) 
0.010774

>  <minimizedAffinity>  (20) 
-6.80831

>  <CNNscore>  (20) 
0.6596161723

>  <CNNaffinity>  (20) 
5.6162672043

>  <CNN_VS>  (20) 
3.7045807838

>  <MorganFP>  (20) 
<rdkit.DataStructs.cDataStructs.ExplicitBitVect object at 0x7ff72bcb4dd0>

$$$$
HIPS5239
     RDKit          3D

 23 25  0  0  0  0  0  0  0  0999 V2000
   67.1234   76.3945   88.3910 C   0  0  0  0  0  0  0  0  0  0  0  0
   67.3309   75.0185   88.9400 C   0  0  0  0  0  0  0  0  0  0  0  0
   66.7418   73.8645   88.4663 C   0  0  0  0  0  0  0  0  0  0  0  0
   67.2388   72.8435   89.2479 C   0  0  0  0  0  0  0  0  0  0  0  0
   68.1053   73.4414   90.1517 C   0  0  0  0  0  0  0  0  0  0  0  0
   68.1342   74.7384   89.9388 O   0  0  0  0  0  0  0  0  0  0  0  0
   68.9021   72.7701   91.2045 C   0  0  0  0  0  0  0  0  0  0  0  0
   69.2662   73.4847   92.3599 C   0  0  0  0  0  0  0  0  0  0  0  0
   70.0198   72.8718   93.3653 C   0  0  0  0  0  0  0  0  0  0  0  0
   70.4184   71.5392   93.2297 C   0  0  0  0  0  0  0  0  0  0  0  0
   71.3639   70.7722   94.4925 Cl  0  0  0  0  0  0  0  0  0  0  0  0
   70.0622   70.8189   92.0863 C   0  0  0  0  0  0  0  0  0  0  0  0
   69.3086   71.4280   91.0779 C   0  0  0  0  0  0  0  0  0  0  0  0
   67.2451   77.3895   89.4560 N   0  0  0  0  0  0  0  0  0  0  0  0
   70.6983   78.0424   90.7763 C   0  0  0  0  0  0  0  0  0  0  0  0
   70.8570   79.4004   90.4559 C   0  0  0  0  0  0  0  0  0  0  0  0
   69.8369   80.0956   89.8043 C   0  0  0  0  0  0  0  0  0  0  0  0
   68.6472   79.4481   89.4665 C   0  0  0  0  0  0  0  0  0  0  0  0
   68.4622   78.0894   89.7838 C   0  0  0  0  0  0  0  0  0  0  0  0
   69.4965   77.3954   90.4338 C   0  0  0  0  0  0  0  0  0  0  0  0
   71.6829   77.0208   92.6890 O   0  0  0  0  0  0  0  0  0  0  0  0
   71.7823   77.3072   91.4651 C   0  0  0  0  0  0  0  0  0  0  0  0
   72.9246   76.9242   90.7666 O   0  0  0  0  0  0  0  0  0  0  0  0
 21 22  2  0
 22 23  1  0
 22 15  1  0
 15 16  2  0
 16 17  1  0
 17 18  2  0
 18 19  1  0
 19 14  1  0
 14  1  1  0
  1  2  1  0
  2  3  2  0
  3  4  1  0
  4  5  2  0
  5  7  1  0
  7  8  2  0
  8  9  1  0
  9 10  2  0
 10 11  1  0
 10 12  1  0
 12 13  2  0
  5  6  1  0
 19 20  2  0
 20 15  1  0
  6  2  1  0
 13  7  1  0
M  END
>  <score>  (21) 
0.010774

>  <minimizedAffinity>  (21) 
-7.29484

>  <CNNscore>  (21) 
0.5947527289

>  <CNNaffinity>  (21) 
5.5437698364

>  <CNN_VS>  (21) 
3.2971723080

>  <MorganFP>  (21) 
<rdkit.DataStructs.cDataStructs.ExplicitBitVect object at 0x7ff72bcb4900>

$$$$
HIPS5844
     RDKit          3D

 23 24  0  0  0  0  0  0  0  0999 V2000
   67.6483   79.5874   90.7130 O   0  0  0  0  0  0  0  0  0  0  0  0
   70.0995   76.9616   91.6381 C   0  0  0  0  0  0  0  0  0  0  0  0
   68.9117   77.7088   91.5258 C   0  0  0  0  0  0  0  0  0  0  0  0
   68.8689   78.8963   90.7872 C   0  0  0  0  0  0  0  0  0  0  0  0
   70.0364   79.3520   90.1521 C   0  0  0  0  0  0  0  0  0  0  0  0
   71.2211   78.6232   90.2536 C   0  0  0  0  0  0  0  0  0  0  0  0
   71.2647   77.4315   90.9899 C   0  0  0  0  0  0  0  0  0  0  0  0
   72.4638   76.7233   91.0732 O   0  0  0  0  0  0  0  0  0  0  0  0
   70.3166   74.5924   91.8834 O   0  0  0  0  0  0  0  0  0  0  0  0
   70.0937   75.7054   92.4311 C   0  0  0  0  0  0  0  0  0  0  0  0
   69.8394   75.7445   93.8000 O   0  0  0  0  0  0  0  0  0  0  0  0
   66.4401   79.0684   90.1544 C   0  0  0  0  0  0  0  0  0  0  0  0
   66.7111   78.3382   88.8579 C   0  0  0  0  0  0  0  0  0  0  0  0
   66.5914   76.9387   88.8290 C   0  0  0  0  0  0  0  0  0  0  0  0
   66.8190   76.2269   87.6500 C   0  0  0  0  0  0  0  0  0  0  0  0
   67.1386   76.9015   86.4619 C   0  0  0  0  0  0  0  0  0  0  0  0
   67.2629   78.3000   86.4856 C   0  0  0  0  0  0  0  0  0  0  0  0
   67.0359   79.0213   87.6644 C   0  0  0  0  0  0  0  0  0  0  0  0
   67.1712   80.7760   87.5924 Cl  0  0  0  0  0  0  0  0  0  0  0  0
   67.4347   76.1302   85.2000 C   0  0  0  0  0  0  0  0  0  0  0  0
   68.7031   76.4254   84.7309 F   0  0  0  0  0  0  0  0  0  0  0  0
   66.5070   76.4678   84.2326 F   0  0  0  0  0  0  0  0  0  0  0  0
   67.3672   74.7675   85.4336 F   0  0  0  0  0  0  0  0  0  0  0  0
  9 10  2  0
 10 11  1  0
 10  2  1  0
  2  3  2  0
  3  4  1  0
  4  1  1  0
  1 12  1  0
 12 13  1  0
 13 14  2  0
 14 15  1  0
 15 16  2  0
 16 20  1  0
 20 21  1  0
 20 22  1  0
 20 23  1  0
 16 17  1  0
 17 18  2  0
 18 19  1  0
  4  5  2  0
  5  6  1  0
  6  7  2  0
  7  8  1  0
  7  2  1  0
 18 13  1  0
M  END
>  <score>  (22) 
0.007454

>  <minimizedAffinity>  (22) 
-7.21140

>  <CNNscore>  (22) 
0.9036415219

>  <CNNaffinity>  (22) 
5.9112319946

>  <CNN_VS>  (22) 
5.3416347504

>  <MorganFP>  (22) 
<rdkit.DataStructs.cDataStructs.ExplicitBitVect object at 0x7ff72bcb4660>

$$$$
HIPS5844
     RDKit          3D

 23 24  0  0  0  0  0  0  0  0999 V2000
   68.2607   79.3001   89.1421 O   0  0  0  0  0  0  0  0  0  0  0  0
   69.3919   76.2766   90.9691 C   0  0  0  0  0  0  0  0  0  0  0  0
   69.2690   77.6047   90.5186 C   0  0  0  0  0  0  0  0  0  0  0  0
   68.3326   77.9549   89.5398 C   0  0  0  0  0  0  0  0  0  0  0  0
   67.5054   76.9591   88.9939 C   0  0  0  0  0  0  0  0  0  0  0  0
   67.6147   75.6388   89.4296 C   0  0  0  0  0  0  0  0  0  0  0  0
   68.5495   75.2870   90.4126 C   0  0  0  0  0  0  0  0  0  0  0  0
   68.6357   73.9584   90.8293 O   0  0  0  0  0  0  0  0  0  0  0  0
   71.4722   76.6106   92.1012 O   0  0  0  0  0  0  0  0  0  0  0  0
   70.3992   75.9552   92.0126 C   0  0  0  0  0  0  0  0  0  0  0  0
   70.1668   74.9173   92.9119 O   0  0  0  0  0  0  0  0  0  0  0  0
   68.2562   80.4219   90.0268 C   0  0  0  0  0  0  0  0  0  0  0  0
   69.3247   81.4210   89.6425 C   0  0  0  0  0  0  0  0  0  0  0  0
   70.5814   81.3443   90.2656 C   0  0  0  0  0  0  0  0  0  0  0  0
   71.6002   82.2379   89.9305 C   0  0  0  0  0  0  0  0  0  0  0  0
   71.3971   83.2088   88.9381 C   0  0  0  0  0  0  0  0  0  0  0  0
   70.1418   83.2922   88.3142 C   0  0  0  0  0  0  0  0  0  0  0  0
   69.1148   82.3994   88.6449 C   0  0  0  0  0  0  0  0  0  0  0  0
   67.5870   82.5488   87.7813 Cl  0  0  0  0  0  0  0  0  0  0  0  0
   72.4796   84.2070   88.6115 C   0  0  0  0  0  0  0  0  0  0  0  0
   71.9796   85.4977   88.6338 F   0  0  0  0  0  0  0  0  0  0  0  0
   72.9792   83.9396   87.3508 F   0  0  0  0  0  0  0  0  0  0  0  0
   73.5107   84.1276   89.5315 F   0  0  0  0  0  0  0  0  0  0  0  0
  9 10  2  0
 10 11  1  0
 10  2  1  0
  2  3  2  0
  3  4  1  0
  4  1  1  0
  1 12  1  0
 12 13  1  0
 13 14  2  0
 14 15  1  0
 15 16  2  0
 16 20  1  0
 20 21  1  0
 20 22  1  0
 20 23  1  0
 16 17  1  0
 17 18  2  0
 18 19  1  0
  4  5  2  0
  5  6  1  0
  6  7  2  0
  7  8  1  0
  7  2  1  0
 18 13  1  0
M  END
>  <score>  (23) 
0.007454

>  <minimizedAffinity>  (23) 
-7.56090

>  <CNNscore>  (23) 
0.8075988293

>  <CNNaffinity>  (23) 
5.6600818634

>  <CNN_VS>  (23) 
4.5710754395

>  <MorganFP>  (23) 
<rdkit.DataStructs.cDataStructs.ExplicitBitVect object at 0x7ff72bcb49e0>

$$$$
HIPS5844
     RDKit          3D

 23 24  0  0  0  0  0  0  0  0999 V2000
   67.6468   77.3898   92.2466 O   0  0  0  0  0  0  0  0  0  0  0  0
   68.2136   74.4165   94.3909 C   0  0  0  0  0  0  0  0  0  0  0  0
   68.4144   75.4777   93.4879 C   0  0  0  0  0  0  0  0  0  0  0  0
   67.3735   76.3493   93.1497 C   0  0  0  0  0  0  0  0  0  0  0  0
   66.1037   76.1553   93.7190 C   0  0  0  0  0  0  0  0  0  0  0  0
   65.8885   75.1088   94.6154 C   0  0  0  0  0  0  0  0  0  0  0  0
   66.9311   74.2372   94.9581 C   0  0  0  0  0  0  0  0  0  0  0  0
   66.6864   73.1997   95.8581 O   0  0  0  0  0  0  0  0  0  0  0  0
   69.3857   72.8918   95.8129 O   0  0  0  0  0  0  0  0  0  0  0  0
   69.3512   73.5199   94.7207 C   0  0  0  0  0  0  0  0  0  0  0  0
   70.4010   73.3626   93.8188 O   0  0  0  0  0  0  0  0  0  0  0  0
   68.3404   77.2434   91.0062 C   0  0  0  0  0  0  0  0  0  0  0  0
   69.1052   78.5014   90.6599 C   0  0  0  0  0  0  0  0  0  0  0  0
   68.3882   79.6785   90.3876 C   0  0  0  0  0  0  0  0  0  0  0  0
   69.0550   80.8650   90.0773 C   0  0  0  0  0  0  0  0  0  0  0  0
   70.4573   80.9111   90.0658 C   0  0  0  0  0  0  0  0  0  0  0  0
   71.1792   79.7368   90.3339 C   0  0  0  0  0  0  0  0  0  0  0  0
   70.5175   78.5426   90.6461 C   0  0  0  0  0  0  0  0  0  0  0  0
   71.5029   77.1291   91.0115 Cl  0  0  0  0  0  0  0  0  0  0  0  0
   71.1780   82.1790   89.6809 C   0  0  0  0  0  0  0  0  0  0  0  0
   72.5488   81.9860   89.6898 F   0  0  0  0  0  0  0  0  0  0  0  0
   70.8579   83.1757   90.5835 F   0  0  0  0  0  0  0  0  0  0  0  0
   70.8074   82.5847   88.4105 F   0  0  0  0  0  0  0  0  0  0  0  0
  9 10  2  0
 10 11  1  0
 10  2  1  0
  2  3  2  0
  3  4  1  0
  4  1  1  0
  1 12  1  0
 12 13  1  0
 13 14  2  0
 14 15  1  0
 15 16  2  0
 16 20  1  0
 20 21  1  0
 20 22  1  0
 20 23  1  0
 16 17  1  0
 17 18  2  0
 18 19  1  0
  4  5  2  0
  5  6  1  0
  6  7  2  0
  7  8  1  0
  7  2  1  0
 18 13  1  0
M  END
>  <score>  (24) 
0.007454

>  <minimizedAffinity>  (24) 
-7.39749

>  <CNNscore>  (24) 
0.7651227713

>  <CNNaffinity>  (24) 
5.4637937546

>  <CNN_VS>  (24) 
4.1804728508

>  <MorganFP>  (24) 
<rdkit.DataStructs.cDataStructs.ExplicitBitVect object at 0x7ff72bcb4ba0>

$$$$
HIPS5963
     RDKit          3D

 18 18  0  0  0  0  0  0  0  0999 V2000
   68.6564   77.8898   90.6931 N   0  0  0  0  0  0  0  0  0  0  0  0
   68.0233   76.8380   91.4352 C   0  0  0  0  0  0  0  0  0  0  0  0
   67.4917   75.8653   90.8323 O   0  0  0  0  0  0  0  0  0  0  0  0
   68.0188   76.8853   92.8685 N   0  0  0  0  0  0  0  0  0  0  0  0
   67.4035   75.8689   93.6698 C   0  0  0  0  0  0  0  0  0  0  0  0
   66.0325   75.8894   93.9625 C   0  0  0  0  0  0  0  0  0  0  0  0
   65.6219   74.8425   94.7761 C   0  0  0  0  0  0  0  0  0  0  0  0
   66.9597   73.8808   95.1093 S   0  0  0  0  0  0  0  0  0  0  0  0
   68.0790   74.7792   94.2314 C   0  0  0  0  0  0  0  0  0  0  0  0
   69.4813   74.3772   94.0325 C   0  0  0  0  0  0  0  0  0  0  0  0
   70.0876   74.6606   92.9654 O   0  0  0  0  0  0  0  0  0  0  0  0
   70.1346   73.6479   95.0211 O   0  0  0  0  0  0  0  0  0  0  0  0
   68.7463   77.8979   89.2325 C   0  0  0  0  0  0  0  0  0  0  0  0
   67.7414   78.8907   88.6314 C   0  0  0  0  0  0  0  0  0  0  0  0
   66.7509   78.2350   87.6443 C   0  0  0  0  0  0  0  0  0  0  0  0
   67.0984   76.7784   87.2939 C   0  0  0  0  0  0  0  0  0  0  0  0
   68.3550   77.3312   85.1755 C   0  0  0  0  0  0  0  0  0  0  0  0
   67.2028   76.5358   85.7825 C   0  0  0  0  0  0  0  0  0  0  0  0
 17 18  1  0
 18 16  1  0
 16 15  1  0
 15 14  1  0
 14 13  1  0
 13  1  1  0
  1  2  1  0
  2  3  2  0
  2  4  1  0
  4  5  1  0
  5  6  1  0
  6  7  2  0
  7  8  1  0
  8  9  1  0
  9 10  1  0
 10 11  2  0
 10 12  1  0
  9  5  2  0
M  END
>  <score>  (25) 
0.640496

>  <minimizedAffinity>  (25) 
-5.32986

>  <CNNscore>  (25) 
0.8656404018

>  <CNNaffinity>  (25) 
5.1880092621

>  <CNN_VS>  (25) 
4.4909505844

>  <MorganFP>  (25) 
<rdkit.DataStructs.cDataStructs.ExplicitBitVect object at 0x7ff72c098ac0>

$$$$
HIPS5963
     RDKit          3D

 18 18  0  0  0  0  0  0  0  0999 V2000
   68.4816   78.1301   91.3636 N   0  0  0  0  0  0  0  0  0  0  0  0
   68.0706   76.9289   92.0314 C   0  0  0  0  0  0  0  0  0  0  0  0
   68.2141   75.8082   91.4697 O   0  0  0  0  0  0  0  0  0  0  0  0
   67.5175   77.0061   93.3523 N   0  0  0  0  0  0  0  0  0  0  0  0
   67.0862   75.8459   94.0746 C   0  0  0  0  0  0  0  0  0  0  0  0
   65.7584   75.3983   94.0264 C   0  0  0  0  0  0  0  0  0  0  0  0
   65.5199   74.2796   94.8126 C   0  0  0  0  0  0  0  0  0  0  0  0
   66.9657   73.8357   95.5463 S   0  0  0  0  0  0  0  0  0  0  0  0
   67.9135   75.0568   94.8821 C   0  0  0  0  0  0  0  0  0  0  0  0
   69.3708   75.1574   95.0644 C   0  0  0  0  0  0  0  0  0  0  0  0
   70.0774   74.1221   95.1895 O   0  0  0  0  0  0  0  0  0  0  0  0
   69.9707   76.4110   95.1317 O   0  0  0  0  0  0  0  0  0  0  0  0
   69.0961   78.1384   90.0355 C   0  0  0  0  0  0  0  0  0  0  0  0
   70.6165   77.9523   90.1386 C   0  0  0  0  0  0  0  0  0  0  0  0
   71.3848   79.2819   90.3040 C   0  0  0  0  0  0  0  0  0  0  0  0
   70.5146   80.5313   90.0872 C   0  0  0  0  0  0  0  0  0  0  0  0
   70.8195   82.8452   91.0490 C   0  0  0  0  0  0  0  0  0  0  0  0
   71.3332   81.8279   90.0341 C   0  0  0  0  0  0  0  0  0  0  0  0
 17 18  1  0
 18 16  1  0
 16 15  1  0
 15 14  1  0
 14 13  1  0
 13  1  1  0
  1  2  1  0
  2  3  2  0
  2  4  1  0
  4  5  1  0
  5  6  1  0
  6  7  2  0
  7  8  1  0
  8  9  1  0
  9 10  1  0
 10 11  2  0
 10 12  1  0
  9  5  2  0
M  END
>  <score>  (26) 
0.640496

>  <minimizedAffinity>  (26) 
-5.41926

>  <CNNscore>  (26) 
0.7867473364

>  <CNNaffinity>  (26) 
4.8761281967

>  <CNN_VS>  (26) 
3.8362808228

>  <MorganFP>  (26) 
<rdkit.DataStructs.cDataStructs.ExplicitBitVect object at 0x7ff72c098eb0>

$$$$
HIPS5963
     RDKit          3D

 18 18  0  0  0  0  0  0  0  0999 V2000
   67.3523   77.8503   90.7906 N   0  0  0  0  0  0  0  0  0  0  0  0
   67.2581   76.6921   91.6317 C   0  0  0  0  0  0  0  0  0  0  0  0
   67.4306   75.5394   91.1482 O   0  0  0  0  0  0  0  0  0  0  0  0
   66.9906   76.8525   93.0315 N   0  0  0  0  0  0  0  0  0  0  0  0
   66.8827   75.7385   93.9266 C   0  0  0  0  0  0  0  0  0  0  0  0
   65.6451   75.1548   94.2320 C   0  0  0  0  0  0  0  0  0  0  0  0
   65.7327   74.1085   95.1398 C   0  0  0  0  0  0  0  0  0  0  0  0
   67.3511   73.8962   95.5414 S   0  0  0  0  0  0  0  0  0  0  0  0
   67.9635   75.1295   94.5747 C   0  0  0  0  0  0  0  0  0  0  0  0
   69.4000   75.3977   94.3962 C   0  0  0  0  0  0  0  0  0  0  0  0
   70.0682   74.7768   93.5275 O   0  0  0  0  0  0  0  0  0  0  0  0
   70.0341   76.3243   95.2180 O   0  0  0  0  0  0  0  0  0  0  0  0
   67.6661   77.7804   89.3629 C   0  0  0  0  0  0  0  0  0  0  0  0
   69.1155   78.2143   89.1029 C   0  0  0  0  0  0  0  0  0  0  0  0
   69.6213   79.2818   90.0979 C   0  0  0  0  0  0  0  0  0  0  0  0
   71.1521   79.3198   90.2404 C   0  0  0  0  0  0  0  0  0  0  0  0
   71.6846   77.2848   91.6360 C   0  0  0  0  0  0  0  0  0  0  0  0
   71.7862   77.9227   90.2535 C   0  0  0  0  0  0  0  0  0  0  0  0
 17 18  1  0
 18 16  1  0
 16 15  1  0
 15 14  1  0
 14 13  1  0
 13  1  1  0
  1  2  1  0
  2  3  2  0
  2  4  1  0
  4  5  1  0
  5  6  1  0
  6  7  2  0
  7  8  1  0
  8  9  1  0
  9 10  1  0
 10 11  2  0
 10 12  1  0
  9  5  2  0
M  END
>  <score>  (27) 
0.640496

>  <minimizedAffinity>  (27) 
-5.49521

>  <CNNscore>  (27) 
0.7826318145

>  <CNNaffinity>  (27) 
5.0785446167

>  <CNN_VS>  (27) 
3.9746305943

>  <MorganFP>  (27) 
<rdkit.DataStructs.cDataStructs.ExplicitBitVect object at 0x7ff72c098660>

$$$$
HIPS6066
     RDKit          3D

 32 35  0  0  0  0  0  0  0  0999 V2000
   66.8999   75.8717   88.0505 C   0  0  0  0  0  0  0  0  0  0  0  0
   67.2121   75.9580   86.7150 C   0  0  0  0  0  0  0  0  0  0  0  0
   67.4075   77.1737   86.1024 C   0  0  0  0  0  0  0  0  0  0  0  0
   67.2806   78.3282   86.8710 C   0  0  0  0  0  0  0  0  0  0  0  0
   66.9670   78.2542   88.2098 C   0  0  0  0  0  0  0  0  0  0  0  0
   66.7843   77.0343   88.7710 C   0  0  0  0  0  0  0  0  0  0  0  0
   66.8221   79.5118   88.9760 C   0  0  0  0  0  0  0  0  0  0  0  0
   65.8669   79.5751   89.9533 C   0  0  0  0  0  0  0  0  0  0  0  0
   65.7052   80.7229   90.7178 C   0  0  0  0  0  0  0  0  0  0  0  0
   66.5145   81.8103   90.4919 C   0  0  0  0  0  0  0  0  0  0  0  0
   67.5126   81.7908   89.4963 C   0  0  0  0  0  0  0  0  0  0  0  0
   67.6058   80.6036   88.7772 C   0  0  0  0  0  0  0  0  0  0  0  0
   68.2519   82.8153   89.3098 O   0  0  0  0  0  0  0  0  0  0  0  0
   69.0023   83.8552   89.1204 C   0  0  0  0  0  0  0  0  0  0  0  0
   70.5013   83.6592   89.2539 C   0  0  0  0  0  0  0  0  0  0  0  0
   71.0023   82.7024   90.1133 C   0  0  0  0  0  0  0  0  0  0  0  0
   72.3536   82.4813   90.2752 C   0  0  0  0  0  0  0  0  0  0  0  0
   73.2247   83.2385   89.5578 C   0  0  0  0  0  0  0  0  0  0  0  0
   72.7434   84.2142   88.6805 C   0  0  0  0  0  0  0  0  0  0  0  0
   71.3895   84.4197   88.5328 C   0  0  0  0  0  0  0  0  0  0  0  0
   66.6611   74.5248   88.6280 C   0  0  0  0  0  0  0  0  0  0  0  0
   67.6847   73.8364   89.1394 O   0  0  0  0  0  0  0  0  0  0  0  0
   69.6084   74.6166   92.1285 C   0  0  0  0  0  0  0  0  0  0  0  0
   68.9170   74.7884   90.9501 C   0  0  0  0  0  0  0  0  0  0  0  0
   68.3638   73.7279   90.2861 C   0  0  0  0  0  0  0  0  0  0  0  0
   68.5409   72.4680   90.8728 C   0  0  0  0  0  0  0  0  0  0  0  0
   69.2274   72.3007   92.0442 C   0  0  0  0  0  0  0  0  0  0  0  0
   69.7835   73.3675   92.7107 C   0  0  0  0  0  0  0  0  0  0  0  0
   70.4891   73.2502   93.9011 O   0  0  0  0  0  0  0  0  0  0  0  0
   71.0890   76.4238   92.1782 O   0  0  0  0  0  0  0  0  0  0  0  0
   70.1815   75.7892   92.7720 C   0  0  0  0  0  0  0  0  0  0  0  0
   69.7703   76.2320   94.0000 O   0  0  0  0  0  0  0  0  0  0  0  0
 30 31  2  0
 31 32  1  0
 31 23  1  0
 23 24  2  0
 24 25  1  0
 25 22  1  0
 22 21  1  0
 21  1  1  0
  1  2  2  0
  2  3  1  0
  3  4  2  0
  4  5  1  0
  5  7  1  0
  7  8  2  0
  8  9  1  0
  9 10  2  0
 10 11  1  0
 11 13  1  0
 13 14  1  0
 14 15  1  0
 15 16  2  0
 16 17  1  0
 17 18  2  0
 18 19  1  0
 19 20  2  0
 11 12  2  0
  5  6  2  0
 25 26  2  0
 26 27  1  0
 27 28  2  0
 28 29  1  0
 28 23  1  0
  6  1  1  0
 12  7  1  0
 20 15  1  0
M  END
>  <score>  (28) 
-0.725974

>  <minimizedAffinity>  (28) 
-9.10015

>  <CNNscore>  (28) 
0.6860662699

>  <CNNaffinity>  (28) 
6.4885387421

>  <CNN_VS>  (28) 
4.4515676498

>  <MorganFP>  (28) 
<rdkit.DataStructs.cDataStructs.ExplicitBitVect object at 0x7ff72c098900>

$$$$
HIPS6066
     RDKit          3D

 32 35  0  0  0  0  0  0  0  0999 V2000
   66.8173   75.3718   87.2963 C   0  0  0  0  0  0  0  0  0  0  0  0
   67.2405   75.3687   85.9889 C   0  0  0  0  0  0  0  0  0  0  0  0
   67.5889   76.5337   85.3463 C   0  0  0  0  0  0  0  0  0  0  0  0
   67.5026   77.7297   86.0548 C   0  0  0  0  0  0  0  0  0  0  0  0
   67.0788   77.7452   87.3648 C   0  0  0  0  0  0  0  0  0  0  0  0
   66.7467   76.5726   87.9575 C   0  0  0  0  0  0  0  0  0  0  0  0
   66.9836   79.0452   88.0653 C   0  0  0  0  0  0  0  0  0  0  0  0
   66.7187   79.0464   89.4074 C   0  0  0  0  0  0  0  0  0  0  0  0
   66.6427   80.2373   90.1173 C   0  0  0  0  0  0  0  0  0  0  0  0
   66.8365   81.4314   89.4653 C   0  0  0  0  0  0  0  0  0  0  0  0
   67.1124   81.4792   88.0835 C   0  0  0  0  0  0  0  0  0  0  0  0
   67.1699   80.2421   87.4500 C   0  0  0  0  0  0  0  0  0  0  0  0
   67.2904   82.6032   87.5040 O   0  0  0  0  0  0  0  0  0  0  0  0
   67.4710   83.7441   86.9157 C   0  0  0  0  0  0  0  0  0  0  0  0
   68.2217   84.8106   87.6917 C   0  0  0  0  0  0  0  0  0  0  0  0
   69.1744   85.5859   87.0620 C   0  0  0  0  0  0  0  0  0  0  0  0
   69.8869   86.5679   87.7168 C   0  0  0  0  0  0  0  0  0  0  0  0
   69.6385   86.7781   89.0363 C   0  0  0  0  0  0  0  0  0  0  0  0
   68.6788   86.0068   89.6977 C   0  0  0  0  0  0  0  0  0  0  0  0
   67.9773   85.0305   89.0255 C   0  0  0  0  0  0  0  0  0  0  0  0
   66.4173   74.0782   87.9057 C   0  0  0  0  0  0  0  0  0  0  0  0
   67.2070   73.5080   88.8191 O   0  0  0  0  0  0  0  0  0  0  0  0
   69.3141   73.3694   91.7831 C   0  0  0  0  0  0  0  0  0  0  0  0
   68.5498   72.9553   90.7152 C   0  0  0  0  0  0  0  0  0  0  0  0
   67.9597   73.8537   89.8688 C   0  0  0  0  0  0  0  0  0  0  0  0
   68.1790   75.2083   90.1512 C   0  0  0  0  0  0  0  0  0  0  0  0
   68.9398   75.6166   91.2123 C   0  0  0  0  0  0  0  0  0  0  0  0
   69.5322   74.7126   92.0628 C   0  0  0  0  0  0  0  0  0  0  0  0
   70.3124   75.0760   93.1527 O   0  0  0  0  0  0  0  0  0  0  0  0
   69.1362   71.6199   93.3220 O   0  0  0  0  0  0  0  0  0  0  0  0
   69.8995   72.3571   92.6491 C   0  0  0  0  0  0  0  0  0  0  0  0
   71.2512   72.1729   92.7599 O   0  0  0  0  0  0  0  0  0  0  0  0
 30 31  2  0
 31 32  1  0
 31 23  1  0
 23 24  2  0
 24 25  1  0
 25 22  1  0
 22 21  1  0
 21  1  1  0
  1  2  2  0
  2  3  1  0
  3  4  2  0
  4  5  1  0
  5  7  1  0
  7  8  2  0
  8  9  1  0
  9 10  2  0
 10 11  1  0
 11 13  1  0
 13 14  1  0
 14 15  1  0
 15 16  2  0
 16 17  1  0
 17 18  2  0
 18 19  1  0
 19 20  2  0
 11 12  2  0
  5  6  2  0
 25 26  2  0
 26 27  1  0
 27 28  2  0
 28 29  1  0
 28 23  1  0
  6  1  1  0
 12  7  1  0
 20 15  1  0
M  END
>  <score>  (29) 
-0.725974

>  <minimizedAffinity>  (29) 
-8.93809

>  <CNNscore>  (29) 
0.5806342959

>  <CNNaffinity>  (29) 
6.2956209183

>  <CNN_VS>  (29) 
3.6554534435

>  <MorganFP>  (29) 
<rdkit.DataStructs.cDataStructs.ExplicitBitVect object at 0x7ff72bf78a50>

$$$$
HIPS6066
     RDKit          3D

 32 35  0  0  0  0  0  0  0  0999 V2000
   67.0342   78.8123   90.3622 C   0  0  0  0  0  0  0  0  0  0  0  0
   65.9403   79.5009   89.8958 C   0  0  0  0  0  0  0  0  0  0  0  0
   66.0578   80.7752   89.3920 C   0  0  0  0  0  0  0  0  0  0  0  0
   67.3213   81.3603   89.3645 C   0  0  0  0  0  0  0  0  0  0  0  0
   68.4245   80.6805   89.8302 C   0  0  0  0  0  0  0  0  0  0  0  0
   68.2610   79.4263   90.3169 C   0  0  0  0  0  0  0  0  0  0  0  0
   69.7407   81.3561   89.7991 C   0  0  0  0  0  0  0  0  0  0  0  0
   70.7389   80.8796   90.6041 C   0  0  0  0  0  0  0  0  0  0  0  0
   71.9995   81.4616   90.5956 C   0  0  0  0  0  0  0  0  0  0  0  0
   72.2500   82.5299   89.7683 C   0  0  0  0  0  0  0  0  0  0  0  0
   71.2526   83.0545   88.9211 C   0  0  0  0  0  0  0  0  0  0  0  0
   70.0201   82.4134   88.9930 C   0  0  0  0  0  0  0  0  0  0  0  0
   71.5142   84.0467   88.1609 O   0  0  0  0  0  0  0  0  0  0  0  0
   71.7796   85.0539   87.3892 C   0  0  0  0  0  0  0  0  0  0  0  0
   71.7925   86.4301   88.0290 C   0  0  0  0  0  0  0  0  0  0  0  0
   70.6130   87.0113   88.4489 C   0  0  0  0  0  0  0  0  0  0  0  0
   70.5649   88.2582   89.0353 C   0  0  0  0  0  0  0  0  0  0  0  0
   71.7282   88.9399   89.2051 C   0  0  0  0  0  0  0  0  0  0  0  0
   72.9363   88.3738   88.7887 C   0  0  0  0  0  0  0  0  0  0  0  0
   72.9634   87.1266   88.2049 C   0  0  0  0  0  0  0  0  0  0  0  0
   66.8184   77.4578   90.9310 C   0  0  0  0  0  0  0  0  0  0  0  0
   67.2966   77.1687   92.1438 O   0  0  0  0  0  0  0  0  0  0  0  0
   68.0345   74.4258   94.4189 C   0  0  0  0  0  0  0  0  0  0  0  0
   68.2068   75.3875   93.4486 C   0  0  0  0  0  0  0  0  0  0  0  0
   67.1859   76.2201   93.0796 C   0  0  0  0  0  0  0  0  0  0  0  0
   65.9658   76.0374   93.7436 C   0  0  0  0  0  0  0  0  0  0  0  0
   65.7980   75.0818   94.7079 C   0  0  0  0  0  0  0  0  0  0  0  0
   66.8249   74.2450   95.0778 C   0  0  0  0  0  0  0  0  0  0  0  0
   66.7053   73.2602   96.0497 O   0  0  0  0  0  0  0  0  0  0  0  0
   70.0621   74.0122   95.5045 O   0  0  0  0  0  0  0  0  0  0  0  0
   69.1615   73.5668   94.7499 C   0  0  0  0  0  0  0  0  0  0  0  0
   69.2804   72.2893   94.2735 O   0  0  0  0  0  0  0  0  0  0  0  0
 30 31  2  0
 31 32  1  0
 31 23  1  0
 23 24  2  0
 24 25  1  0
 25 22  1  0
 22 21  1  0
 21  1  1  0
  1  2  2  0
  2  3  1  0
  3  4  2  0
  4  5  1  0
  5  7  1  0
  7  8  2  0
  8  9  1  0
  9 10  2  0
 10 11  1  0
 11 13  1  0
 13 14  1  0
 14 15  1  0
 15 16  2  0
 16 17  1  0
 17 18  2  0
 18 19  1  0
 19 20  2  0
 11 12  2  0
  5  6  2  0
 25 26  2  0
 26 27  1  0
 27 28  2  0
 28 29  1  0
 28 23  1  0
  6  1  1  0
 12  7  1  0
 20 15  1  0
M  END
>  <score>  (30) 
-0.725974

>  <minimizedAffinity>  (30) 
-8.59380

>  <CNNscore>  (30) 
0.5754745603

>  <CNNaffinity>  (30) 
5.9808254242

>  <CNN_VS>  (30) 
3.4418129921

>  <MorganFP>  (30) 
<rdkit.DataStructs.cDataStructs.ExplicitBitVect object at 0x7ff72bf78660>

$$$$
HIPS6134
     RDKit          3D

 33 36  0  0  0  0  0  0  0  0999 V2000
   66.6307   79.4300   90.2774 C   0  0  0  0  0  0  0  0  0  0  0  0
   66.4218   79.0122   91.5998 C   0  0  0  0  0  0  0  0  0  0  0  0
   66.5792   79.9133   92.6543 C   0  0  0  0  0  0  0  0  0  0  0  0
   66.9329   81.2401   92.3985 C   0  0  0  0  0  0  0  0  0  0  0  0
   67.1301   81.6831   91.0781 C   0  0  0  0  0  0  0  0  0  0  0  0
   66.9703   80.7680   90.0208 C   0  0  0  0  0  0  0  0  0  0  0  0
   67.4974   83.0956   90.8037 C   0  0  0  0  0  0  0  0  0  0  0  0
   67.8231   83.9661   91.8583 C   0  0  0  0  0  0  0  0  0  0  0  0
   68.1659   85.2943   91.5978 C   0  0  0  0  0  0  0  0  0  0  0  0
   68.1878   85.7711   90.2858 C   0  0  0  0  0  0  0  0  0  0  0  0
   67.8627   84.9162   89.2164 C   0  0  0  0  0  0  0  0  0  0  0  0
   67.5235   83.5843   89.4845 C   0  0  0  0  0  0  0  0  0  0  0  0
   67.8671   85.3420   87.8780 O   0  0  0  0  0  0  0  0  0  0  0  0
   68.8082   84.9328   86.8848 C   0  0  0  0  0  0  0  0  0  0  0  0
   70.1977   84.8645   87.4608 C   0  0  0  0  0  0  0  0  0  0  0  0
   70.7403   83.6365   87.8745 C   0  0  0  0  0  0  0  0  0  0  0  0
   72.0345   83.5804   88.4004 C   0  0  0  0  0  0  0  0  0  0  0  0
   72.7987   84.7453   88.5096 C   0  0  0  0  0  0  0  0  0  0  0  0
   72.2707   85.9704   88.0892 C   0  0  0  0  0  0  0  0  0  0  0  0
   73.2321   87.4317   88.2216 Cl  0  0  0  0  0  0  0  0  0  0  0  0
   70.9757   86.0299   87.5621 C   0  0  0  0  0  0  0  0  0  0  0  0
   66.4165   78.4749   89.1399 C   0  0  0  0  0  0  0  0  0  0  0  0
   67.6778   77.9700   88.7106 O   0  0  0  0  0  0  0  0  0  0  0  0
   69.8101   76.1159   91.1726 C   0  0  0  0  0  0  0  0  0  0  0  0
   68.7342   76.4308   90.3197 C   0  0  0  0  0  0  0  0  0  0  0  0
   68.7310   77.6225   89.5699 C   0  0  0  0  0  0  0  0  0  0  0  0
   69.8113   78.5004   89.6780 C   0  0  0  0  0  0  0  0  0  0  0  0
   70.8843   78.2026   90.5171 C   0  0  0  0  0  0  0  0  0  0  0  0
   70.8949   77.0182   91.2660 C   0  0  0  0  0  0  0  0  0  0  0  0
   71.9818   76.7454   92.0970 O   0  0  0  0  0  0  0  0  0  0  0  0
   69.3631   73.7793   91.4232 O   0  0  0  0  0  0  0  0  0  0  0  0
   69.7747   74.8488   91.9481 C   0  0  0  0  0  0  0  0  0  0  0  0
   70.2003   74.8287   93.2743 O   0  0  0  0  0  0  0  0  0  0  0  0
 31 32  2  0
 32 33  1  0
 32 24  1  0
 24 25  2  0
 25 26  1  0
 26 23  1  0
 23 22  1  0
 22  1  1  0
  1  2  2  0
  2  3  1  0
  3  4  2  0
  4  5  1  0
  5  7  1  0
  7  8  2  0
  8  9  1  0
  9 10  2  0
 10 11  1  0
 11 13  1  0
 13 14  1  0
 14 15  1  0
 15 16  2  0
 16 17  1  0
 17 18  2  0
 18 19  1  0
 19 20  1  0
 19 21  2  0
 11 12  2  0
  5  6  2  0
 26 27  2  0
 27 28  1  0
 28 29  2  0
 29 30  1  0
 29 24  1  0
  6  1  1  0
 12  7  1  0
 21 15  1  0
M  END
>  <score>  (31) 
-0.222359

>  <minimizedAffinity>  (31) 
-8.34197

>  <CNNscore>  (31) 
0.6546207666

>  <CNNaffinity>  (31) 
6.8070449829

>  <CNN_VS>  (31) 
4.4560332298

>  <MorganFP>  (31) 
<rdkit.DataStructs.cDataStructs.ExplicitBitVect object at 0x7ff72bf784a0>

$$$$
HIPS6569
     RDKit          3D

 18 19  0  0  0  0  0  0  0  0999 V2000
   68.1391   74.2261   94.4424 C   0  0  0  0  0  0  0  0  0  0  0  0
   68.0763   75.1417   93.3750 C   0  0  0  0  0  0  0  0  0  0  0  0
   66.9210   75.8917   93.1294 C   0  0  0  0  0  0  0  0  0  0  0  0
   65.8022   75.7211   93.9621 C   0  0  0  0  0  0  0  0  0  0  0  0
   65.8485   74.8181   95.0241 C   0  0  0  0  0  0  0  0  0  0  0  0
   67.0063   74.0688   95.2734 C   0  0  0  0  0  0  0  0  0  0  0  0
   67.0235   73.1736   96.3433 O   0  0  0  0  0  0  0  0  0  0  0  0
   69.5977   72.8573   95.7538 O   0  0  0  0  0  0  0  0  0  0  0  0
   69.3896   73.4552   94.6640 C   0  0  0  0  0  0  0  0  0  0  0  0
   70.3536   73.3844   93.6611 O   0  0  0  0  0  0  0  0  0  0  0  0
   66.9312   76.7905   92.0498 O   0  0  0  0  0  0  0  0  0  0  0  0
   68.0521   77.0523   91.2051 C   0  0  0  0  0  0  0  0  0  0  0  0
   67.6029   77.4753   89.8410 C   0  0  0  0  0  0  0  0  0  0  0  0
   67.7018   76.7201   88.6796 C   0  0  0  0  0  0  0  0  0  0  0  0
   67.1533   77.3617   87.5630 C   0  0  0  0  0  0  0  0  0  0  0  0
   67.1420   76.5874   85.8202 Br  0  0  0  0  0  0  0  0  0  0  0  0
   66.6109   78.6102   87.8400 C   0  0  0  0  0  0  0  0  0  0  0  0
   66.8141   78.9163   89.4814 S   0  0  0  0  0  0  0  0  0  0  0  0
  8  9  2  0
  9 10  1  0
  9  1  1  0
  1  2  2  0
  2  3  1  0
  3 11  1  0
 11 12  1  0
 12 13  1  0
 13 14  2  0
 14 15  1  0
 15 16  1  0
 15 17  2  0
 17 18  1  0
  3  4  2  0
  4  5  1  0
  5  6  2  0
  6  7  1  0
  6  1  1  0
 18 13  1  0
M  END
>  <score>  (32) 
0.67348

>  <minimizedAffinity>  (32) 
-6.29212

>  <CNNscore>  (32) 
0.8118374944

>  <CNNaffinity>  (32) 
5.0524234772

>  <CNN_VS>  (32) 
4.1017470360

>  <MorganFP>  (32) 
<rdkit.DataStructs.cDataStructs.ExplicitBitVect object at 0x7ff72bd23970>

$$$$
HIPS6701
     RDKit          3D

 30 32  0  0  0  0  0  0  0  0999 V2000
   70.4041   78.0237   90.6686 C   0  0  0  0  0  0  0  0  0  0  0  0
   71.4924   77.5628   91.3133 N   0  0  0  0  0  0  0  0  0  0  0  0
   71.1585   76.3725   91.7869 N   0  0  0  0  0  0  0  0  0  0  0  0
   69.8805   76.1562   91.4134 C   0  0  0  0  0  0  0  0  0  0  0  0
   69.4112   77.1710   90.7256 O   0  0  0  0  0  0  0  0  0  0  0  0
   69.1087   74.9394   91.7355 C   0  0  0  0  0  0  0  0  0  0  0  0
   68.6839   74.0721   90.7156 C   0  0  0  0  0  0  0  0  0  0  0  0
   67.9491   72.9260   91.0270 C   0  0  0  0  0  0  0  0  0  0  0  0
   67.6371   72.6323   92.3560 C   0  0  0  0  0  0  0  0  0  0  0  0
   68.0551   73.4791   93.3891 C   0  0  0  0  0  0  0  0  0  0  0  0
   68.7896   74.6395   93.0716 C   0  0  0  0  0  0  0  0  0  0  0  0
   67.7216   73.1282   94.7073 O   0  0  0  0  0  0  0  0  0  0  0  0
   66.7840   73.8167   95.5319 C   0  0  0  0  0  0  0  0  0  0  0  0
   67.1659   75.1369   95.6899 F   0  0  0  0  0  0  0  0  0  0  0  0
   65.5209   73.7548   94.9705 F   0  0  0  0  0  0  0  0  0  0  0  0
   66.7490   73.2114   96.7734 F   0  0  0  0  0  0  0  0  0  0  0  0
   68.3054   79.9581   90.9784 O   0  0  0  0  0  0  0  0  0  0  0  0
   69.1971   80.1781   90.1140 C   0  0  0  0  0  0  0  0  0  0  0  0
   70.3230   79.2902   90.0030 N   0  0  0  0  0  0  0  0  0  0  0  0
   69.0794   81.3713   89.2415 C   0  0  0  0  0  0  0  0  0  0  0  0
   68.0355   81.4566   88.3044 C   0  0  0  0  0  0  0  0  0  0  0  0
   67.9166   82.5755   87.4776 C   0  0  0  0  0  0  0  0  0  0  0  0
   68.8403   83.6187   87.5675 C   0  0  0  0  0  0  0  0  0  0  0  0
   69.9026   83.5456   88.4882 C   0  0  0  0  0  0  0  0  0  0  0  0
   70.0150   82.4206   89.3155 C   0  0  0  0  0  0  0  0  0  0  0  0
   70.8688   84.5570   88.6136 O   0  0  0  0  0  0  0  0  0  0  0  0
   72.1305   84.5792   87.9492 C   0  0  0  0  0  0  0  0  0  0  0  0
   72.3966   85.8707   87.5368 F   0  0  0  0  0  0  0  0  0  0  0  0
   73.1316   84.1719   88.8129 F   0  0  0  0  0  0  0  0  0  0  0  0
   72.0990   83.7540   86.8388 F   0  0  0  0  0  0  0  0  0  0  0  0
 17 18  2  0
 18 19  1  0
 19  1  1  0
  1  2  2  0
  2  3  1  0
  3  4  2  0
  4  6  1  0
  6  7  2  0
  7  8  1  0
  8  9  2  0
  9 10  1  0
 10 12  1  0
 12 13  1  0
 13 14  1  0
 13 15  1  0
 13 16  1  0
 10 11  2  0
  4  5  1  0
 18 20  1  0
 20 21  2  0
 21 22  1  0
 22 23  2  0
 23 24  1  0
 24 26  1  0
 26 27  1  0
 27 28  1  0
 27 29  1  0
 27 30  1  0
 24 25  2  0
  5  1  1  0
 25 20  1  0
 11  6  1  0
M  END
>  <score>  (33) 
-0.247372

>  <minimizedAffinity>  (33) 
-8.94737

>  <CNNscore>  (33) 
0.6001500487

>  <CNNaffinity>  (33) 
6.1496162415

>  <CNN_VS>  (33) 
3.6906924248

>  <MorganFP>  (33) 
<rdkit.DataStructs.cDataStructs.ExplicitBitVect object at 0x7ff72bd23350>

$$$$
HIPS6701
     RDKit          3D

 30 32  0  0  0  0  0  0  0  0999 V2000
   71.3021   78.5580   90.7492 C   0  0  0  0  0  0  0  0  0  0  0  0
   72.2260   77.9256   91.4967 N   0  0  0  0  0  0  0  0  0  0  0  0
   71.6070   76.8902   92.0422 N   0  0  0  0  0  0  0  0  0  0  0  0
   70.3310   76.9337   91.6066 C   0  0  0  0  0  0  0  0  0  0  0  0
   70.1382   77.9598   90.8111 O   0  0  0  0  0  0  0  0  0  0  0  0
   69.2868   75.9572   91.9756 C   0  0  0  0  0  0  0  0  0  0  0  0
   69.0163   74.8541   91.1491 C   0  0  0  0  0  0  0  0  0  0  0  0
   68.0232   73.9376   91.5013 C   0  0  0  0  0  0  0  0  0  0  0  0
   67.2964   74.1095   92.6813 C   0  0  0  0  0  0  0  0  0  0  0  0
   67.5530   75.1981   93.5229 C   0  0  0  0  0  0  0  0  0  0  0  0
   68.5503   76.1262   93.1612 C   0  0  0  0  0  0  0  0  0  0  0  0
   66.7984   75.3146   94.7015 O   0  0  0  0  0  0  0  0  0  0  0  0
   66.8082   74.3844   95.7822 C   0  0  0  0  0  0  0  0  0  0  0  0
   66.5611   75.0371   96.9766 F   0  0  0  0  0  0  0  0  0  0  0  0
   65.8548   73.4034   95.5745 F   0  0  0  0  0  0  0  0  0  0  0  0
   68.0526   73.7880   95.8496 F   0  0  0  0  0  0  0  0  0  0  0  0
   71.7913   81.1818   91.8068 O   0  0  0  0  0  0  0  0  0  0  0  0
   71.6796   81.0532   90.5571 C   0  0  0  0  0  0  0  0  0  0  0  0
   71.5435   79.7429   89.9802 N   0  0  0  0  0  0  0  0  0  0  0  0
   71.7183   82.2624   89.6997 C   0  0  0  0  0  0  0  0  0  0  0  0
   72.8775   83.0558   89.6555 C   0  0  0  0  0  0  0  0  0  0  0  0
   72.9235   84.1969   88.8520 C   0  0  0  0  0  0  0  0  0  0  0  0
   71.8135   84.5668   88.0900 C   0  0  0  0  0  0  0  0  0  0  0  0
   70.6372   83.7947   88.1325 C   0  0  0  0  0  0  0  0  0  0  0  0
   70.5986   82.6504   88.9398 C   0  0  0  0  0  0  0  0  0  0  0  0
   69.4861   84.1251   87.3991 O   0  0  0  0  0  0  0  0  0  0  0  0
   68.6529   85.2576   87.6379 C   0  0  0  0  0  0  0  0  0  0  0  0
   68.6186   85.5096   88.9959 F   0  0  0  0  0  0  0  0  0  0  0  0
   69.1624   86.3694   86.9909 F   0  0  0  0  0  0  0  0  0  0  0  0
   67.3656   85.0033   87.1988 F   0  0  0  0  0  0  0  0  0  0  0  0
 17 18  2  0
 18 19  1  0
 19  1  1  0
  1  2  2  0
  2  3  1  0
  3  4  2  0
  4  6  1  0
  6  7  2  0
  7  8  1  0
  8  9  2  0
  9 10  1  0
 10 12  1  0
 12 13  1  0
 13 14  1  0
 13 15  1  0
 13 16  1  0
 10 11  2  0
  4  5  1  0
 18 20  1  0
 20 21  2  0
 21 22  1  0
 22 23  2  0
 23 24  1  0
 24 26  1  0
 26 27  1  0
 27 28  1  0
 27 29  1  0
 27 30  1  0
 24 25  2  0
  5  1  1  0
 25 20  1  0
 11  6  1  0
M  END
>  <score>  (34) 
-0.247372

>  <minimizedAffinity>  (34) 
-8.26170

>  <CNNscore>  (34) 
0.5455611944

>  <CNNaffinity>  (34) 
5.9838895798

>  <CNN_VS>  (34) 
3.2645778656

>  <MorganFP>  (34) 
<rdkit.DataStructs.cDataStructs.ExplicitBitVect object at 0x7ff72bd237b0>

$$$$
HIPS6707
     RDKit          3D

 25 27  0  0  0  0  0  0  0  0999 V2000
   71.4603   76.5160   91.4595 N   0  0  0  0  0  0  0  0  0  0  0  0
   72.0406   77.5862   90.9967 C   0  0  0  0  0  0  0  0  0  0  0  0
   71.3228   78.7967   90.5514 C   0  0  0  0  0  0  0  0  0  0  0  0
   69.9537   78.9837   90.4760 C   0  0  0  0  0  0  0  0  0  0  0  0
   69.7734   80.2783   90.0399 C   0  0  0  0  0  0  0  0  0  0  0  0
   71.0444   80.8093   89.8846 C   0  0  0  0  0  0  0  0  0  0  0  0
   71.9403   79.9015   90.2042 O   0  0  0  0  0  0  0  0  0  0  0  0
   71.3925   82.1781   89.4371 C   0  0  0  0  0  0  0  0  0  0  0  0
   72.6712   82.6942   89.7138 C   0  0  0  0  0  0  0  0  0  0  0  0
   73.0213   83.9830   89.2999 C   0  0  0  0  0  0  0  0  0  0  0  0
   72.0999   84.7713   88.6052 C   0  0  0  0  0  0  0  0  0  0  0  0
   72.5413   86.3879   88.0868 Cl  0  0  0  0  0  0  0  0  0  0  0  0
   70.8264   84.2691   88.3241 C   0  0  0  0  0  0  0  0  0  0  0  0
   70.4719   82.9806   88.7361 C   0  0  0  0  0  0  0  0  0  0  0  0
   70.1260   74.9100   93.3449 O   0  0  0  0  0  0  0  0  0  0  0  0
   69.4377   75.4736   92.4503 C   0  0  0  0  0  0  0  0  0  0  0  0
   70.0720   76.2940   91.4621 N   0  0  0  0  0  0  0  0  0  0  0  0
   68.0487   75.3111   92.4144 O   0  0  0  0  0  0  0  0  0  0  0  0
   67.1543   76.0269   93.2638 C   0  0  0  0  0  0  0  0  0  0  0  0
   66.9139   77.4120   92.7276 C   0  0  0  0  0  0  0  0  0  0  0  0
   66.6813   77.6200   91.3576 C   0  0  0  0  0  0  0  0  0  0  0  0
   66.4412   78.9096   90.8728 C   0  0  0  0  0  0  0  0  0  0  0  0
   66.4289   79.9972   91.7504 C   0  0  0  0  0  0  0  0  0  0  0  0
   66.6552   79.7970   93.1150 C   0  0  0  0  0  0  0  0  0  0  0  0
   66.8954   78.5091   93.6040 C   0  0  0  0  0  0  0  0  0  0  0  0
 15 16  2  0
 16 17  1  0
 17  1  1  0
  1  2  2  0
  2  3  1  0
  3  4  2  0
  4  5  1  0
  5  6  2  0
  6  8  1  0
  8  9  2  0
  9 10  1  0
 10 11  2  0
 11 12  1  0
 11 13  1  0
 13 14  2  0
  6  7  1  0
 16 18  1  0
 18 19  1  0
 19 20  1  0
 20 21  2  0
 21 22  1  0
 22 23  2  0
 23 24  1  0
 24 25  2  0
  7  3  1  0
 25 20  1  0
 14  8  1  0
M  END
>  <score>  (35) 
0.552979

>  <minimizedAffinity>  (35) 
-6.85179

>  <CNNscore>  (35) 
0.5846419334

>  <CNNaffinity>  (35) 
5.9066095352

>  <CNN_VS>  (35) 
3.4532516003

>  <MorganFP>  (35) 
<rdkit.DataStructs.cDataStructs.ExplicitBitVect object at 0x7ff72bd23580>

$$$$
HIPS6707
     RDKit          3D

 25 27  0  0  0  0  0  0  0  0999 V2000
   69.1246   72.6412   91.7623 N   0  0  0  0  0  0  0  0  0  0  0  0
   68.5068   72.2066   90.7012 C   0  0  0  0  0  0  0  0  0  0  0  0
   67.8194   73.0732   89.7239 C   0  0  0  0  0  0  0  0  0  0  0  0
   66.9965   72.6805   88.6829 C   0  0  0  0  0  0  0  0  0  0  0  0
   66.5712   73.8437   88.0790 C   0  0  0  0  0  0  0  0  0  0  0  0
   67.1518   74.8795   88.7941 C   0  0  0  0  0  0  0  0  0  0  0  0
   67.8818   74.3834   89.7687 O   0  0  0  0  0  0  0  0  0  0  0  0
   67.0017   76.3321   88.5442 C   0  0  0  0  0  0  0  0  0  0  0  0
   67.2158   76.8391   87.2499 C   0  0  0  0  0  0  0  0  0  0  0  0
   67.0787   78.2062   86.9913 C   0  0  0  0  0  0  0  0  0  0  0  0
   66.7261   79.0830   88.0209 C   0  0  0  0  0  0  0  0  0  0  0  0
   66.5545   80.7979   87.6943 Cl  0  0  0  0  0  0  0  0  0  0  0  0
   66.5103   78.5909   89.3110 C   0  0  0  0  0  0  0  0  0  0  0  0
   66.6463   77.2242   89.5742 C   0  0  0  0  0  0  0  0  0  0  0  0
   70.1280   73.4737   94.2551 O   0  0  0  0  0  0  0  0  0  0  0  0
   69.6326   74.3472   93.4915 C   0  0  0  0  0  0  0  0  0  0  0  0
   69.1004   73.9717   92.2157 N   0  0  0  0  0  0  0  0  0  0  0  0
   69.6018   75.6920   93.8758 O   0  0  0  0  0  0  0  0  0  0  0  0
   69.2635   76.7533   92.9854 C   0  0  0  0  0  0  0  0  0  0  0  0
   67.8785   77.2639   93.2768 C   0  0  0  0  0  0  0  0  0  0  0  0
   66.9089   76.4211   93.8459 C   0  0  0  0  0  0  0  0  0  0  0  0
   65.6301   76.9111   94.1292 C   0  0  0  0  0  0  0  0  0  0  0  0
   65.3121   78.2431   93.8496 C   0  0  0  0  0  0  0  0  0  0  0  0
   66.2731   79.0881   93.2875 C   0  0  0  0  0  0  0  0  0  0  0  0
   67.5531   78.6022   93.0030 C   0  0  0  0  0  0  0  0  0  0  0  0
 15 16  2  0
 16 17  1  0
 17  1  1  0
  1  2  2  0
  2  3  1  0
  3  4  2  0
  4  5  1  0
  5  6  2  0
  6  8  1  0
  8  9  2  0
  9 10  1  0
 10 11  2  0
 11 12  1  0
 11 13  1  0
 13 14  2  0
  6  7  1  0
 16 18  1  0
 18 19  1  0
 19 20  1  0
 20 21  2  0
 21 22  1  0
 22 23  2  0
 23 24  1  0
 24 25  2  0
  7  3  1  0
 25 20  1  0
 14  8  1  0
M  END
>  <score>  (36) 
0.552979

>  <minimizedAffinity>  (36) 
-7.06542

>  <CNNscore>  (36) 
0.5629330873

>  <CNNaffinity>  (36) 
6.1159162521

>  <CNN_VS>  (36) 
3.4428515434

>  <MorganFP>  (36) 
<rdkit.DataStructs.cDataStructs.ExplicitBitVect object at 0x7ff72bd232e0>

$$$$
HIPS6707
     RDKit          3D

 25 27  0  0  0  0  0  0  0  0999 V2000
   68.9571   72.5605   91.7081 N   0  0  0  0  0  0  0  0  0  0  0  0
   68.3818   72.1532   90.6129 C   0  0  0  0  0  0  0  0  0  0  0  0
   67.7261   73.0438   89.6354 C   0  0  0  0  0  0  0  0  0  0  0  0
   66.8832   72.6814   88.5994 C   0  0  0  0  0  0  0  0  0  0  0  0
   66.5031   73.8590   87.9931 C   0  0  0  0  0  0  0  0  0  0  0  0
   67.1287   74.8726   88.7020 C   0  0  0  0  0  0  0  0  0  0  0  0
   67.8422   74.3505   89.6752 O   0  0  0  0  0  0  0  0  0  0  0  0
   67.0370   76.3292   88.4474 C   0  0  0  0  0  0  0  0  0  0  0  0
   67.5886   76.8637   87.2692 C   0  0  0  0  0  0  0  0  0  0  0  0
   67.5125   78.2351   87.0082 C   0  0  0  0  0  0  0  0  0  0  0  0
   66.8851   79.0889   87.9195 C   0  0  0  0  0  0  0  0  0  0  0  0
   66.7907   80.8092   87.5901 Cl  0  0  0  0  0  0  0  0  0  0  0  0
   66.3329   78.5694   89.0935 C   0  0  0  0  0  0  0  0  0  0  0  0
   66.4066   77.1983   89.3586 C   0  0  0  0  0  0  0  0  0  0  0  0
   70.4119   73.4662   93.9391 O   0  0  0  0  0  0  0  0  0  0  0  0
   69.6757   74.2926   93.3336 C   0  0  0  0  0  0  0  0  0  0  0  0
   68.9082   73.8775   92.1976 N   0  0  0  0  0  0  0  0  0  0  0  0
   69.6033   75.6238   93.7577 O   0  0  0  0  0  0  0  0  0  0  0  0
   68.9911   76.6580   92.9901 C   0  0  0  0  0  0  0  0  0  0  0  0
   69.9441   77.1737   91.9463 C   0  0  0  0  0  0  0  0  0  0  0  0
   71.3286   76.9739   92.0785 C   0  0  0  0  0  0  0  0  0  0  0  0
   72.2039   77.4417   91.0933 C   0  0  0  0  0  0  0  0  0  0  0  0
   71.7042   78.1080   89.9708 C   0  0  0  0  0  0  0  0  0  0  0  0
   70.3278   78.3063   89.8308 C   0  0  0  0  0  0  0  0  0  0  0  0
   69.4490   77.8399   90.8135 C   0  0  0  0  0  0  0  0  0  0  0  0
 15 16  2  0
 16 17  1  0
 17  1  1  0
  1  2  2  0
  2  3  1  0
  3  4  2  0
  4  5  1  0
  5  6  2  0
  6  8  1  0
  8  9  2  0
  9 10  1  0
 10 11  2  0
 11 12  1  0
 11 13  1  0
 13 14  2  0
  6  7  1  0
 16 18  1  0
 18 19  1  0
 19 20  1  0
 20 21  2  0
 21 22  1  0
 22 23  2  0
 23 24  1  0
 24 25  2  0
  7  3  1  0
 25 20  1  0
 14  8  1  0
M  END
>  <score>  (37) 
0.552979

>  <minimizedAffinity>  (37) 
-7.49593

>  <CNNscore>  (37) 
0.5319041610

>  <CNNaffinity>  (37) 
6.0555944443

>  <CNN_VS>  (37) 
3.2209959030

>  <MorganFP>  (37) 
<rdkit.DataStructs.cDataStructs.ExplicitBitVect object at 0x7ff72bd23510>

$$$$
HIPS6708
     RDKit          3D

 19 20  0  0  0  0  0  0  0  0999 V2000
   68.3385   73.5020   90.5492 C   0  0  0  0  0  0  0  0  0  0  0  0
   67.6457   72.8083   89.5925 C   0  0  0  0  0  0  0  0  0  0  0  0
   66.9497   73.4311   88.5706 C   0  0  0  0  0  0  0  0  0  0  0  0
   66.9704   74.8078   88.5369 C   0  0  0  0  0  0  0  0  0  0  0  0
   67.6543   75.5651   89.4783 C   0  0  0  0  0  0  0  0  0  0  0  0
   68.3319   74.8784   90.4768 C   0  0  0  0  0  0  0  0  0  0  0  0
   69.0518   75.5650   91.4725 O   0  0  0  0  0  0  0  0  0  0  0  0
   68.5514   71.8381   92.2087 O   0  0  0  0  0  0  0  0  0  0  0  0
   69.0666   72.8134   91.6199 C   0  0  0  0  0  0  0  0  0  0  0  0
   70.3197   73.2253   91.9922 O   0  0  0  0  0  0  0  0  0  0  0  0
   66.2282   72.6440   87.5771 C   0  0  0  0  0  0  0  0  0  0  0  0
   66.9277   72.0139   86.6959 N   0  0  0  0  0  0  0  0  0  0  0  0
   66.2163   71.2642   85.7511 N   0  0  0  0  0  0  0  0  0  0  0  0
   66.2841   71.4717   84.3610 C   0  0  0  0  0  0  0  0  0  0  0  0
   67.0359   72.3941   83.9433 O   0  0  0  0  0  0  0  0  0  0  0  0
   65.4974   70.6316   83.4356 C   0  0  0  0  0  0  0  0  0  0  0  0
   63.9857   70.6616   83.6939 C   0  0  0  0  0  0  0  0  0  0  0  0
   63.8355   70.5665   82.1699 C   0  0  0  0  0  0  0  0  0  0  0  0
   65.1821   71.2977   82.0935 C   0  0  0  0  0  0  0  0  0  0  0  0
  8  9  2  0
  9 10  1  0
  9  1  1  0
  1  2  2  0
  2  3  1  0
  3 11  1  0
 11 12  2  0
 12 13  1  0
 13 14  1  0
 14 15  2  0
 14 16  1  0
 16 17  1  0
 17 18  1  0
 18 19  1  0
  3  4  2  0
  4  5  1  0
  5  6  2  0
  6  7  1  0
  6  1  1  0
 19 16  1  0
M  END
>  <score>  (38) 
0.273774

>  <minimizedAffinity>  (38) 
-7.29900

>  <CNNscore>  (38) 
0.6943752170

>  <CNNaffinity>  (38) 
4.7422008514

>  <CNN_VS>  (38) 
3.2928667068

>  <MorganFP>  (38) 
<rdkit.DataStructs.cDataStructs.ExplicitBitVect object at 0x7ff72bd239e0>

$$$$
HIPS6708
     RDKit          3D

 19 20  0  0  0  0  0  0  0  0999 V2000
   67.9896   74.3688   94.5423 C   0  0  0  0  0  0  0  0  0  0  0  0
   67.8932   75.3453   93.5864 C   0  0  0  0  0  0  0  0  0  0  0  0
   66.8091   76.2014   93.4951 C   0  0  0  0  0  0  0  0  0  0  0  0
   65.7976   76.0438   94.4165 C   0  0  0  0  0  0  0  0  0  0  0  0
   65.8386   75.0728   95.4078 C   0  0  0  0  0  0  0  0  0  0  0  0
   66.9541   74.2470   95.4439 C   0  0  0  0  0  0  0  0  0  0  0  0
   67.0799   73.2355   96.4146 O   0  0  0  0  0  0  0  0  0  0  0  0
   69.1594   72.3977   93.9817 O   0  0  0  0  0  0  0  0  0  0  0  0
   69.1515   73.4767   94.6134 C   0  0  0  0  0  0  0  0  0  0  0  0
   70.2444   73.8091   95.3707 O   0  0  0  0  0  0  0  0  0  0  0  0
   66.7570   77.2246   92.4570 C   0  0  0  0  0  0  0  0  0  0  0  0
   66.4458   78.4226   92.8186 N   0  0  0  0  0  0  0  0  0  0  0  0
   66.4013   79.3901   91.8072 N   0  0  0  0  0  0  0  0  0  0  0  0
   66.7105   80.7497   91.9971 C   0  0  0  0  0  0  0  0  0  0  0  0
   67.0493   81.1162   93.1553 O   0  0  0  0  0  0  0  0  0  0  0  0
   66.6366   81.7025   90.8712 C   0  0  0  0  0  0  0  0  0  0  0  0
   66.3931   83.1562   91.2959 C   0  0  0  0  0  0  0  0  0  0  0  0
   67.3128   83.5350   90.1275 C   0  0  0  0  0  0  0  0  0  0  0  0
   67.9983   82.1825   90.3617 C   0  0  0  0  0  0  0  0  0  0  0  0
  8  9  2  0
  9 10  1  0
  9  1  1  0
  1  2  2  0
  2  3  1  0
  3 11  1  0
 11 12  2  0
 12 13  1  0
 13 14  1  0
 14 15  2  0
 14 16  1  0
 16 17  1  0
 17 18  1  0
 18 19  1  0
  3  4  2  0
  4  5  1  0
  5  6  2  0
  6  7  1  0
  6  1  1  0
 19 16  1  0
M  END
>  <score>  (39) 
0.273774

>  <minimizedAffinity>  (39) 
-5.90086

>  <CNNscore>  (39) 
0.6751087904

>  <CNNaffinity>  (39) 
4.6322088242

>  <CNN_VS>  (39) 
3.1272449493

>  <MorganFP>  (39) 
<rdkit.DataStructs.cDataStructs.ExplicitBitVect object at 0x7ff72bd234a0>

$$$$
HIPS6785
     RDKit          3D

 20 20  0  0  0  0  0  0  0  0999 V2000
   67.1150   73.7521   88.7602 C   0  0  0  0  0  0  0  0  0  0  0  0
   67.1307   75.1513   88.8100 C   0  0  0  0  0  0  0  0  0  0  0  0
   67.7877   75.8134   89.8474 C   0  0  0  0  0  0  0  0  0  0  0  0
   68.4394   75.0945   90.8548 C   0  0  0  0  0  0  0  0  0  0  0  0
   69.0082   75.8170   91.9057 O   0  0  0  0  0  0  0  0  0  0  0  0
   68.4703   73.6798   90.7977 C   0  0  0  0  0  0  0  0  0  0  0  0
   67.7868   73.0228   89.7573 C   0  0  0  0  0  0  0  0  0  0  0  0
   69.2282   72.8656   91.7729 C   0  0  0  0  0  0  0  0  0  0  0  0
   70.3359   73.2773   92.2122 O   0  0  0  0  0  0  0  0  0  0  0  0
   68.7024   71.6723   92.2599 O   0  0  0  0  0  0  0  0  0  0  0  0
   66.9068   72.0315   87.0754 N   0  0  0  0  0  0  0  0  0  0  0  0
   66.4033   73.0756   87.6566 C   0  0  0  0  0  0  0  0  0  0  0  0
   66.9907   70.7073   85.0082 C   0  0  0  0  0  0  0  0  0  0  0  0
   68.2506   70.7027   85.0507 O   0  0  0  0  0  0  0  0  0  0  0  0
   66.2427   71.3762   86.0268 N   0  0  0  0  0  0  0  0  0  0  0  0
   66.2841   69.9747   83.9107 C   0  0  0  0  0  0  0  0  0  0  0  0
   64.0599   70.0518   82.0141 C   0  0  0  0  0  0  0  0  0  0  0  0
   64.9280   70.9493   83.2827 S   0  0  0  0  0  0  0  0  0  0  0  0
   65.4677   72.2253   82.7012 O   0  0  0  0  0  0  0  0  0  0  0  0
   63.9780   71.2786   84.3998 O   0  0  0  0  0  0  0  0  0  0  0  0
 17 18  1  0
 18 19  2  0
 18 20  2  0
 18 16  1  0
 16 13  1  0
 13 14  2  0
 13 15  1  0
 15 11  1  0
 11 12  2  0
 12  1  1  0
  1  2  2  0
  2  3  1  0
  3  4  2  0
  4  5  1  0
  4  6  1  0
  6  8  1  0
  8  9  2  0
  8 10  1  0
  6  7  2  0
  7  1  1  0
M  END
>  <score>  (40) 
0.176673

>  <minimizedAffinity>  (40) 
-7.37772

>  <CNNscore>  (40) 
0.7000671625

>  <CNNaffinity>  (40) 
4.6967315674

>  <CNN_VS>  (40) 
3.2880275249

>  <MorganFP>  (40) 
<rdkit.DataStructs.cDataStructs.ExplicitBitVect object at 0x7ff72bd23740>

$$$$
HIPS6785
     RDKit          3D

 20 20  0  0  0  0  0  0  0  0999 V2000
   66.9310   77.0953   93.4874 C   0  0  0  0  0  0  0  0  0  0  0  0
   65.9009   76.2539   93.9252 C   0  0  0  0  0  0  0  0  0  0  0  0
   66.1057   74.8771   94.0186 C   0  0  0  0  0  0  0  0  0  0  0  0
   67.3389   74.3129   93.6763 C   0  0  0  0  0  0  0  0  0  0  0  0
   67.4513   72.9217   93.7160 O   0  0  0  0  0  0  0  0  0  0  0  0
   68.4053   75.1527   93.2722 C   0  0  0  0  0  0  0  0  0  0  0  0
   68.1805   76.5378   93.1626 C   0  0  0  0  0  0  0  0  0  0  0  0
   69.7617   74.6308   92.9964 C   0  0  0  0  0  0  0  0  0  0  0  0
   70.5134   75.2289   92.1798 O   0  0  0  0  0  0  0  0  0  0  0  0
   70.2434   73.5157   93.6761 O   0  0  0  0  0  0  0  0  0  0  0  0
   67.1404   79.2379   92.3884 N   0  0  0  0  0  0  0  0  0  0  0  0
   66.6848   78.5484   93.3876 C   0  0  0  0  0  0  0  0  0  0  0  0
   66.1488   81.1370   91.1869 C   0  0  0  0  0  0  0  0  0  0  0  0
   65.6729   80.3536   90.3214 O   0  0  0  0  0  0  0  0  0  0  0  0
   66.9140   80.6186   92.2777 N   0  0  0  0  0  0  0  0  0  0  0  0
   65.8730   82.6049   91.0884 C   0  0  0  0  0  0  0  0  0  0  0  0
   67.7104   82.8807   88.8305 C   0  0  0  0  0  0  0  0  0  0  0  0
   67.3034   83.4674   90.4610 S   0  0  0  0  0  0  0  0  0  0  0  0
   68.4677   83.2202   91.3779 O   0  0  0  0  0  0  0  0  0  0  0  0
   67.0235   84.9430   90.4049 O   0  0  0  0  0  0  0  0  0  0  0  0
 17 18  1  0
 18 19  2  0
 18 20  2  0
 18 16  1  0
 16 13  1  0
 13 14  2  0
 13 15  1  0
 15 11  1  0
 11 12  2  0
 12  1  1  0
  1  2  2  0
  2  3  1  0
  3  4  2  0
  4  5  1  0
  4  6  1  0
  6  8  1  0
  8  9  2  0
  8 10  1  0
  6  7  2  0
  7  1  1  0
M  END
>  <score>  (41) 
0.176673

>  <minimizedAffinity>  (41) 
-5.16409

>  <CNNscore>  (41) 
0.6609857678

>  <CNNaffinity>  (41) 
4.5137567520

>  <CNN_VS>  (41) 
2.9835290909

>  <MorganFP>  (41) 
<rdkit.DataStructs.cDataStructs.ExplicitBitVect object at 0x7ff72bd23040>

$$$$
HIPS6785
     RDKit          3D

 20 20  0  0  0  0  0  0  0  0999 V2000
   67.1483   73.5448   88.8457 C   0  0  0  0  0  0  0  0  0  0  0  0
   67.7182   72.8401   89.9130 C   0  0  0  0  0  0  0  0  0  0  0  0
   68.3859   73.5205   90.9317 C   0  0  0  0  0  0  0  0  0  0  0  0
   68.4996   74.9143   90.9053 C   0  0  0  0  0  0  0  0  0  0  0  0
   69.2488   75.5250   91.9130 O   0  0  0  0  0  0  0  0  0  0  0  0
   67.8928   75.6468   89.8561 C   0  0  0  0  0  0  0  0  0  0  0  0
   67.2394   74.9479   88.8238 C   0  0  0  0  0  0  0  0  0  0  0  0
   67.8877   77.1258   89.8245 C   0  0  0  0  0  0  0  0  0  0  0  0
   67.5494   77.7772   90.8496 O   0  0  0  0  0  0  0  0  0  0  0  0
   68.3119   77.8115   88.6899 O   0  0  0  0  0  0  0  0  0  0  0  0
   67.0493   71.8407   87.1344 N   0  0  0  0  0  0  0  0  0  0  0  0
   66.4558   72.7996   87.7746 C   0  0  0  0  0  0  0  0  0  0  0  0
   67.0539   70.9184   84.8577 C   0  0  0  0  0  0  0  0  0  0  0  0
   68.2092   71.3831   84.6613 O   0  0  0  0  0  0  0  0  0  0  0  0
   66.4050   71.1218   86.1154 N   0  0  0  0  0  0  0  0  0  0  0  0
   66.3849   70.1186   83.7838 C   0  0  0  0  0  0  0  0  0  0  0  0
   64.0627   69.9499   82.0149 C   0  0  0  0  0  0  0  0  0  0  0  0
   64.9364   70.9698   83.1831 S   0  0  0  0  0  0  0  0  0  0  0  0
   65.3596   72.2423   82.5057 O   0  0  0  0  0  0  0  0  0  0  0  0
   64.0277   71.3014   84.3335 O   0  0  0  0  0  0  0  0  0  0  0  0
 17 18  1  0
 18 19  2  0
 18 20  2  0
 18 16  1  0
 16 13  1  0
 13 14  2  0
 13 15  1  0
 15 11  1  0
 11 12  2  0
 12  1  1  0
  1  2  2  0
  2  3  1  0
  3  4  2  0
  4  5  1  0
  4  6  1  0
  6  8  1  0
  8  9  2  0
  8 10  1  0
  6  7  2  0
  7  1  1  0
M  END
>  <score>  (42) 
0.176673

>  <minimizedAffinity>  (42) 
-6.91796

>  <CNNscore>  (42) 
0.5875727534

>  <CNNaffinity>  (42) 
4.5587539673

>  <CNN_VS>  (42) 
2.6785995960

>  <MorganFP>  (42) 
<rdkit.DataStructs.cDataStructs.ExplicitBitVect object at 0x7ff72bd23a50>

$$$$
HIPS6789
     RDKit          3D

 19 20  0  0  0  0  0  0  0  0999 V2000
   68.0471   77.6876   91.8786 N   0  0  0  0  0  0  0  0  0  0  0  0
   67.0828   76.8197   91.9379 C   0  0  0  0  0  0  0  0  0  0  0  0
   66.9519   75.8880   93.0803 C   0  0  0  0  0  0  0  0  0  0  0  0
   67.7595   74.7383   93.1080 C   0  0  0  0  0  0  0  0  0  0  0  0
   67.6686   73.8307   94.1669 C   0  0  0  0  0  0  0  0  0  0  0  0
   66.7704   74.0570   95.2124 C   0  0  0  0  0  0  0  0  0  0  0  0
   66.6908   73.1435   96.2612 O   0  0  0  0  0  0  0  0  0  0  0  0
   65.9594   75.1984   95.1959 C   0  0  0  0  0  0  0  0  0  0  0  0
   66.0447   76.1116   94.1392 C   0  0  0  0  0  0  0  0  0  0  0  0
   65.2398   77.2042   94.1595 F   0  0  0  0  0  0  0  0  0  0  0  0
   67.0460   80.3693   91.8295 O   0  0  0  0  0  0  0  0  0  0  0  0
   67.5475   79.8824   90.7806 C   0  0  0  0  0  0  0  0  0  0  0  0
   68.2062   78.6050   90.8226 N   0  0  0  0  0  0  0  0  0  0  0  0
   67.4863   80.6594   89.5303 C   0  0  0  0  0  0  0  0  0  0  0  0
   66.8401   80.2898   88.3519 C   0  0  0  0  0  0  0  0  0  0  0  0
   66.9457   81.2494   87.3379 C   0  0  0  0  0  0  0  0  0  0  0  0
   67.6685   82.3694   87.7196 C   0  0  0  0  0  0  0  0  0  0  0  0
   67.9963   83.7663   86.7162 Cl  0  0  0  0  0  0  0  0  0  0  0  0
   68.1774   82.1805   89.3086 S   0  0  0  0  0  0  0  0  0  0  0  0
 11 12  2  0
 12 13  1  0
 13  1  1  0
  1  2  2  0
  2  3  1  0
  3  4  2  0
  4  5  1  0
  5  6  2  0
  6  7  1  0
  6  8  1  0
  8  9  2  0
  9 10  1  0
 12 14  1  0
 14 15  2  0
 15 16  1  0
 16 17  2  0
 17 18  1  0
 17 19  1  0
  9  3  1  0
 19 14  1  0
M  END
>  <score>  (43) 
0.35716

>  <minimizedAffinity>  (43) 
-6.09360

>  <CNNscore>  (43) 
0.6374231577

>  <CNNaffinity>  (43) 
5.1406459808

>  <CNN_VS>  (43) 
3.2767667770

>  <MorganFP>  (43) 
<rdkit.DataStructs.cDataStructs.ExplicitBitVect object at 0x7ff72bd23cf0>

$$$$
HIPS6790
     RDKit          3D

 22 24  0  0  0  0  0  0  0  0999 V2000
   69.7508   76.9830   90.8833 C   0  0  0  0  0  0  0  0  0  0  0  0
   69.5394   78.2921   90.4080 C   0  0  0  0  0  0  0  0  0  0  0  0
   68.4451   78.5994   89.5927 C   0  0  0  0  0  0  0  0  0  0  0  0
   67.5406   77.5827   89.2446 C   0  0  0  0  0  0  0  0  0  0  0  0
   67.7359   76.2815   89.7074 C   0  0  0  0  0  0  0  0  0  0  0  0
   68.8319   75.9712   90.5242 C   0  0  0  0  0  0  0  0  0  0  0  0
   68.9966   74.6628   90.9778 O   0  0  0  0  0  0  0  0  0  0  0  0
   70.7608   76.2605   92.9187 O   0  0  0  0  0  0  0  0  0  0  0  0
   70.9259   76.6989   91.7476 C   0  0  0  0  0  0  0  0  0  0  0  0
   72.2218   76.9108   91.2850 O   0  0  0  0  0  0  0  0  0  0  0  0
   68.2951   79.9229   89.1535 O   0  0  0  0  0  0  0  0  0  0  0  0
   68.7170   81.0708   89.8853 C   0  0  0  0  0  0  0  0  0  0  0  0
   69.2485   82.1072   88.9253 C   0  0  0  0  0  0  0  0  0  0  0  0
   68.3994   82.5838   87.9117 C   0  0  0  0  0  0  0  0  0  0  0  0
   68.8375   83.5504   87.0072 C   0  0  0  0  0  0  0  0  0  0  0  0
   70.1274   84.0673   87.1001 C   0  0  0  0  0  0  0  0  0  0  0  0
   70.9967   83.6204   88.1045 C   0  0  0  0  0  0  0  0  0  0  0  0
   72.2930   84.1518   88.1960 C   0  0  0  0  0  0  0  0  0  0  0  0
   73.1623   83.7183   89.1973 C   0  0  0  0  0  0  0  0  0  0  0  0
   72.7480   82.7539   90.1152 C   0  0  0  0  0  0  0  0  0  0  0  0
   71.4623   82.2133   90.0387 C   0  0  0  0  0  0  0  0  0  0  0  0
   70.5644   82.6342   89.0331 C   0  0  0  0  0  0  0  0  0  0  0  0
  8  9  2  0
  9 10  1  0
  9  1  1  0
  1  2  2  0
  2  3  1  0
  3 11  1  0
 11 12  1  0
 12 13  1  0
 13 14  2  0
 14 15  1  0
 15 16  2  0
 16 17  1  0
 17 18  2  0
 18 19  1  0
 19 20  2  0
 20 21  1  0
 21 22  2  0
  3  4  2  0
  4  5  1  0
  5  6  2  0
  6  7  1  0
  6  1  1  0
 22 13  1  0
 22 17  1  0
M  END
>  <score>  (44) 
0.107624

>  <minimizedAffinity>  (44) 
-7.81395

>  <CNNscore>  (44) 
0.8133391738

>  <CNNaffinity>  (44) 
5.4506492615

>  <CNN_VS>  (44) 
4.4332265854

>  <MorganFP>  (44) 
<rdkit.DataStructs.cDataStructs.ExplicitBitVect object at 0x7ff72bd23f20>

$$$$
HIPS6790
     RDKit          3D

 22 24  0  0  0  0  0  0  0  0999 V2000
   69.5835   76.4799   91.1355 C   0  0  0  0  0  0  0  0  0  0  0  0
   70.2502   77.7120   90.9886 C   0  0  0  0  0  0  0  0  0  0  0  0
   69.8569   78.6376   90.0164 C   0  0  0  0  0  0  0  0  0  0  0  0
   68.7757   78.3316   89.1736 C   0  0  0  0  0  0  0  0  0  0  0  0
   68.1050   77.1158   89.3067 C   0  0  0  0  0  0  0  0  0  0  0  0
   68.4976   76.1867   90.2800 C   0  0  0  0  0  0  0  0  0  0  0  0
   67.8029   74.9829   90.3942 O   0  0  0  0  0  0  0  0  0  0  0  0
   70.2851   74.3262   91.8799 O   0  0  0  0  0  0  0  0  0  0  0  0
   70.0328   75.5246   92.1815 C   0  0  0  0  0  0  0  0  0  0  0  0
   70.1817   75.9310   93.5048 O   0  0  0  0  0  0  0  0  0  0  0  0
   70.5652   79.8447   89.9235 O   0  0  0  0  0  0  0  0  0  0  0  0
   70.0069   81.1316   90.1751 C   0  0  0  0  0  0  0  0  0  0  0  0
   70.9261   82.1918   89.6191 C   0  0  0  0  0  0  0  0  0  0  0  0
   72.2330   82.2836   90.1282 C   0  0  0  0  0  0  0  0  0  0  0  0
   73.1256   83.2371   89.6398 C   0  0  0  0  0  0  0  0  0  0  0  0
   72.7364   84.1122   88.6287 C   0  0  0  0  0  0  0  0  0  0  0  0
   71.4434   84.0416   88.0926 C   0  0  0  0  0  0  0  0  0  0  0  0
   71.0611   84.9225   87.0683 C   0  0  0  0  0  0  0  0  0  0  0  0
   69.7786   84.8543   86.5236 C   0  0  0  0  0  0  0  0  0  0  0  0
   68.8676   83.9089   86.9933 C   0  0  0  0  0  0  0  0  0  0  0  0
   69.2302   83.0252   88.0125 C   0  0  0  0  0  0  0  0  0  0  0  0
   70.5218   83.0755   88.5815 C   0  0  0  0  0  0  0  0  0  0  0  0
  8  9  2  0
  9 10  1  0
  9  1  1  0
  1  2  2  0
  2  3  1  0
  3 11  1  0
 11 12  1  0
 12 13  1  0
 13 14  2  0
 14 15  1  0
 15 16  2  0
 16 17  1  0
 17 18  2  0
 18 19  1  0
 19 20  2  0
 20 21  1  0
 21 22  2  0
  3  4  2  0
  4  5  1  0
  5  6  2  0
  6  7  1  0
  6  1  1  0
 22 13  1  0
 22 17  1  0
M  END
>  <score>  (45) 
0.107624

>  <minimizedAffinity>  (45) 
-8.15415

>  <CNNscore>  (45) 
0.7503952980

>  <CNNaffinity>  (45) 
5.2669095993

>  <CNN_VS>  (45) 
3.9522643089

>  <MorganFP>  (45) 
<rdkit.DataStructs.cDataStructs.ExplicitBitVect object at 0x7ff72bd23d60>

$$$$
HIPS6790
     RDKit          3D

 22 24  0  0  0  0  0  0  0  0999 V2000
   69.1282   77.0794   91.5257 C   0  0  0  0  0  0  0  0  0  0  0  0
   68.8984   78.2771   90.8207 C   0  0  0  0  0  0  0  0  0  0  0  0
   69.9518   78.9871   90.2352 C   0  0  0  0  0  0  0  0  0  0  0  0
   71.2617   78.4938   90.3520 C   0  0  0  0  0  0  0  0  0  0  0  0
   71.5057   77.3091   91.0467 C   0  0  0  0  0  0  0  0  0  0  0  0
   70.4517   76.5962   91.6344 C   0  0  0  0  0  0  0  0  0  0  0  0
   70.7257   75.4108   92.3160 O   0  0  0  0  0  0  0  0  0  0  0  0
   67.6691   75.2040   91.7226 O   0  0  0  0  0  0  0  0  0  0  0  0
   67.9808   76.3555   92.1323 C   0  0  0  0  0  0  0  0  0  0  0  0
   67.2330   76.9306   93.1562 O   0  0  0  0  0  0  0  0  0  0  0  0
   69.6528   80.1731   89.5487 O   0  0  0  0  0  0  0  0  0  0  0  0
   69.5443   81.4561   90.1598 C   0  0  0  0  0  0  0  0  0  0  0  0
   70.6835   82.3292   89.6930 C   0  0  0  0  0  0  0  0  0  0  0  0
   71.9441   82.1688   90.2936 C   0  0  0  0  0  0  0  0  0  0  0  0
   73.0324   82.9415   89.8899 C   0  0  0  0  0  0  0  0  0  0  0  0
   72.8881   83.8833   88.8741 C   0  0  0  0  0  0  0  0  0  0  0  0
   71.6470   84.0622   88.2480 C   0  0  0  0  0  0  0  0  0  0  0  0
   71.5116   85.0084   87.2196 C   0  0  0  0  0  0  0  0  0  0  0  0
   70.2818   85.1877   86.5858 C   0  0  0  0  0  0  0  0  0  0  0  0
   69.1784   84.4265   86.9697 C   0  0  0  0  0  0  0  0  0  0  0  0
   69.2944   83.4813   87.9915 C   0  0  0  0  0  0  0  0  0  0  0  0
   70.5280   83.2825   88.6499 C   0  0  0  0  0  0  0  0  0  0  0  0
  8  9  2  0
  9 10  1  0
  9  1  1  0
  1  2  2  0
  2  3  1  0
  3 11  1  0
 11 12  1  0
 12 13  1  0
 13 14  2  0
 14 15  1  0
 15 16  2  0
 16 17  1  0
 17 18  2  0
 18 19  1  0
 19 20  2  0
 20 21  1  0
 21 22  2  0
  3  4  2  0
  4  5  1  0
  5  6  2  0
  6  7  1  0
  6  1  1  0
 22 13  1  0
 22 17  1  0
M  END
>  <score>  (46) 
0.107624

>  <minimizedAffinity>  (46) 
-7.98815

>  <CNNscore>  (46) 
0.7006786466

>  <CNNaffinity>  (46) 
5.2269439697

>  <CNN_VS>  (46) 
3.6624081135

>  <MorganFP>  (46) 
<rdkit.DataStructs.cDataStructs.ExplicitBitVect object at 0x7ff72bd23900>

$$$$
HIPS6794
     RDKit          3D

 23 25  0  0  0  0  0  0  0  0999 V2000
   67.3879   80.4746   91.0592 C   0  0  0  0  0  0  0  0  0  0  0  0
   68.2202   81.7175   91.0641 C   0  0  0  0  0  0  0  0  0  0  0  0
   68.3213   82.6165   92.1064 C   0  0  0  0  0  0  0  0  0  0  0  0
   69.1490   83.6215   91.6530 C   0  0  0  0  0  0  0  0  0  0  0  0
   69.5041   83.2678   90.3614 C   0  0  0  0  0  0  0  0  0  0  0  0
   68.9282   82.1315   90.0401 O   0  0  0  0  0  0  0  0  0  0  0  0
   70.3420   84.0441   89.4227 C   0  0  0  0  0  0  0  0  0  0  0  0
   69.7324   85.0791   88.6920 C   0  0  0  0  0  0  0  0  0  0  0  0
   70.4782   85.8583   87.8048 C   0  0  0  0  0  0  0  0  0  0  0  0
   71.8387   85.6069   87.6271 C   0  0  0  0  0  0  0  0  0  0  0  0
   72.4543   84.5679   88.3275 C   0  0  0  0  0  0  0  0  0  0  0  0
   71.7179   83.7785   89.2205 C   0  0  0  0  0  0  0  0  0  0  0  0
   72.5423   82.4206   89.9798 Cl  0  0  0  0  0  0  0  0  0  0  0  0
   67.9812   79.4723   90.1743 N   0  0  0  0  0  0  0  0  0  0  0  0
   69.9832   76.7109   91.7427 C   0  0  0  0  0  0  0  0  0  0  0  0
   71.2617   76.9784   91.2269 C   0  0  0  0  0  0  0  0  0  0  0  0
   71.4657   78.0655   90.3754 C   0  0  0  0  0  0  0  0  0  0  0  0
   70.3999   78.8964   90.0258 C   0  0  0  0  0  0  0  0  0  0  0  0
   69.1076   78.6422   90.5223 C   0  0  0  0  0  0  0  0  0  0  0  0
   68.9125   77.5511   91.3854 C   0  0  0  0  0  0  0  0  0  0  0  0
   70.4706   74.5172   92.5312 O   0  0  0  0  0  0  0  0  0  0  0  0
   69.7704   75.5594   92.6476 C   0  0  0  0  0  0  0  0  0  0  0  0
   68.7929   75.6162   93.6379 O   0  0  0  0  0  0  0  0  0  0  0  0
 21 22  2  0
 22 23  1  0
 22 15  1  0
 15 16  2  0
 16 17  1  0
 17 18  2  0
 18 19  1  0
 19 14  1  0
 14  1  1  0
  1  2  1  0
  2  3  2  0
  3  4  1  0
  4  5  2  0
  5  7  1  0
  7  8  2  0
  8  9  1  0
  9 10  2  0
 10 11  1  0
 11 12  2  0
 12 13  1  0
  5  6  1  0
 19 20  2  0
 20 15  1  0
  6  2  1  0
 12  7  1  0
M  END
>  <score>  (47) 
-0.493566

>  <minimizedAffinity>  (47) 
-6.81882

>  <CNNscore>  (47) 
0.8158687949

>  <CNNaffinity>  (47) 
5.8753147125

>  <CNN_VS>  (47) 
4.7934861183

>  <MorganFP>  (47) 
<rdkit.DataStructs.cDataStructs.ExplicitBitVect object at 0x7ff72bd23c10>

$$$$
HIPS6794
     RDKit          3D

 23 25  0  0  0  0  0  0  0  0999 V2000
   67.2622   79.2505   89.3269 C   0  0  0  0  0  0  0  0  0  0  0  0
   67.8130   80.6412   89.3276 C   0  0  0  0  0  0  0  0  0  0  0  0
   67.0865   81.7965   89.5333 C   0  0  0  0  0  0  0  0  0  0  0  0
   67.9863   82.8321   89.3973 C   0  0  0  0  0  0  0  0  0  0  0  0
   69.2081   82.2402   89.1210 C   0  0  0  0  0  0  0  0  0  0  0  0
   69.0677   80.9345   89.0804 O   0  0  0  0  0  0  0  0  0  0  0  0
   70.4877   82.9254   88.8399 C   0  0  0  0  0  0  0  0  0  0  0  0
   70.5979   83.6573   87.6445 C   0  0  0  0  0  0  0  0  0  0  0  0
   71.7758   84.3409   87.3350 C   0  0  0  0  0  0  0  0  0  0  0  0
   72.8621   84.2930   88.2087 C   0  0  0  0  0  0  0  0  0  0  0  0
   72.7772   83.5518   89.3887 C   0  0  0  0  0  0  0  0  0  0  0  0
   71.6016   82.8613   89.7113 C   0  0  0  0  0  0  0  0  0  0  0  0
   71.6143   81.8619   91.1609 Cl  0  0  0  0  0  0  0  0  0  0  0  0
   66.6027   78.9672   90.6015 N   0  0  0  0  0  0  0  0  0  0  0  0
   69.0182   76.7677   92.4511 C   0  0  0  0  0  0  0  0  0  0  0  0
   68.3305   76.5684   93.6592 C   0  0  0  0  0  0  0  0  0  0  0  0
   67.0761   77.1467   93.8608 C   0  0  0  0  0  0  0  0  0  0  0  0
   66.4938   77.9315   92.8641 C   0  0  0  0  0  0  0  0  0  0  0  0
   67.1684   78.1538   91.6489 C   0  0  0  0  0  0  0  0  0  0  0  0
   68.4266   77.5612   91.4508 C   0  0  0  0  0  0  0  0  0  0  0  0
   70.4411   74.9616   91.8307 O   0  0  0  0  0  0  0  0  0  0  0  0
   70.3466   76.1508   92.2389 C   0  0  0  0  0  0  0  0  0  0  0  0
   71.5068   76.8794   92.4888 O   0  0  0  0  0  0  0  0  0  0  0  0
 21 22  2  0
 22 23  1  0
 22 15  1  0
 15 16  2  0
 16 17  1  0
 17 18  2  0
 18 19  1  0
 19 14  1  0
 14  1  1  0
  1  2  1  0
  2  3  2  0
  3  4  1  0
  4  5  2  0
  5  7  1  0
  7  8  2  0
  8  9  1  0
  9 10  2  0
 10 11  1  0
 11 12  2  0
 12 13  1  0
  5  6  1  0
 19 20  2  0
 20 15  1  0
  6  2  1  0
 12  7  1  0
M  END
>  <score>  (48) 
-0.493566

>  <minimizedAffinity>  (48) 
-6.72886

>  <CNNscore>  (48) 
0.8045359254

>  <CNNaffinity>  (48) 
5.8610782623

>  <CNN_VS>  (48) 
4.7154479027

>  <MorganFP>  (48) 
<rdkit.DataStructs.cDataStructs.ExplicitBitVect object at 0x7ff72bd23190>

$$$$
HIPS6862
     RDKit          3D

 24 26  0  0  0  0  0  0  0  0999 V2000
   68.3391   73.1798   90.9376 O   0  0  0  0  0  0  0  0  0  0  0  0
   70.4743   70.3050   91.9055 C   0  0  0  0  0  0  0  0  0  0  0  0
   69.6658   71.1827   91.1583 C   0  0  0  0  0  0  0  0  0  0  0  0
   69.1910   72.3764   91.7116 C   0  0  0  0  0  0  0  0  0  0  0  0
   69.5805   72.7333   93.0127 C   0  0  0  0  0  0  0  0  0  0  0  0
   70.3877   71.8787   93.7631 C   0  0  0  0  0  0  0  0  0  0  0  0
   70.8288   70.6618   93.2270 C   0  0  0  0  0  0  0  0  0  0  0  0
   71.6125   69.8146   94.0104 O   0  0  0  0  0  0  0  0  0  0  0  0
   71.9914   68.4755   91.6407 O   0  0  0  0  0  0  0  0  0  0  0  0
   70.9106   69.0237   91.2943 C   0  0  0  0  0  0  0  0  0  0  0  0
   70.1214   68.4073   90.3263 O   0  0  0  0  0  0  0  0  0  0  0  0
   68.6771   74.4739   90.4312 C   0  0  0  0  0  0  0  0  0  0  0  0
   67.4218   75.3399   90.2728 C   0  0  0  0  0  0  0  0  0  0  0  0
   67.2093   76.1756   91.4114 O   0  0  0  0  0  0  0  0  0  0  0  0
   67.9171   76.1096   92.6247 C   0  0  0  0  0  0  0  0  0  0  0  0
   69.1817   76.7089   92.7799 C   0  0  0  0  0  0  0  0  0  0  0  0
   69.8821   76.5875   93.9812 C   0  0  0  0  0  0  0  0  0  0  0  0
   69.3383   75.8690   95.0453 C   0  0  0  0  0  0  0  0  0  0  0  0
   68.0774   75.2711   94.9200 C   0  0  0  0  0  0  0  0  0  0  0  0
   67.5355   74.5300   95.9817 C   0  0  0  0  0  0  0  0  0  0  0  0
   66.2862   73.9205   95.8478 C   0  0  0  0  0  0  0  0  0  0  0  0
   65.5659   74.0501   94.6595 C   0  0  0  0  0  0  0  0  0  0  0  0
   66.0903   74.7877   93.5953 C   0  0  0  0  0  0  0  0  0  0  0  0
   67.3519   75.4027   93.7080 C   0  0  0  0  0  0  0  0  0  0  0  0
  9 10  2  0
 10 11  1  0
 10  2  1  0
  2  3  2  0
  3  4  1  0
  4  1  1  0
  1 12  1  0
 12 13  1  0
 13 14  1  0
 14 15  1  0
 15 16  2  0
 16 17  1  0
 17 18  2  0
 18 19  1  0
 19 20  2  0
 20 21  1  0
 21 22  2  0
 22 23  1  0
 23 24  2  0
  4  5  2  0
  5  6  1  0
  6  7  2  0
  7  8  1  0
  7  2  1  0
 24 15  1  0
 24 19  1  0
M  END
>  <score>  (49) 
0.461461

>  <minimizedAffinity>  (49) 
-6.41106

>  <CNNscore>  (49) 
0.6419066191

>  <CNNaffinity>  (49) 
5.2591848373

>  <CNN_VS>  (49) 
3.3759055138

>  <MorganFP>  (49) 
<rdkit.DataStructs.cDataStructs.ExplicitBitVect object at 0x7ff72c60ccf0>

$$$$
HIPS6863
     RDKit          3D

 22 24  0  0  0  0  0  0  0  0999 V2000
   70.2712   76.8990   92.0108 C   0  0  0  0  0  0  0  0  0  0  0  0
   69.1153   77.3776   91.3673 C   0  0  0  0  0  0  0  0  0  0  0  0
   69.2097   78.1793   90.2201 C   0  0  0  0  0  0  0  0  0  0  0  0
   70.4738   78.5116   89.7155 C   0  0  0  0  0  0  0  0  0  0  0  0
   71.6274   78.0633   90.3582 C   0  0  0  0  0  0  0  0  0  0  0  0
   71.5421   77.2767   91.5120 C   0  0  0  0  0  0  0  0  0  0  0  0
   72.7340   76.9220   92.1472 O   0  0  0  0  0  0  0  0  0  0  0  0
   70.1829   74.7290   92.9721 O   0  0  0  0  0  0  0  0  0  0  0  0
   70.1134   75.9747   93.1542 C   0  0  0  0  0  0  0  0  0  0  0  0
   69.9499   76.4673   94.4457 O   0  0  0  0  0  0  0  0  0  0  0  0
   67.9635   78.6023   89.4855 C   0  0  0  0  0  0  0  0  0  0  0  0
   67.5178   80.0224   89.8700 C   0  0  0  0  0  0  0  0  0  0  0  0
   68.0573   81.0675   88.9093 C   0  0  0  0  0  0  0  0  0  0  0  0
   67.3328   81.2875   87.7241 C   0  0  0  0  0  0  0  0  0  0  0  0
   67.7257   82.2638   86.8117 C   0  0  0  0  0  0  0  0  0  0  0  0
   68.8426   83.0535   87.0661 C   0  0  0  0  0  0  0  0  0  0  0  0
   69.5823   82.8739   88.2420 C   0  0  0  0  0  0  0  0  0  0  0  0
   70.6949   83.6925   88.4938 C   0  0  0  0  0  0  0  0  0  0  0  0
   71.4336   83.5359   89.6657 C   0  0  0  0  0  0  0  0  0  0  0  0
   71.0743   82.5601   90.5925 C   0  0  0  0  0  0  0  0  0  0  0  0
   69.9754   81.7316   90.3557 C   0  0  0  0  0  0  0  0  0  0  0  0
   69.2021   81.8735   89.1807 C   0  0  0  0  0  0  0  0  0  0  0  0
  8  9  2  0
  9 10  1  0
  9  1  1  0
  1  2  2  0
  2  3  1  0
  3 11  1  0
 11 12  1  0
 12 13  1  0
 13 14  2  0
 14 15  1  0
 15 16  2  0
 16 17  1  0
 17 18  2  0
 18 19  1  0
 19 20  2  0
 20 21  1  0
 21 22  2  0
  3  4  2  0
  4  5  1  0
  5  6  2  0
  6  7  1  0
  6  1  1  0
 22 13  1  0
 22 17  1  0
M  END
>  <score>  (50) 
-0.401787

>  <minimizedAffinity>  (50) 
-7.53852

>  <CNNscore>  (50) 
0.8614888191

>  <CNNaffinity>  (50) 
5.7259159088

>  <CNN_VS>  (50) 
4.9328126907

>  <MorganFP>  (50) 
<rdkit.DataStructs.cDataStructs.ExplicitBitVect object at 0x7ff72c60c0b0>

$$$$
HIPS6863
     RDKit          3D

 22 24  0  0  0  0  0  0  0  0999 V2000
   70.6096   77.9670   90.7093 C   0  0  0  0  0  0  0  0  0  0  0  0
   70.9883   79.3085   90.5191 C   0  0  0  0  0  0  0  0  0  0  0  0
   70.0979   80.2350   89.9566 C   0  0  0  0  0  0  0  0  0  0  0  0
   68.8177   79.8135   89.5739 C   0  0  0  0  0  0  0  0  0  0  0  0
   68.4388   78.4812   89.7351 C   0  0  0  0  0  0  0  0  0  0  0  0
   69.3264   77.5473   90.2804 C   0  0  0  0  0  0  0  0  0  0  0  0
   68.9102   76.2161   90.3473 O   0  0  0  0  0  0  0  0  0  0  0  0
   71.1799   76.4347   92.4319 O   0  0  0  0  0  0  0  0  0  0  0  0
   71.5492   77.0575   91.3997 C   0  0  0  0  0  0  0  0  0  0  0  0
   72.8229   76.8318   90.8859 O   0  0  0  0  0  0  0  0  0  0  0  0
   70.4824   81.6884   89.8500 C   0  0  0  0  0  0  0  0  0  0  0  0
   69.3054   82.5679   89.3982 C   0  0  0  0  0  0  0  0  0  0  0  0
   69.7684   83.7640   88.5850 C   0  0  0  0  0  0  0  0  0  0  0  0
   70.2783   83.5097   87.2991 C   0  0  0  0  0  0  0  0  0  0  0  0
   70.6764   84.5513   86.4644 C   0  0  0  0  0  0  0  0  0  0  0  0
   70.5626   85.8720   86.8869 C   0  0  0  0  0  0  0  0  0  0  0  0
   70.0468   86.1665   88.1555 C   0  0  0  0  0  0  0  0  0  0  0  0
   69.9193   87.5052   88.5592 C   0  0  0  0  0  0  0  0  0  0  0  0
   69.3952   87.8158   89.8130 C   0  0  0  0  0  0  0  0  0  0  0  0
   68.9996   86.7968   90.6765 C   0  0  0  0  0  0  0  0  0  0  0  0
   69.1259   85.4593   90.2953 C   0  0  0  0  0  0  0  0  0  0  0  0
   69.6452   85.1145   89.0264 C   0  0  0  0  0  0  0  0  0  0  0  0
  8  9  2  0
  9 10  1  0
  9  1  1  0
  1  2  2  0
  2  3  1  0
  3 11  1  0
 11 12  1  0
 12 13  1  0
 13 14  2  0
 14 15  1  0
 15 16  2  0
 16 17  1  0
 17 18  2  0
 18 19  1  0
 19 20  2  0
 20 21  1  0
 21 22  2  0
  3  4  2  0
  4  5  1  0
  5  6  2  0
  6  7  1  0
  6  1  1  0
 22 13  1  0
 22 17  1  0
M  END
>  <score>  (51) 
-0.401787

>  <minimizedAffinity>  (51) 
-7.31643

>  <CNNscore>  (51) 
0.7299724221

>  <CNNaffinity>  (51) 
5.4935960770

>  <CNN_VS>  (51) 
4.0101737976

>  <MorganFP>  (51) 
<rdkit.DataStructs.cDataStructs.ExplicitBitVect object at 0x7ff72c60c3c0>

$$$$
HIPS6897
     RDKit          3D

 26 29  0  0  0  0  0  0  0  0999 V2000
   66.4677   80.3868   92.2438 C   0  0  0  0  0  0  0  0  0  0  0  0
   67.5016   80.9699   91.7522 N   0  0  0  0  0  0  0  0  0  0  0  0
   67.1581   76.7149   92.1159 C   0  0  0  0  0  0  0  0  0  0  0  0
   67.1357   78.0708   91.8344 C   0  0  0  0  0  0  0  0  0  0  0  0
   66.4410   78.9737   92.6072 C   0  0  0  0  0  0  0  0  0  0  0  0
   65.7509   78.4915   93.6933 C   0  0  0  0  0  0  0  0  0  0  0  0
   65.7292   77.1396   94.0361 C   0  0  0  0  0  0  0  0  0  0  0  0
   66.4452   76.2873   93.2217 C   0  0  0  0  0  0  0  0  0  0  0  0
   66.4719   74.9187   93.5002 O   0  0  0  0  0  0  0  0  0  0  0  0
   68.9430   74.9959   91.8491 N   0  0  0  0  0  0  0  0  0  0  0  0
   67.8976   75.7677   91.2899 C   0  0  0  0  0  0  0  0  0  0  0  0
   67.6185   75.6264   90.0825 O   0  0  0  0  0  0  0  0  0  0  0  0
   67.5718   82.3131   91.3919 N   0  0  0  0  0  0  0  0  0  0  0  0
   67.2524   82.8320   90.1207 C   0  0  0  0  0  0  0  0  0  0  0  0
   66.8753   81.9563   89.2753 O   0  0  0  0  0  0  0  0  0  0  0  0
   67.3153   84.2219   89.7147 C   0  0  0  0  0  0  0  0  0  0  0  0
   68.4316   84.6088   88.8125 C   0  0  2  0  0  0  0  0  0  0  0  0
   69.0314   85.9324   89.1759 C   0  0  0  0  0  0  0  0  0  0  0  0
   70.3235   86.1702   88.4157 C   0  0  1  0  0  0  0  0  0  0  0  0
   71.3487   85.1057   88.6670 C   0  0  0  0  0  0  0  0  0  0  0  0
   70.7438   83.7815   88.2414 C   0  0  2  0  0  0  0  0  0  0  0  0
   70.3219   83.7968   86.7801 C   0  0  0  0  0  0  0  0  0  0  0  0
   69.3377   84.9106   86.5665 C   0  0  2  0  0  0  0  0  0  0  0  0
   69.9872   86.2142   86.9541 C   0  0  0  0  0  0  0  0  0  0  0  0
   68.0793   84.6280   87.3503 C   0  0  0  0  0  0  0  0  0  0  0  0
   69.5208   83.5518   89.0648 C   0  0  0  0  0  0  0  0  0  0  0  0
 10 11  1  0
 11 12  2  0
 11  3  1  0
  3  4  2  0
  4  5  1  0
  5  1  1  0
  1  2  2  0
  2 13  1  0
 13 14  1  0
 14 15  2  0
 14 16  1  0
 17 16  1  1
 17 18  1  0
 19 18  1  1
 19 20  1  0
 21 20  1  1
 21 22  1  0
 23 22  1  1
 23 24  1  0
 23 25  1  0
 21 26  1  0
  5  6  2  0
  6  7  1  0
  7  8  2  0
  8  9  1  0
  8  3  1  0
 25 17  1  0
 26 17  1  0
 24 19  1  0
M  END
>  <score>  (52) 
0.139713

>  <minimizedAffinity>  (52) 
-7.04106

>  <CNNscore>  (52) 
0.3594573140

>  <CNNaffinity>  (52) 
5.3855476379

>  <CNN_VS>  (52) 
1.9358744621

>  <MorganFP>  (52) 
<rdkit.DataStructs.cDataStructs.ExplicitBitVect object at 0x7ff72c60cc10>

$$$$
HIPS6897
     RDKit          3D

 26 29  0  0  0  0  0  0  0  0999 V2000
   69.1571   80.1871   89.8517 C   0  0  0  0  0  0  0  0  0  0  0  0
   69.9991   79.2851   90.2094 N   0  0  0  0  0  0  0  0  0  0  0  0
   69.1810   83.6090   88.3462 C   0  0  0  0  0  0  0  0  0  0  0  0
   68.8877   82.2841   88.6238 C   0  0  0  0  0  0  0  0  0  0  0  0
   69.5240   81.5807   89.6217 C   0  0  0  0  0  0  0  0  0  0  0  0
   70.4822   82.2354   90.3576 C   0  0  0  0  0  0  0  0  0  0  0  0
   70.8285   83.5678   90.1334 C   0  0  0  0  0  0  0  0  0  0  0  0
   70.1543   84.2161   89.1197 C   0  0  0  0  0  0  0  0  0  0  0  0
   70.4454   85.5522   88.8347 O   0  0  0  0  0  0  0  0  0  0  0  0
   69.2466   85.0160   86.2902 N   0  0  0  0  0  0  0  0  0  0  0  0
   68.5005   84.3440   87.2866 C   0  0  0  0  0  0  0  0  0  0  0  0
   67.2548   84.3895   87.2455 O   0  0  0  0  0  0  0  0  0  0  0  0
   69.6939   77.9462   90.4395 N   0  0  0  0  0  0  0  0  0  0  0  0
   70.5122   77.0332   91.1352 C   0  0  0  0  0  0  0  0  0  0  0  0
   71.6048   77.5288   91.5648 O   0  0  0  0  0  0  0  0  0  0  0  0
   70.2238   75.6360   91.3906 C   0  0  0  0  0  0  0  0  0  0  0  0
   69.2737   75.3365   92.4939 C   0  0  2  0  0  0  0  0  0  0  0  0
   67.8428   75.4360   92.0625 C   0  0  0  0  0  0  0  0  0  0  0  0
   66.9153   74.8702   93.1225 C   0  0  1  0  0  0  0  0  0  0  0  0
   67.2095   73.4360   93.4449 C   0  0  0  0  0  0  0  0  0  0  0  0
   68.6440   73.3640   93.9323 C   0  0  2  0  0  0  0  0  0  0  0  0
   68.8739   74.2528   95.1451 C   0  0  0  0  0  0  0  0  0  0  0  0
   68.5158   75.6672   94.7902 C   0  0  2  0  0  0  0  0  0  0  0  0
   67.0731   75.7091   94.3565 C   0  0  0  0  0  0  0  0  0  0  0  0
   69.4610   76.1748   93.7286 C   0  0  0  0  0  0  0  0  0  0  0  0
   69.5254   73.8573   92.8340 C   0  0  0  0  0  0  0  0  0  0  0  0
 10 11  1  0
 11 12  2  0
 11  3  1  0
  3  4  2  0
  4  5  1  0
  5  1  1  0
  1  2  2  0
  2 13  1  0
 13 14  1  0
 14 15  2  0
 14 16  1  0
 17 16  1  6
 17 18  1  0
 19 18  1  6
 19 20  1  0
 21 20  1  6
 21 22  1  0
 23 22  1  6
 23 24  1  0
 23 25  1  0
 21 26  1  0
  5  6  2  0
  6  7  1  0
  7  8  2  0
  8  9  1  0
  8  3  1  0
 25 17  1  0
 26 17  1  0
 24 19  1  0
M  END
>  <score>  (53) 
0.139713

>  <minimizedAffinity>  (53) 
-7.34730

>  <CNNscore>  (53) 
0.3137595654

>  <CNNaffinity>  (53) 
5.4276542664

>  <CNN_VS>  (53) 
1.7029784918

>  <MorganFP>  (53) 
<rdkit.DataStructs.cDataStructs.ExplicitBitVect object at 0x7ff72c60cc80>

$$$$
HIPS6897
     RDKit          3D

 26 29  0  0  0  0  0  0  0  0999 V2000
   68.6272   77.6527   91.2506 C   0  0  0  0  0  0  0  0  0  0  0  0
   68.3244   78.8550   90.9138 N   0  0  0  0  0  0  0  0  0  0  0  0
   67.2929   74.6344   93.0071 C   0  0  0  0  0  0  0  0  0  0  0  0
   68.0384   75.4782   92.2005 C   0  0  0  0  0  0  0  0  0  0  0  0
   67.7960   76.8313   92.1246 C   0  0  0  0  0  0  0  0  0  0  0  0
   66.7723   77.3435   92.8849 C   0  0  0  0  0  0  0  0  0  0  0  0
   65.9812   76.5534   93.7189 C   0  0  0  0  0  0  0  0  0  0  0  0
   66.2754   75.2062   93.7499 C   0  0  0  0  0  0  0  0  0  0  0  0
   65.5274   74.3498   94.5613 O   0  0  0  0  0  0  0  0  0  0  0  0
   66.9059   72.3090   92.1980 N   0  0  0  0  0  0  0  0  0  0  0  0
   67.5587   73.2025   93.0793 C   0  0  0  0  0  0  0  0  0  0  0  0
   68.3632   72.7483   93.9172 O   0  0  0  0  0  0  0  0  0  0  0  0
   69.0862   79.6735   90.0840 N   0  0  0  0  0  0  0  0  0  0  0  0
   69.2780   81.0588   90.2617 C   0  0  0  0  0  0  0  0  0  0  0  0
   68.6838   81.5453   91.2785 O   0  0  0  0  0  0  0  0  0  0  0  0
   70.0630   81.9371   89.4173 C   0  0  0  0  0  0  0  0  0  0  0  0
   69.3341   83.0318   88.7244 C   0  0  2  0  0  0  0  0  0  0  0  0
   69.1189   84.2250   89.6039 C   0  0  0  0  0  0  0  0  0  0  0  0
   68.6188   85.4103   88.7984 C   0  0  1  0  0  0  0  0  0  0  0  0
   69.5586   85.8019   87.6981 C   0  0  0  0  0  0  0  0  0  0  0  0
   69.7203   84.5994   86.7879 C   0  0  2  0  0  0  0  0  0  0  0  0
   68.3863   84.1340   86.2244 C   0  0  0  0  0  0  0  0  0  0  0  0
   67.4627   83.8049   87.3617 C   0  0  2  0  0  0  0  0  0  0  0  0
   67.2878   85.0334   88.2170 C   0  0  0  0  0  0  0  0  0  0  0  0
   68.0115   82.6287   88.1321 C   0  0  0  0  0  0  0  0  0  0  0  0
   70.2841   83.4827   87.6014 C   0  0  0  0  0  0  0  0  0  0  0  0
 10 11  1  0
 11 12  2  0
 11  3  1  0
  3  4  2  0
  4  5  1  0
  5  1  1  0
  1  2  2  0
  2 13  1  0
 13 14  1  0
 14 15  2  0
 14 16  1  0
 17 16  1  1
 17 18  1  0
 19 18  1  6
 19 20  1  0
 21 20  1  1
 21 22  1  0
 23 22  1  6
 23 24  1  0
 23 25  1  0
 21 26  1  0
  5  6  2  0
  6  7  1  0
  7  8  2  0
  8  9  1  0
  8  3  1  0
 25 17  1  0
 26 17  1  0
 24 19  1  0
M  END
>  <score>  (54) 
0.139713

>  <minimizedAffinity>  (54) 
-7.55969

>  <CNNscore>  (54) 
0.2750069201

>  <CNNaffinity>  (54) 
5.1856489182

>  <CNN_VS>  (54) 
1.4260892868

>  <MorganFP>  (54) 
<rdkit.DataStructs.cDataStructs.ExplicitBitVect object at 0x7ff72c60ce40>

$$$$
HIPS6933
     RDKit          3D

 34 38  0  0  0  0  0  0  0  0999 V2000
   67.0685   74.3891   88.8760 N   0  0  0  0  0  0  0  0  0  0  0  0
   66.6570   74.9248   87.7644 C   0  0  0  0  0  0  0  0  0  0  0  0
   67.0501   76.2785   87.3350 C   0  0  0  0  0  0  0  0  0  0  0  0
   67.7331   76.6045   86.1694 C   0  0  0  0  0  0  0  0  0  0  0  0
   67.9565   77.9378   86.1132 N   0  0  0  0  0  0  0  0  0  0  0  0
   67.4057   78.4559   87.2263 C   0  0  0  0  0  0  0  0  0  0  0  0
   67.3854   79.7948   87.6139 C   0  0  0  0  0  0  0  0  0  0  0  0
   66.7349   80.1267   88.8281 C   0  0  0  0  0  0  0  0  0  0  0  0
   66.1045   79.1126   89.5843 C   0  0  0  0  0  0  0  0  0  0  0  0
   66.1432   77.7720   89.1666 C   0  0  0  0  0  0  0  0  0  0  0  0
   66.8267   77.4763   87.9883 C   0  0  0  0  0  0  0  0  0  0  0  0
   66.6927   81.4377   89.3205 O   0  0  0  0  0  0  0  0  0  0  0  0
   67.4777   82.5150   88.8190 C   0  0  0  0  0  0  0  0  0  0  0  0
   68.7165   82.6416   89.6546 C   0  0  0  0  0  0  0  0  0  0  0  0
   68.6264   83.1183   90.9722 C   0  0  0  0  0  0  0  0  0  0  0  0
   69.7654   83.1778   91.7801 C   0  0  0  0  0  0  0  0  0  0  0  0
   70.9998   82.7532   91.2801 C   0  0  0  0  0  0  0  0  0  0  0  0
   71.0957   82.2692   89.9725 C   0  0  0  0  0  0  0  0  0  0  0  0
   69.9580   82.2060   89.1624 C   0  0  0  0  0  0  0  0  0  0  0  0
   68.4866   72.9791   90.8147 O   0  0  0  0  0  0  0  0  0  0  0  0
   68.7242   74.2116   90.6938 C   0  0  0  0  0  0  0  0  0  0  0  0
   68.0268   74.9841   89.7161 N   0  0  0  0  0  0  0  0  0  0  0  0
   69.7410   74.8677   91.5727 C   0  0  0  0  0  0  0  0  0  0  0  0
   69.1512   75.9995   92.2119 O   0  0  0  0  0  0  0  0  0  0  0  0
   68.0334   75.8899   93.0457 C   0  0  0  0  0  0  0  0  0  0  0  0
   67.7827   74.6592   93.6648 C   0  0  0  0  0  0  0  0  0  0  0  0
   66.6756   74.4932   94.4968 C   0  0  0  0  0  0  0  0  0  0  0  0
   65.7971   75.5540   94.7166 C   0  0  0  0  0  0  0  0  0  0  0  0
   66.0316   76.8006   94.1163 C   0  0  0  0  0  0  0  0  0  0  0  0
   65.1533   77.8719   94.3441 C   0  0  0  0  0  0  0  0  0  0  0  0
   65.3998   79.1180   93.7646 C   0  0  0  0  0  0  0  0  0  0  0  0
   66.5303   79.3095   92.9683 C   0  0  0  0  0  0  0  0  0  0  0  0
   67.4142   78.2532   92.7324 C   0  0  0  0  0  0  0  0  0  0  0  0
   67.1673   76.9820   93.2830 C   0  0  0  0  0  0  0  0  0  0  0  0
 20 21  2  0
 21 23  1  0
 23 24  1  0
 24 25  1  0
 25 26  2  0
 26 27  1  0
 27 28  2  0
 28 29  1  0
 29 30  2  0
 30 31  1  0
 31 32  2  0
 32 33  1  0
 33 34  2  0
 21 22  1  0
 22  1  1  0
  1  2  2  0
  2  3  1  0
  3  4  2  0
  4  5  1  0
  5  6  1  0
  6  7  2  0
  7  8  1  0
  8 12  1  0
 12 13  1  0
 13 14  1  0
 14 15  2  0
 15 16  1  0
 16 17  2  0
 17 18  1  0
 18 19  2  0
  8  9  2  0
  9 10  1  0
 10 11  2  0
 34 25  1  0
 11  3  1  0
 34 29  1  0
 11  6  1  0
 19 14  1  0
M  END
>  <score>  (55) 
0.769153

>  <minimizedAffinity>  (55) 
-7.65724

>  <CNNscore>  (55) 
0.5084188581

>  <CNNaffinity>  (55) 
7.2533082962

>  <CNN_VS>  (55) 
3.6877186298

>  <MorganFP>  (55) 
<rdkit.DataStructs.cDataStructs.ExplicitBitVect object at 0x7ff72c60c270>

$$$$
HIPS6968
     RDKit          3D

 23 25  0  0  0  0  0  0  0  0999 V2000
   71.0864   80.9465   89.8030 O   0  0  0  0  0  0  0  0  0  0  0  0
   70.0843   77.0420   91.0802 C   0  0  0  0  0  0  0  0  0  0  0  0
   69.0773   77.9127   90.6287 C   0  0  0  0  0  0  0  0  0  0  0  0
   69.3878   79.2055   90.2028 C   0  0  0  0  0  0  0  0  0  0  0  0
   70.7175   79.6583   90.2238 C   0  0  0  0  0  0  0  0  0  0  0  0
   71.7208   78.8016   90.6852 C   0  0  0  0  0  0  0  0  0  0  0  0
   71.4196   77.5104   91.1353 C   0  0  0  0  0  0  0  0  0  0  0  0
   72.4632   76.7450   91.6597 O   0  0  0  0  0  0  0  0  0  0  0  0
   70.4345   75.0003   92.2421 O   0  0  0  0  0  0  0  0  0  0  0  0
   69.7138   75.6567   91.4426 C   0  0  0  0  0  0  0  0  0  0  0  0
   68.5406   75.0866   90.9570 O   0  0  0  0  0  0  0  0  0  0  0  0
   71.5884   81.9796   90.6520 C   0  0  0  0  0  0  0  0  0  0  0  0
   70.5542   83.0551   90.8595 C   0  0  0  0  0  0  0  0  0  0  0  0
   70.0478   83.7735   89.7667 C   0  0  0  0  0  0  0  0  0  0  0  0
   69.0999   84.7783   89.9653 C   0  0  0  0  0  0  0  0  0  0  0  0
   68.6545   85.0806   91.2541 C   0  0  0  0  0  0  0  0  0  0  0  0
   69.1576   84.3804   92.3659 C   0  0  0  0  0  0  0  0  0  0  0  0
   70.1171   83.3720   92.1560 C   0  0  0  0  0  0  0  0  0  0  0  0
   68.6840   84.6992   93.7369 C   0  0  0  0  0  0  0  0  0  0  0  0
   68.0639   83.7618   94.5856 C   0  0  0  0  0  0  0  0  0  0  0  0
   67.7018   84.2776   95.8214 C   0  0  0  0  0  0  0  0  0  0  0  0
   68.1494   85.8944   95.8647 S   0  0  0  0  0  0  0  0  0  0  0  0
   68.8038   85.9613   94.3193 C   0  0  0  0  0  0  0  0  0  0  0  0
  9 10  2  0
 10 11  1  0
 10  2  1  0
  2  3  2  0
  3  4  1  0
  4  5  2  0
  5  1  1  0
  1 12  1  0
 12 13  1  0
 13 14  2  0
 14 15  1  0
 15 16  2  0
 16 17  1  0
 17 19  1  0
 19 20  1  0
 20 21  2  0
 21 22  1  0
 22 23  1  0
 17 18  2  0
  5  6  1  0
  6  7  2  0
  7  8  1  0
  7  2  1  0
 18 13  1  0
 23 19  2  0
M  END
>  <score>  (56) 
-0.059906

>  <minimizedAffinity>  (56) 
-6.27294

>  <CNNscore>  (56) 
0.7391464114

>  <CNNaffinity>  (56) 
5.3327836990

>  <CNN_VS>  (56) 
3.9417078495

>  <MorganFP>  (56) 
<rdkit.DataStructs.cDataStructs.ExplicitBitVect object at 0x7ff72c60cd60>

$$$$
HIPS6968
     RDKit          3D

 23 25  0  0  0  0  0  0  0  0999 V2000
   67.5662   78.9193   90.1653 O   0  0  0  0  0  0  0  0  0  0  0  0
   68.6988   76.6107   93.5221 C   0  0  0  0  0  0  0  0  0  0  0  0
   67.4853   77.3199   93.5354 C   0  0  0  0  0  0  0  0  0  0  0  0
   67.0935   78.0876   92.4371 C   0  0  0  0  0  0  0  0  0  0  0  0
   67.9132   78.1661   91.2988 C   0  0  0  0  0  0  0  0  0  0  0  0
   69.1276   77.4743   91.2859 C   0  0  0  0  0  0  0  0  0  0  0  0
   69.5419   76.7185   92.3893 C   0  0  0  0  0  0  0  0  0  0  0  0
   70.8049   76.1255   92.3336 O   0  0  0  0  0  0  0  0  0  0  0  0
   68.2654   74.7934   94.9887 O   0  0  0  0  0  0  0  0  0  0  0  0
   69.0284   75.7475   94.6771 C   0  0  0  0  0  0  0  0  0  0  0  0
   70.2077   75.9386   95.3912 O   0  0  0  0  0  0  0  0  0  0  0  0
   66.8650   80.1635   90.1844 C   0  0  0  0  0  0  0  0  0  0  0  0
   67.7127   81.2492   90.7942 C   0  0  0  0  0  0  0  0  0  0  0  0
   67.3206   81.8693   91.9894 C   0  0  0  0  0  0  0  0  0  0  0  0
   68.1022   82.8841   92.5434 C   0  0  0  0  0  0  0  0  0  0  0  0
   69.2761   83.2946   91.9076 C   0  0  0  0  0  0  0  0  0  0  0  0
   69.6824   82.6944   90.7017 C   0  0  0  0  0  0  0  0  0  0  0  0
   68.8848   81.6750   90.1481 C   0  0  0  0  0  0  0  0  0  0  0  0
   70.9311   83.1283   90.0251 C   0  0  0  0  0  0  0  0  0  0  0  0
   72.2073   82.6275   90.3474 C   0  0  0  0  0  0  0  0  0  0  0  0
   73.2323   83.1740   89.5890 C   0  0  0  0  0  0  0  0  0  0  0  0
   72.5593   84.2773   88.5184 S   0  0  0  0  0  0  0  0  0  0  0  0
   70.9639   84.0785   89.0041 C   0  0  0  0  0  0  0  0  0  0  0  0
  9 10  2  0
 10 11  1  0
 10  2  1  0
  2  3  2  0
  3  4  1  0
  4  5  2  0
  5  1  1  0
  1 12  1  0
 12 13  1  0
 13 14  2  0
 14 15  1  0
 15 16  2  0
 16 17  1  0
 17 19  1  0
 19 20  1  0
 20 21  2  0
 21 22  1  0
 22 23  1  0
 17 18  2  0
  5  6  1  0
  6  7  2  0
  7  8  1  0
  7  2  1  0
 18 13  1  0
 23 19  2  0
M  END
>  <score>  (57) 
-0.059906

>  <minimizedAffinity>  (57) 
-6.86222

>  <CNNscore>  (57) 
0.6550847292

>  <CNNaffinity>  (57) 
5.4250745773

>  <CNN_VS>  (57) 
3.5538835526

>  <MorganFP>  (57) 
<rdkit.DataStructs.cDataStructs.ExplicitBitVect object at 0x7ff72c60c4a0>

$$$$
HIPS6969
     RDKit          3D

 25 27  0  0  0  0  0  0  0  0999 V2000
   68.3582   79.1673   89.3360 C   0  0  0  0  0  0  0  0  0  0  0  0
   68.1246   80.5278   89.6017 C   0  0  0  0  0  0  0  0  0  0  0  0
   67.3056   81.2941   88.7654 C   0  0  0  0  0  0  0  0  0  0  0  0
   66.7172   80.6895   87.6394 C   0  0  0  0  0  0  0  0  0  0  0  0
   66.9402   79.3379   87.3696 C   0  0  0  0  0  0  0  0  0  0  0  0
   67.7521   78.5698   88.2142 C   0  0  0  0  0  0  0  0  0  0  0  0
   67.9546   77.2169   87.9430 O   0  0  0  0  0  0  0  0  0  0  0  0
   69.2547   78.3683   90.2523 C   0  0  0  0  0  0  0  0  0  0  0  0
   70.6881   78.9229   90.3289 C   0  0  0  0  0  0  0  0  0  0  0  0
   71.7742   77.8326   90.3621 C   0  0  0  0  0  0  0  0  0  0  0  0
   72.6817   77.4981   92.5532 O   0  0  0  0  0  0  0  0  0  0  0  0
   71.8416   77.1340   91.6871 C   0  0  0  0  0  0  0  0  0  0  0  0
   70.9943   76.0635   91.9521 O   0  0  0  0  0  0  0  0  0  0  0  0
   67.1050   82.6467   89.0896 O   0  0  0  0  0  0  0  0  0  0  0  0
   67.9987   83.4454   89.8689 C   0  0  0  0  0  0  0  0  0  0  0  0
   69.0971   84.0632   89.0198 C   0  0  0  0  0  0  0  0  0  0  0  0
   68.7354   84.9307   87.9705 C   0  0  0  0  0  0  0  0  0  0  0  0
   69.7037   85.5509   87.1841 C   0  0  0  0  0  0  0  0  0  0  0  0
   71.0543   85.3016   87.4064 C   0  0  0  0  0  0  0  0  0  0  0  0
   71.4509   84.4002   88.4022 C   0  0  0  0  0  0  0  0  0  0  0  0
   72.8153   84.1288   88.5912 C   0  0  0  0  0  0  0  0  0  0  0  0
   73.2227   83.2081   89.5555 C   0  0  0  0  0  0  0  0  0  0  0  0
   72.2754   82.5433   90.3317 C   0  0  0  0  0  0  0  0  0  0  0  0
   70.9135   82.8038   90.1611 C   0  0  0  0  0  0  0  0  0  0  0  0
   70.4738   83.7509   89.2083 C   0  0  0  0  0  0  0  0  0  0  0  0
 11 12  2  0
 12 13  1  0
 12 10  1  0
 10  9  1  0
  9  8  1  0
  8  1  1  0
  1  2  2  0
  2  3  1  0
  3 14  1  0
 14 15  1  0
 15 16  1  0
 16 17  2  0
 17 18  1  0
 18 19  2  0
 19 20  1  0
 20 21  2  0
 21 22  1  0
 22 23  2  0
 23 24  1  0
 24 25  2  0
  3  4  2  0
  4  5  1  0
  5  6  2  0
  6  7  1  0
  6  1  1  0
 25 16  1  0
 25 20  1  0
M  END
>  <score>  (58) 
0.804191

>  <minimizedAffinity>  (58) 
-7.85745

>  <CNNscore>  (58) 
0.8037313819

>  <CNNaffinity>  (58) 
6.1258974075

>  <CNN_VS>  (58) 
4.9235758781

>  <MorganFP>  (58) 
<rdkit.DataStructs.cDataStructs.ExplicitBitVect object at 0x7ff72c60c200>

$$$$
HIPS6969
     RDKit          3D

 25 27  0  0  0  0  0  0  0  0999 V2000
   69.1269   77.0606   91.4276 C   0  0  0  0  0  0  0  0  0  0  0  0
   68.8369   78.2755   90.7826 C   0  0  0  0  0  0  0  0  0  0  0  0
   69.8562   79.0565   90.2270 C   0  0  0  0  0  0  0  0  0  0  0  0
   71.1891   78.6172   90.3264 C   0  0  0  0  0  0  0  0  0  0  0  0
   71.4864   77.4100   90.9618 C   0  0  0  0  0  0  0  0  0  0  0  0
   70.4634   76.6244   91.5081 C   0  0  0  0  0  0  0  0  0  0  0  0
   70.7713   75.4128   92.1263 O   0  0  0  0  0  0  0  0  0  0  0  0
   68.0058   76.2438   92.0258 C   0  0  0  0  0  0  0  0  0  0  0  0
   67.6698   76.6476   93.4723 C   0  0  0  0  0  0  0  0  0  0  0  0
   67.7987   75.4947   94.4840 C   0  0  0  0  0  0  0  0  0  0  0  0
   69.6274   74.0875   95.1258 O   0  0  0  0  0  0  0  0  0  0  0  0
   69.2190   75.2588   94.9029 C   0  0  0  0  0  0  0  0  0  0  0  0
   70.0814   76.3365   95.0731 O   0  0  0  0  0  0  0  0  0  0  0  0
   69.5005   80.2567   89.5884 O   0  0  0  0  0  0  0  0  0  0  0  0
   69.5225   81.5493   90.1988 C   0  0  0  0  0  0  0  0  0  0  0  0
   70.6765   82.3981   89.6918 C   0  0  0  0  0  0  0  0  0  0  0  0
   71.9369   82.2652   90.3069 C   0  0  0  0  0  0  0  0  0  0  0  0
   73.0364   82.9937   89.8584 C   0  0  0  0  0  0  0  0  0  0  0  0
   72.9013   83.8916   88.8043 C   0  0  0  0  0  0  0  0  0  0  0  0
   71.6514   84.0941   88.2057 C   0  0  0  0  0  0  0  0  0  0  0  0
   71.5210   85.0307   87.1680 C   0  0  0  0  0  0  0  0  0  0  0  0
   70.2764   85.2677   86.5861 C   0  0  0  0  0  0  0  0  0  0  0  0
   69.1510   84.5820   87.0392 C   0  0  0  0  0  0  0  0  0  0  0  0
   69.2622   83.6430   88.0676 C   0  0  0  0  0  0  0  0  0  0  0  0
   70.5160   83.3647   88.6581 C   0  0  0  0  0  0  0  0  0  0  0  0
 11 12  2  0
 12 13  1  0
 12 10  1  0
 10  9  1  0
  9  8  1  0
  8  1  1  0
  1  2  2  0
  2  3  1  0
  3 14  1  0
 14 15  1  0
 15 16  1  0
 16 17  2  0
 17 18  1  0
 18 19  2  0
 19 20  1  0
 20 21  2  0
 21 22  1  0
 22 23  2  0
 23 24  1  0
 24 25  2  0
  3  4  2  0
  4  5  1  0
  5  6  2  0
  6  7  1  0
  6  1  1  0
 25 16  1  0
 25 20  1  0
M  END
>  <score>  (59) 
0.804191

>  <minimizedAffinity>  (59) 
-8.40930

>  <CNNscore>  (59) 
0.7436264753

>  <CNNaffinity>  (59) 
5.7348117828

>  <CNN_VS>  (59) 
4.2645578384

>  <MorganFP>  (59) 
<rdkit.DataStructs.cDataStructs.ExplicitBitVect object at 0x7ff72c60c6d0>

$$$$
HIPS6978
     RDKit          3D

 33 38  0  0  0  0  0  0  0  0999 V2000
   67.5946   74.9643   89.2485 C   0  0  0  0  0  0  0  0  0  0  0  0
   66.7760   74.0337   88.5411 C   0  0  0  0  0  0  0  0  0  0  0  0
   67.0214   72.8070   88.9633 N   0  0  0  0  0  0  0  0  0  0  0  0
   67.9563   72.8095   89.9191 C   0  0  0  0  0  0  0  0  0  0  0  0
   68.5302   71.7770   90.6501 C   0  0  0  0  0  0  0  0  0  0  0  0
   69.4865   72.0418   91.5913 C   0  0  0  0  0  0  0  0  0  0  0  0
   69.8416   73.3466   91.7725 C   0  0  0  0  0  0  0  0  0  0  0  0
   69.2617   74.3804   91.0351 C   0  0  0  0  0  0  0  0  0  0  0  0
   68.2996   74.1467   90.0837 C   0  0  0  0  0  0  0  0  0  0  0  0
   67.1939   77.3007   89.6666 N   0  0  0  0  0  0  0  0  0  0  0  0
   67.5231   76.3646   88.9797 C   0  0  0  0  0  0  0  0  0  0  0  0
   68.8722   77.4547   91.7534 O   0  0  0  0  0  0  0  0  0  0  0  0
   67.6630   77.5365   92.0453 C   0  0  0  0  0  0  0  0  0  0  0  0
   66.7785   77.4497   90.8942 N   0  0  0  0  0  0  0  0  0  0  0  0
   67.1247   77.7044   93.3967 C   0  0  0  0  0  0  0  0  0  0  0  0
   66.9862   76.3991   94.1085 C   0  0  1  0  0  0  0  0  0  0  0  0
   68.2417   75.9432   94.7891 C   0  0  0  0  0  0  0  0  0  0  0  0
   68.0317   74.5606   95.3786 C   0  0  2  0  0  0  0  0  0  0  0  0
   67.7255   73.6136   94.2653 C   0  0  0  0  0  0  0  0  0  0  0  0
   66.4212   74.0494   93.6273 C   0  0  1  0  0  0  0  0  0  0  0  0
   65.2974   74.1090   94.6089 C   0  0  0  0  0  0  0  0  0  0  0  0
   65.6539   75.1095   95.7065 C   0  0  1  0  0  0  0  0  0  0  0  0
   66.9221   74.6689   96.3841 C   0  0  0  0  0  0  0  0  0  0  0  0
   65.7892   76.4531   95.0221 C   0  0  0  0  0  0  0  0  0  0  0  0
   66.6387   75.3838   93.0050 C   0  0  0  0  0  0  0  0  0  0  0  0
   70.0719   71.0191   92.3327 O   0  0  0  0  0  0  0  0  0  0  0  0
   70.6042   69.8675   91.7254 C   0  0  0  0  0  0  0  0  0  0  0  0
   72.0531   69.7904   92.0001 C   0  0  0  0  0  0  0  0  0  0  0  0
   72.6172   70.6827   92.8788 C   0  0  0  0  0  0  0  0  0  0  0  0
   73.9881   70.6267   93.1532 C   0  0  0  0  0  0  0  0  0  0  0  0
   74.7350   69.6583   92.5182 C   0  0  0  0  0  0  0  0  0  0  0  0
   74.1719   68.7607   91.6354 C   0  0  0  0  0  0  0  0  0  0  0  0
   72.8007   68.8258   91.3685 C   0  0  0  0  0  0  0  0  0  0  0  0
 12 13  2  0
 13 15  1  0
 16 15  1  6
 16 17  1  0
 18 17  1  6
 18 19  1  0
 20 19  1  1
 20 21  1  0
 22 21  1  6
 22 23  1  0
 22 24  1  0
 20 25  1  0
 13 14  1  0
 14 10  1  0
 10 11  2  0
 11  1  1  0
  1  2  2  0
  2  3  1  0
  3  4  1  0
  4  5  2  0
  5  6  1  0
  6 26  1  0
 26 27  1  0
 27 28  1  0
 28 29  2  0
 29 30  1  0
 30 31  2  0
 31 32  1  0
 32 33  2  0
  6  7  2  0
  7  8  1  0
  8  9  2  0
 24 16  1  0
  9  1  1  0
 25 16  1  0
  9  4  1  0
 23 18  1  0
 33 28  1  0
M  END
>  <score>  (60) 
0.877782

>  <minimizedAffinity>  (60) 
-8.22866

>  <CNNscore>  (60) 
0.4476665556

>  <CNNaffinity>  (60) 
6.5955848694

>  <CNN_VS>  (60) 
2.9526226521

>  <MorganFP>  (60) 
<rdkit.DataStructs.cDataStructs.ExplicitBitVect object at 0x7ff72c66f040>

$$$$
HIPS6978
     RDKit          3D

 33 38  0  0  0  0  0  0  0  0999 V2000
   67.5373   76.8597   88.1606 C   0  0  0  0  0  0  0  0  0  0  0  0
   66.7467   75.7816   87.6615 C   0  0  0  0  0  0  0  0  0  0  0  0
   66.9034   74.7169   88.4265 N   0  0  0  0  0  0  0  0  0  0  0  0
   67.7497   74.9709   89.4299 C   0  0  0  0  0  0  0  0  0  0  0  0
   68.2141   74.1736   90.4684 C   0  0  0  0  0  0  0  0  0  0  0  0
   69.0937   74.6751   91.3877 C   0  0  0  0  0  0  0  0  0  0  0  0
   69.4848   75.9734   91.2361 C   0  0  0  0  0  0  0  0  0  0  0  0
   69.0151   76.7702   90.1905 C   0  0  0  0  0  0  0  0  0  0  0  0
   68.1318   76.2959   89.2523 C   0  0  0  0  0  0  0  0  0  0  0  0
   67.5537   79.2571   87.9456 N   0  0  0  0  0  0  0  0  0  0  0  0
   67.5473   78.1311   87.5113 C   0  0  0  0  0  0  0  0  0  0  0  0
   65.3301   80.2098   89.1046 O   0  0  0  0  0  0  0  0  0  0  0  0
   66.3662   80.3172   89.7894 C   0  0  0  0  0  0  0  0  0  0  0  0
   67.5543   79.7926   89.1351 N   0  0  0  0  0  0  0  0  0  0  0  0
   66.4424   80.9050   91.1285 C   0  0  0  0  0  0  0  0  0  0  0  0
   66.2331   79.8849   92.1986 C   0  0  1  0  0  0  0  0  0  0  0  0
   64.8017   79.7284   92.6158 C   0  0  0  0  0  0  0  0  0  0  0  0
   64.7108   78.7614   93.7818 C   0  0  2  0  0  0  0  0  0  0  0  0
   65.4791   79.3305   94.9289 C   0  0  0  0  0  0  0  0  0  0  0  0
   66.9346   79.4237   94.5152 C   0  0  1  0  0  0  0  0  0  0  0  0
   67.4938   78.1050   94.0932 C   0  0  0  0  0  0  0  0  0  0  0  0
   66.6880   77.5855   92.9041 C   0  0  1  0  0  0  0  0  0  0  0  0
   65.2468   77.4412   93.3086 C   0  0  0  0  0  0  0  0  0  0  0  0
   66.8881   78.5909   91.7900 C   0  0  0  0  0  0  0  0  0  0  0  0
   67.0333   80.4093   93.4044 C   0  0  0  0  0  0  0  0  0  0  0  0
   69.5690   73.8900   92.4346 O   0  0  0  0  0  0  0  0  0  0  0  0
   68.7679   72.9200   93.0635 C   0  0  0  0  0  0  0  0  0  0  0  0
   67.8250   73.5825   93.9868 C   0  0  0  0  0  0  0  0  0  0  0  0
   68.3162   74.2449   95.0852 C   0  0  0  0  0  0  0  0  0  0  0  0
   67.4401   74.8795   95.9724 C   0  0  0  0  0  0  0  0  0  0  0  0
   66.0899   74.8143   95.7045 C   0  0  0  0  0  0  0  0  0  0  0  0
   65.5932   74.1502   94.6026 C   0  0  0  0  0  0  0  0  0  0  0  0
   66.4780   73.5194   93.7224 C   0  0  0  0  0  0  0  0  0  0  0  0
 12 13  2  0
 13 15  1  0
 16 15  1  6
 16 17  1  0
 18 17  1  6
 18 19  1  0
 20 19  1  6
 20 21  1  0
 22 21  1  1
 22 23  1  0
 22 24  1  0
 20 25  1  0
 13 14  1  0
 14 10  1  0
 10 11  2  0
 11  1  1  0
  1  2  2  0
  2  3  1  0
  3  4  1  0
  4  5  2  0
  5  6  1  0
  6 26  1  0
 26 27  1  0
 27 28  1  0
 28 29  2  0
 29 30  1  0
 30 31  2  0
 31 32  1  0
 32 33  2  0
  6  7  2  0
  7  8  1  0
  8  9  2  0
 24 16  1  0
  9  1  1  0
 25 16  1  0
  9  4  1  0
 23 18  1  0
 33 28  1  0
M  END
>  <score>  (61) 
0.877782

>  <minimizedAffinity>  (61) 
-6.36834

>  <CNNscore>  (61) 
0.3476023376

>  <CNNaffinity>  (61) 
7.1067581177

>  <CNN_VS>  (61) 
2.4703257084

>  <MorganFP>  (61) 
<rdkit.DataStructs.cDataStructs.ExplicitBitVect object at 0x7ff72c66f0b0>

$$$$
HIPS6978
     RDKit          3D

 33 38  0  0  0  0  0  0  0  0999 V2000
   71.5042   84.4747   88.5941 C   0  0  0  0  0  0  0  0  0  0  0  0
   72.8553   84.2656   89.0032 C   0  0  0  0  0  0  0  0  0  0  0  0
   72.9744   83.0810   89.5740 N   0  0  0  0  0  0  0  0  0  0  0  0
   71.8004   82.4415   89.5951 C   0  0  0  0  0  0  0  0  0  0  0  0
   71.4397   81.1923   90.0842 C   0  0  0  0  0  0  0  0  0  0  0  0
   70.1476   80.7552   89.9850 C   0  0  0  0  0  0  0  0  0  0  0  0
   69.2478   81.5924   89.3925 C   0  0  0  0  0  0  0  0  0  0  0  0
   69.6156   82.8468   88.9026 C   0  0  0  0  0  0  0  0  0  0  0  0
   70.9042   83.3135   88.9874 C   0  0  0  0  0  0  0  0  0  0  0  0
   70.2272   86.4744   88.1889 N   0  0  0  0  0  0  0  0  0  0  0  0
   71.1067   85.6839   87.9477 C   0  0  0  0  0  0  0  0  0  0  0  0
   70.3780   88.2113   90.2274 O   0  0  0  0  0  0  0  0  0  0  0  0
   69.3486   87.5085   90.2119 C   0  0  0  0  0  0  0  0  0  0  0  0
   69.2954   86.5773   89.0961 N   0  0  0  0  0  0  0  0  0  0  0  0
   68.2637   87.5689   91.1936 C   0  0  0  0  0  0  0  0  0  0  0  0
   68.2660   86.3838   92.1018 C   0  0  1  0  0  0  0  0  0  0  0  0
   69.0506   85.2191   91.5771 C   0  0  0  0  0  0  0  0  0  0  0  0
   68.8936   84.0332   92.5111 C   0  0  2  0  0  0  0  0  0  0  0  0
   67.4503   83.6522   92.5527 C   0  0  0  0  0  0  0  0  0  0  0  0
   66.6776   84.8147   93.1441 C   0  0  1  0  0  0  0  0  0  0  0  0
   67.1730   85.1989   94.4994 C   0  0  0  0  0  0  0  0  0  0  0  0
   68.6420   85.6031   94.3911 C   0  0  1  0  0  0  0  0  0  0  0  0
   69.4346   84.4456   93.8495 C   0  0  0  0  0  0  0  0  0  0  0  0
   68.6782   86.8157   93.4853 C   0  0  0  0  0  0  0  0  0  0  0  0
   66.7887   85.9641   92.2052 C   0  0  0  0  0  0  0  0  0  0  0  0
   69.7691   79.5063   90.4699 O   0  0  0  0  0  0  0  0  0  0  0  0
   68.5230   78.9319   90.1607 C   0  0  0  0  0  0  0  0  0  0  0  0
   67.6856   78.8872   91.3762 C   0  0  0  0  0  0  0  0  0  0  0  0
   67.6273   77.7261   92.1076 C   0  0  0  0  0  0  0  0  0  0  0  0
   66.8401   77.6625   93.2626 C   0  0  0  0  0  0  0  0  0  0  0  0
   66.1392   78.7907   93.6295 C   0  0  0  0  0  0  0  0  0  0  0  0
   66.1954   79.9583   92.8975 C   0  0  0  0  0  0  0  0  0  0  0  0
   66.9854   80.0106   91.7448 C   0  0  0  0  0  0  0  0  0  0  0  0
 12 13  2  0
 13 15  1  0
 16 15  1  6
 16 17  1  0
 18 17  1  6
 18 19  1  0
 20 19  1  6
 20 21  1  0
 22 21  1  6
 22 23  1  0
 22 24  1  0
 20 25  1  0
 13 14  1  0
 14 10  1  0
 10 11  2  0
 11  1  1  0
  1  2  2  0
  2  3  1  0
  3  4  1  0
  4  5  2  0
  5  6  1  0
  6 26  1  0
 26 27  1  0
 27 28  1  0
 28 29  2  0
 29 30  1  0
 30 31  2  0
 31 32  1  0
 32 33  2  0
  6  7  2  0
  7  8  1  0
  8  9  2  0
 24 16  1  0
  9  1  1  0
 25 16  1  0
  9  4  1  0
 23 18  1  0
 33 28  1  0
M  END
>  <score>  (62) 
0.877782

>  <minimizedAffinity>  (62) 
-7.20935

>  <CNNscore>  (62) 
0.2621986866

>  <CNNaffinity>  (62) 
6.8172788620

>  <CNN_VS>  (62) 
1.7874815464

>  <MorganFP>  (62) 
<rdkit.DataStructs.cDataStructs.ExplicitBitVect object at 0x7ff72c66f120>

$$$$
HIPS6981
     RDKit          3D

 32 35  0  0  0  0  0  0  0  0999 V2000
   66.0651   79.3761   93.3718 C   0  0  0  0  0  0  0  0  0  0  0  0
   66.7156   80.3433   94.1516 C   0  0  0  0  0  0  0  0  0  0  0  0
   67.4524   81.3600   93.5417 C   0  0  0  0  0  0  0  0  0  0  0  0
   67.5522   81.4185   92.1501 C   0  0  0  0  0  0  0  0  0  0  0  0
   66.9187   80.4519   91.3494 C   0  0  0  0  0  0  0  0  0  0  0  0
   66.1880   79.4233   91.9728 C   0  0  0  0  0  0  0  0  0  0  0  0
   67.0056   80.5229   89.8680 C   0  0  0  0  0  0  0  0  0  0  0  0
   66.8935   79.3581   89.0874 C   0  0  0  0  0  0  0  0  0  0  0  0
   66.9722   79.4295   87.6949 C   0  0  0  0  0  0  0  0  0  0  0  0
   67.1538   80.6616   87.0646 C   0  0  0  0  0  0  0  0  0  0  0  0
   67.2488   81.8353   87.8188 C   0  0  0  0  0  0  0  0  0  0  0  0
   67.1938   81.7596   89.2225 C   0  0  0  0  0  0  0  0  0  0  0  0
   67.4416   83.0528   87.1478 O   0  0  0  0  0  0  0  0  0  0  0  0
   68.5723   83.8745   87.2651 C   0  0  0  0  0  0  0  0  0  0  0  0
   69.8361   83.3200   87.0255 C   0  0  0  0  0  0  0  0  0  0  0  0
   70.9853   84.1103   87.1243 C   0  0  0  0  0  0  0  0  0  0  0  0
   70.8765   85.4660   87.4492 C   0  0  0  0  0  0  0  0  0  0  0  0
   71.9908   86.2317   87.5453 F   0  0  0  0  0  0  0  0  0  0  0  0
   69.6179   86.0318   87.6720 C   0  0  0  0  0  0  0  0  0  0  0  0
   68.4675   85.2431   87.5733 C   0  0  0  0  0  0  0  0  0  0  0  0
   65.2885   78.2681   94.0378 C   0  0  0  0  0  0  0  0  0  0  0  0
   65.5943   76.9960   93.4650 O   0  0  0  0  0  0  0  0  0  0  0  0
   68.4692   74.7233   94.0354 C   0  0  0  0  0  0  0  0  0  0  0  0
   67.6304   75.7165   93.4954 C   0  0  0  0  0  0  0  0  0  0  0  0
   66.3857   76.0035   94.0663 C   0  0  0  0  0  0  0  0  0  0  0  0
   65.9727   75.2942   95.2071 C   0  0  0  0  0  0  0  0  0  0  0  0
   66.7906   74.3047   95.7523 C   0  0  0  0  0  0  0  0  0  0  0  0
   68.0358   74.0122   95.1783 C   0  0  0  0  0  0  0  0  0  0  0  0
   68.8349   73.0202   95.7474 O   0  0  0  0  0  0  0  0  0  0  0  0
   70.3887   75.3540   92.7553 O   0  0  0  0  0  0  0  0  0  0  0  0
   69.7795   74.4517   93.3905 C   0  0  0  0  0  0  0  0  0  0  0  0
   70.3536   73.1861   93.4822 O   0  0  0  0  0  0  0  0  0  0  0  0
 30 31  2  0
 31 32  1  0
 31 23  1  0
 23 24  2  0
 24 25  1  0
 25 22  1  0
 22 21  1  0
 21  1  1  0
  1  2  2  0
  2  3  1  0
  3  4  2  0
  4  5  1  0
  5  7  1  0
  7  8  2  0
  8  9  1  0
  9 10  2  0
 10 11  1  0
 11 13  1  0
 13 14  1  0
 14 15  2  0
 15 16  1  0
 16 17  2  0
 17 18  1  0
 17 19  1  0
 19 20  2  0
 11 12  2  0
  5  6  2  0
 25 26  2  0
 26 27  1  0
 27 28  2  0
 28 29  1  0
 28 23  1  0
  6  1  1  0
 12  7  1  0
 20 14  1  0
M  END
>  <score>  (63) 
-0.839276

>  <minimizedAffinity>  (63) 
-8.83734

>  <CNNscore>  (63) 
0.6533502340

>  <CNNaffinity>  (63) 
6.3826446533

>  <CNN_VS>  (63) 
4.1701025963

>  <MorganFP>  (63) 
<rdkit.DataStructs.cDataStructs.ExplicitBitVect object at 0x7ff72c66f270>

$$$$
HIPS6981
     RDKit          3D

 32 35  0  0  0  0  0  0  0  0999 V2000
   66.8830   78.9090   91.9006 C   0  0  0  0  0  0  0  0  0  0  0  0
   65.8120   79.6622   92.4027 C   0  0  0  0  0  0  0  0  0  0  0  0
   65.1073   79.2226   93.5247 C   0  0  0  0  0  0  0  0  0  0  0  0
   65.4600   78.0260   94.1524 C   0  0  0  0  0  0  0  0  0  0  0  0
   66.5221   77.2486   93.6581 C   0  0  0  0  0  0  0  0  0  0  0  0
   67.2195   77.6931   92.5194 C   0  0  0  0  0  0  0  0  0  0  0  0
   66.9132   75.9856   94.3355 C   0  0  0  0  0  0  0  0  0  0  0  0
   66.0109   75.3190   95.1840 C   0  0  0  0  0  0  0  0  0  0  0  0
   66.3811   74.1301   95.8162 C   0  0  0  0  0  0  0  0  0  0  0  0
   67.6494   73.5874   95.6032 C   0  0  0  0  0  0  0  0  0  0  0  0
   68.5565   74.2223   94.7490 C   0  0  0  0  0  0  0  0  0  0  0  0
   68.1915   75.4325   94.1317 C   0  0  0  0  0  0  0  0  0  0  0  0
   69.8254   73.6501   94.5694 O   0  0  0  0  0  0  0  0  0  0  0  0
   70.1155   72.5656   93.7287 C   0  0  0  0  0  0  0  0  0  0  0  0
   71.1028   71.6532   94.1220 C   0  0  0  0  0  0  0  0  0  0  0  0
   71.4131   70.5551   93.3140 C   0  0  0  0  0  0  0  0  0  0  0  0
   70.7264   70.3540   92.1127 C   0  0  0  0  0  0  0  0  0  0  0  0
   71.0277   69.2896   91.3294 F   0  0  0  0  0  0  0  0  0  0  0  0
   69.7270   71.2495   91.7213 C   0  0  0  0  0  0  0  0  0  0  0  0
   69.4151   72.3480   92.5282 C   0  0  0  0  0  0  0  0  0  0  0  0
   67.6264   79.3790   90.6754 C   0  0  0  0  0  0  0  0  0  0  0  0
   66.8878   79.1169   89.4814 O   0  0  0  0  0  0  0  0  0  0  0  0
   67.1684   76.8124   86.5889 C   0  0  0  0  0  0  0  0  0  0  0  0
   67.1446   77.9770   87.3794 C   0  0  0  0  0  0  0  0  0  0  0  0
   66.9138   77.9132   88.7579 C   0  0  0  0  0  0  0  0  0  0  0  0
   66.7145   76.6611   89.3642 C   0  0  0  0  0  0  0  0  0  0  0  0
   66.7315   75.4981   88.5946 C   0  0  0  0  0  0  0  0  0  0  0  0
   66.9574   75.5607   87.2123 C   0  0  0  0  0  0  0  0  0  0  0  0
   66.9733   74.3809   86.4679 O   0  0  0  0  0  0  0  0  0  0  0  0
   68.3362   77.6655   84.6838 O   0  0  0  0  0  0  0  0  0  0  0  0
   67.4124   76.9323   85.1286 C   0  0  0  0  0  0  0  0  0  0  0  0
   66.6161   76.2292   84.2278 O   0  0  0  0  0  0  0  0  0  0  0  0
 30 31  2  0
 31 32  1  0
 31 23  1  0
 23 24  2  0
 24 25  1  0
 25 22  1  0
 22 21  1  0
 21  1  1  0
  1  2  2  0
  2  3  1  0
  3  4  2  0
  4  5  1  0
  5  7  1  0
  7  8  2  0
  8  9  1  0
  9 10  2  0
 10 11  1  0
 11 13  1  0
 13 14  1  0
 14 15  2  0
 15 16  1  0
 16 17  2  0
 17 18  1  0
 17 19  1  0
 19 20  2  0
 11 12  2  0
  5  6  2  0
 25 26  2  0
 26 27  1  0
 27 28  2  0
 28 29  1  0
 28 23  1  0
  6  1  1  0
 12  7  1  0
 20 14  1  0
M  END
>  <score>  (64) 
-0.839276

>  <minimizedAffinity>  (64) 
-8.94038

>  <CNNscore>  (64) 
0.5596333742

>  <CNNaffinity>  (64) 
6.4661188126

>  <CNN_VS>  (64) 
3.6186559200

>  <MorganFP>  (64) 
<rdkit.DataStructs.cDataStructs.ExplicitBitVect object at 0x7ff72c66f2e0>

$$$$
HIPS6981
     RDKit          3D

 32 35  0  0  0  0  0  0  0  0999 V2000
   68.3006   74.1542   94.1493 C   0  0  0  0  0  0  0  0  0  0  0  0
   67.1728   73.6093   94.7798 C   0  0  0  0  0  0  0  0  0  0  0  0
   65.9807   74.3334   94.8385 C   0  0  0  0  0  0  0  0  0  0  0  0
   65.9039   75.6087   94.2748 C   0  0  0  0  0  0  0  0  0  0  0  0
   67.0262   76.1795   93.6491 C   0  0  0  0  0  0  0  0  0  0  0  0
   68.2274   75.4477   93.6050 C   0  0  0  0  0  0  0  0  0  0  0  0
   66.9422   77.5275   93.0303 C   0  0  0  0  0  0  0  0  0  0  0  0
   66.0051   78.4698   93.4911 C   0  0  0  0  0  0  0  0  0  0  0  0
   65.9317   79.7372   92.9091 C   0  0  0  0  0  0  0  0  0  0  0  0
   66.7962   80.0831   91.8692 C   0  0  0  0  0  0  0  0  0  0  0  0
   67.7488   79.1694   91.4073 C   0  0  0  0  0  0  0  0  0  0  0  0
   67.8058   77.8847   91.9777 C   0  0  0  0  0  0  0  0  0  0  0  0
   68.5925   79.5520   90.3530 O   0  0  0  0  0  0  0  0  0  0  0  0
   68.2824   80.5016   89.3685 C   0  0  0  0  0  0  0  0  0  0  0  0
   68.9165   81.7497   89.4124 C   0  0  0  0  0  0  0  0  0  0  0  0
   68.6392   82.7184   88.4430 C   0  0  0  0  0  0  0  0  0  0  0  0
   67.7356   82.4389   87.4131 C   0  0  0  0  0  0  0  0  0  0  0  0
   67.4667   83.3783   86.4736 F   0  0  0  0  0  0  0  0  0  0  0  0
   67.1120   81.1894   87.3511 C   0  0  0  0  0  0  0  0  0  0  0  0
   67.3884   80.2195   88.3195 C   0  0  0  0  0  0  0  0  0  0  0  0
   69.5914   73.3754   94.1081 C   0  0  0  0  0  0  0  0  0  0  0  0
   69.3552   71.9785   93.9273 O   0  0  0  0  0  0  0  0  0  0  0  0
   72.3317   70.2179   92.5868 C   0  0  0  0  0  0  0  0  0  0  0  0
   71.4984   71.0428   93.3657 C   0  0  0  0  0  0  0  0  0  0  0  0
   70.1231   71.1224   93.1208 C   0  0  0  0  0  0  0  0  0  0  0  0
   69.5638   70.3543   92.0853 C   0  0  0  0  0  0  0  0  0  0  0  0
   70.3763   69.5347   91.3021 C   0  0  0  0  0  0  0  0  0  0  0  0
   71.7553   69.4579   91.5428 C   0  0  0  0  0  0  0  0  0  0  0  0
   72.5432   68.6263   90.7464 O   0  0  0  0  0  0  0  0  0  0  0  0
   74.3835   69.0706   93.0283 O   0  0  0  0  0  0  0  0  0  0  0  0
   73.7866   70.1713   92.8826 C   0  0  0  0  0  0  0  0  0  0  0  0
   74.5128   71.3537   93.0024 O   0  0  0  0  0  0  0  0  0  0  0  0
 30 31  2  0
 31 32  1  0
 31 23  1  0
 23 24  2  0
 24 25  1  0
 25 22  1  0
 22 21  1  0
 21  1  1  0
  1  2  2  0
  2  3  1  0
  3  4  2  0
  4  5  1  0
  5  7  1  0
  7  8  2  0
  8  9  1  0
  9 10  2  0
 10 11  1  0
 11 13  1  0
 13 14  1  0
 14 15  2  0
 15 16  1  0
 16 17  2  0
 17 18  1  0
 17 19  1  0
 19 20  2  0
 11 12  2  0
  5  6  2  0
 25 26  2  0
 26 27  1  0
 27 28  2  0
 28 29  1  0
 28 23  1  0
  6  1  1  0
 12  7  1  0
 20 14  1  0
M  END
>  <score>  (65) 
-0.839276

>  <minimizedAffinity>  (65) 
-8.86450

>  <CNNscore>  (65) 
0.5565002561

>  <CNNaffinity>  (65) 
5.9264574051

>  <CNN_VS>  (65) 
3.2980749607

>  <MorganFP>  (65) 
<rdkit.DataStructs.cDataStructs.ExplicitBitVect object at 0x7ff72c66f3c0>

$$$$
