HIPS365
     RDKit          3D

 24 25  0  0  0  0  0  0  0  0999 V2000
   66.6345   73.6151   88.2512 C   0  0  0  0  0  0  0  0  0  0  0  0
   66.9946   73.0656   89.4954 C   0  0  0  0  0  0  0  0  0  0  0  0
   67.6985   73.9468   90.3171 C   0  0  0  0  0  0  0  0  0  0  0  0
   67.8774   75.3978   89.4769 S   0  0  0  0  0  0  0  0  0  0  0  0
   67.0676   74.9327   88.0783 C   0  0  0  0  0  0  0  0  0  0  0  0
   68.2233   73.6666   91.6783 C   0  0  0  0  0  0  0  0  0  0  0  0
   69.5495   73.2353   91.8694 C   0  0  0  0  0  0  0  0  0  0  0  0
   70.0330   72.9735   93.1538 C   0  0  0  0  0  0  0  0  0  0  0  0
   69.2047   73.1347   94.2677 C   0  0  0  0  0  0  0  0  0  0  0  0
   69.8514   72.7947   95.8673 Cl  0  0  0  0  0  0  0  0  0  0  0  0
   67.8787   73.5599   94.0925 C   0  0  0  0  0  0  0  0  0  0  0  0
   66.8027   73.7747   95.4671 Cl  0  0  0  0  0  0  0  0  0  0  0  0
   67.3944   73.8216   92.8055 C   0  0  0  0  0  0  0  0  0  0  0  0
   66.0755   71.3384   85.2640 N   0  0  0  0  0  0  0  0  0  0  0  0
   66.6292   71.7941   86.5062 C   0  0  0  0  0  0  0  0  0  0  0  0
   67.6749   71.2617   86.9691 O   0  0  0  0  0  0  0  0  0  0  0  0
   65.9813   72.8521   87.2249 N   0  0  0  0  0  0  0  0  0  0  0  0
   66.7377   70.3522   84.4120 C   0  0  0  0  0  0  0  0  0  0  0  0
   65.7617   69.7583   83.3867 C   0  0  0  0  0  0  0  0  0  0  0  0
   63.2780   70.3507   83.2925 C   0  0  0  0  0  0  0  0  0  0  0  0
   64.6975   70.7624   82.9016 C   0  0  0  0  0  0  0  0  0  0  0  0
   66.8371   75.8167   86.9231 C   0  0  0  0  0  0  0  0  0  0  0  0
   66.9977   75.3723   85.7549 O   0  0  0  0  0  0  0  0  0  0  0  0
   66.4677   77.1455   87.1049 O   0  0  0  0  0  0  0  0  0  0  0  0
 20 21  1  0
 21 19  1  0
 19 18  1  0
 18 14  1  0
 14 15  1  0
 15 16  2  0
 15 17  1  0
 17  1  1  0
  1  2  1  0
  2  3  2  0
  3  6  1  0
  6  7  2  0
  7  8  1  0
  8  9  2  0
  9 10  1  0
  9 11  1  0
 11 12  1  0
 11 13  2  0
  3  4  1  0
  4  5  1  0
  5 22  1  0
 22 23  2  0
 22 24  1  0
  5  1  2  0
 13  6  1  0
M  END
>  <Activity>  (1) 
-0.38507

>  <minimizedAffinity>  (1) 
-7.58224

>  <MorganFP>  (1) 
<rdkit.DataStructs.cDataStructs.ExplicitBitVect object at 0x7f21e4b83200>

$$$$
HIPS365
     RDKit          3D

 24 25  0  0  0  0  0  0  0  0999 V2000
   68.2048   77.9182   91.0954 C   0  0  0  0  0  0  0  0  0  0  0  0
   68.2931   79.2655   90.6997 C   0  0  0  0  0  0  0  0  0  0  0  0
   69.5610   79.6382   90.2515 C   0  0  0  0  0  0  0  0  0  0  0  0
   70.5627   78.2868   90.3676 S   0  0  0  0  0  0  0  0  0  0  0  0
   69.4111   77.2226   90.9754 C   0  0  0  0  0  0  0  0  0  0  0  0
   69.9766   80.9832   89.7770 C   0  0  0  0  0  0  0  0  0  0  0  0
   69.0648   81.8368   89.1278 C   0  0  0  0  0  0  0  0  0  0  0  0
   69.4662   83.0994   88.6845 C   0  0  0  0  0  0  0  0  0  0  0  0
   70.7807   83.5321   88.8783 C   0  0  0  0  0  0  0  0  0  0  0  0
   71.2460   85.1283   88.3055 Cl  0  0  0  0  0  0  0  0  0  0  0  0
   71.7023   82.6905   89.5202 C   0  0  0  0  0  0  0  0  0  0  0  0
   73.3663   83.1956   89.7835 Cl  0  0  0  0  0  0  0  0  0  0  0  0
   71.3001   81.4251   89.9638 C   0  0  0  0  0  0  0  0  0  0  0  0
   65.8553   76.1554   93.5020 N   0  0  0  0  0  0  0  0  0  0  0  0
   66.8870   77.0499   93.0628 C   0  0  0  0  0  0  0  0  0  0  0  0
   67.6720   77.5743   93.8994 O   0  0  0  0  0  0  0  0  0  0  0  0
   67.0150   77.3530   91.6672 N   0  0  0  0  0  0  0  0  0  0  0  0
   65.7327   75.7008   94.8859 C   0  0  0  0  0  0  0  0  0  0  0  0
   65.9454   74.1843   94.9941 C   0  0  0  0  0  0  0  0  0  0  0  0
   68.4980   74.1111   95.0805 C   0  0  0  0  0  0  0  0  0  0  0  0
   67.1930   73.7981   95.8128 C   0  0  0  0  0  0  0  0  0  0  0  0
   69.6686   75.8014   91.2638 C   0  0  0  0  0  0  0  0  0  0  0  0
   68.9116   74.9186   90.7784 O   0  0  0  0  0  0  0  0  0  0  0  0
   70.7236   75.4209   92.0869 O   0  0  0  0  0  0  0  0  0  0  0  0
 20 21  1  0
 21 19  1  0
 19 18  1  0
 18 14  1  0
 14 15  1  0
 15 16  2  0
 15 17  1  0
 17  1  1  0
  1  2  1  0
  2  3  2  0
  3  6  1  0
  6  7  2  0
  7  8  1  0
  8  9  2  0
  9 10  1  0
  9 11  1  0
 11 12  1  0
 11 13  2  0
  3  4  1  0
  4  5  1  0
  5 22  1  0
 22 23  2  0
 22 24  1  0
  5  1  2  0
 13  6  1  0
M  END
>  <Activity>  (2) 
-0.38507

>  <minimizedAffinity>  (2) 
-7.00521

>  <MorganFP>  (2) 
<rdkit.DataStructs.cDataStructs.ExplicitBitVect object at 0x7f21e4b83270>

$$$$
HIPS422
     RDKit          3D

 31 33  0  0  0  0  0  0  0  0999 V2000
   69.8601   78.9225   90.0170 C   0  0  0  0  0  0  0  0  0  0  0  0
   69.2535   80.1913   89.9619 C   0  0  0  0  0  0  0  0  0  0  0  0
   70.1451   81.2508   90.1248 C   0  0  0  0  0  0  0  0  0  0  0  0
   71.6838   80.5974   90.3305 S   0  0  0  0  0  0  0  0  0  0  0  0
   71.2419   78.9774   90.2214 C   0  0  0  0  0  0  0  0  0  0  0  0
   69.8113   82.6976   90.1320 C   0  0  0  0  0  0  0  0  0  0  0  0
   69.3798   83.3196   91.3169 C   0  0  0  0  0  0  0  0  0  0  0  0
   69.0686   84.6816   91.3316 C   0  0  0  0  0  0  0  0  0  0  0  0
   69.1780   85.4446   90.1657 C   0  0  0  0  0  0  0  0  0  0  0  0
   68.7762   87.1551   90.2258 Cl  0  0  0  0  0  0  0  0  0  0  0  0
   69.6006   84.8361   88.9738 C   0  0  0  0  0  0  0  0  0  0  0  0
   69.7444   85.7569   87.4820 Cl  0  0  0  0  0  0  0  0  0  0  0  0
   69.9132   83.4715   88.9601 C   0  0  0  0  0  0  0  0  0  0  0  0
   68.3286   76.1495   91.7885 N   0  0  0  0  0  0  0  0  0  0  0  0
   68.1796   77.3643   91.0194 C   0  0  0  0  0  0  0  0  0  0  0  0
   67.2533   78.1749   91.2953 O   0  0  0  0  0  0  0  0  0  0  0  0
   69.1037   77.7023   89.9780 N   0  0  0  0  0  0  0  0  0  0  0  0
   67.7023   76.0452   93.1202 C   0  0  0  0  0  0  0  0  0  0  0  0
   68.1253   74.7722   93.8841 C   0  0  0  0  0  0  0  0  0  0  0  0
   66.0261   74.0657   95.1431 C   0  0  0  0  0  0  0  0  0  0  0  0
   67.4510   74.6061   95.2549 C   0  0  0  0  0  0  0  0  0  0  0  0
   68.9567   74.9533   91.2020 C   0  0  0  0  0  0  0  0  0  0  0  0
   68.0869   74.3504   90.1301 C   0  0  0  0  0  0  0  0  0  0  0  0
   67.9044   72.9584   90.0664 C   0  0  0  0  0  0  0  0  0  0  0  0
   67.1224   72.3945   89.0539 C   0  0  0  0  0  0  0  0  0  0  0  0
   66.5182   73.2140   88.0980 C   0  0  0  0  0  0  0  0  0  0  0  0
   66.6858   74.6000   88.1592 C   0  0  0  0  0  0  0  0  0  0  0  0
   67.4612   75.1686   89.1735 C   0  0  0  0  0  0  0  0  0  0  0  0
   72.1960   77.8574   90.2838 C   0  0  0  0  0  0  0  0  0  0  0  0
   73.0839   77.7449   89.3965 O   0  0  0  0  0  0  0  0  0  0  0  0
   72.1120   76.9029   91.2923 O   0  0  0  0  0  0  0  0  0  0  0  0
 20 21  1  0
 21 19  1  0
 19 18  1  0
 18 14  1  0
 14 22  1  0
 22 23  1  0
 23 24  2  0
 24 25  1  0
 25 26  2  0
 26 27  1  0
 27 28  2  0
 14 15  1  0
 15 16  2  0
 15 17  1  0
 17  1  1  0
  1  2  1  0
  2  3  2  0
  3  6  1  0
  6  7  2  0
  7  8  1  0
  8  9  2  0
  9 10  1  0
  9 11  1  0
 11 12  1  0
 11 13  2  0
  3  4  1  0
  4  5  1  0
  5 29  1  0
 29 30  2  0
 29 31  1  0
 28 23  1  0
  5  1  2  0
 13  6  1  0
M  END
>  <Activity>  (3) 
-0.001231

>  <minimizedAffinity>  (3) 
-7.66389

>  <MorganFP>  (3) 
<rdkit.DataStructs.cDataStructs.ExplicitBitVect object at 0x7f21e4327190>

$$$$
HIPS431
     RDKit          3D

 34 37  0  0  0  0  0  0  0  0999 V2000
   67.9931   78.4631   90.8861 N   0  0  0  0  0  0  0  0  0  0  0  0
   69.1697   77.6606   91.0652 C   0  0  0  0  0  0  0  0  0  0  0  0
   70.0515   77.6434   90.1634 O   0  0  0  0  0  0  0  0  0  0  0  0
   69.3359   76.8428   92.2446 N   0  0  0  0  0  0  0  0  0  0  0  0
   67.1679   79.1291   88.6072 C   0  0  0  0  0  0  0  0  0  0  0  0
   67.2423   80.5195   87.6663 S   0  0  0  0  0  0  0  0  0  0  0  0
   68.1431   81.4612   88.7384 C   0  0  0  0  0  0  0  0  0  0  0  0
   68.4045   80.6786   89.8646 C   0  0  0  0  0  0  0  0  0  0  0  0
   67.8498   79.3910   89.8022 C   0  0  0  0  0  0  0  0  0  0  0  0
   68.5697   82.8670   88.5059 C   0  0  0  0  0  0  0  0  0  0  0  0
   67.6085   83.8806   88.3377 C   0  0  0  0  0  0  0  0  0  0  0  0
   67.9998   85.2038   88.1202 C   0  0  0  0  0  0  0  0  0  0  0  0
   69.3545   85.5411   88.0678 C   0  0  0  0  0  0  0  0  0  0  0  0
   69.8056   87.2181   87.7938 Cl  0  0  0  0  0  0  0  0  0  0  0  0
   70.3261   84.5429   88.2340 C   0  0  0  0  0  0  0  0  0  0  0  0
   72.0430   84.9255   88.1731 Cl  0  0  0  0  0  0  0  0  0  0  0  0
   69.9338   83.2170   88.4523 C   0  0  0  0  0  0  0  0  0  0  0  0
   66.1518   77.0105   88.9804 O   0  0  0  0  0  0  0  0  0  0  0  0
   66.5597   77.8669   88.1525 C   0  0  0  0  0  0  0  0  0  0  0  0
   66.4605   77.6041   86.7891 O   0  0  0  0  0  0  0  0  0  0  0  0
   70.1782   75.6367   92.1813 C   0  0  0  0  0  0  0  0  0  0  0  0
   69.4332   74.4942   91.5411 C   0  0  0  0  0  0  0  0  0  0  0  0
   69.7098   73.1654   91.9140 C   0  0  0  0  0  0  0  0  0  0  0  0
   69.0424   72.1059   91.2911 C   0  0  0  0  0  0  0  0  0  0  0  0
   68.1008   72.3634   90.2882 C   0  0  0  0  0  0  0  0  0  0  0  0
   67.8219   73.6804   89.9099 C   0  0  0  0  0  0  0  0  0  0  0  0
   68.4843   74.7433   90.5330 C   0  0  0  0  0  0  0  0  0  0  0  0
   68.6418   77.1677   93.5036 C   0  0  0  0  0  0  0  0  0  0  0  0
   67.8644   75.9805   94.0198 C   0  0  0  0  0  0  0  0  0  0  0  0
   66.5822   75.6873   93.5142 C   0  0  0  0  0  0  0  0  0  0  0  0
   65.8488   74.6122   94.0285 C   0  0  0  0  0  0  0  0  0  0  0  0
   66.3892   73.8177   95.0446 C   0  0  0  0  0  0  0  0  0  0  0  0
   67.6701   74.0899   95.5404 C   0  0  0  0  0  0  0  0  0  0  0  0
   68.4065   75.1627   95.0274 C   0  0  0  0  0  0  0  0  0  0  0  0
 18 19  2  0
 19 20  1  0
 19  5  1  0
  5  6  1  0
  6  7  1  0
  7 10  1  0
 10 11  2  0
 11 12  1  0
 12 13  2  0
 13 14  1  0
 13 15  1  0
 15 16  1  0
 15 17  2  0
  7  8  2  0
  8  9  1  0
  9  1  1  0
  1  2  1  0
  2  3  2  0
  2  4  1  0
  4 21  1  0
 21 22  1  0
 22 23  2  0
 23 24  1  0
 24 25  2  0
 25 26  1  0
 26 27  2  0
  4 28  1  0
 28 29  1  0
 29 30  2  0
 30 31  1  0
 31 32  2  0
 32 33  1  0
 33 34  2  0
  9  5  2  0
 27 22  1  0
 34 29  1  0
 17 10  1  0
M  END
>  <Activity>  (4) 
-0.154405

>  <minimizedAffinity>  (4) 
-9.24631

>  <MorganFP>  (4) 
<rdkit.DataStructs.cDataStructs.ExplicitBitVect object at 0x7f21e4327350>

$$$$
HIPS431
     RDKit          3D

 34 37  0  0  0  0  0  0  0  0999 V2000
   69.1068   79.6627   90.2401 N   0  0  0  0  0  0  0  0  0  0  0  0
   67.9942   79.2037   91.0224 C   0  0  0  0  0  0  0  0  0  0  0  0
   66.9676   79.9294   91.1255 O   0  0  0  0  0  0  0  0  0  0  0  0
   68.0527   77.9425   91.7245 N   0  0  0  0  0  0  0  0  0  0  0  0
   68.0545   81.0882   88.4572 C   0  0  0  0  0  0  0  0  0  0  0  0
   68.3768   82.5932   87.7828 S   0  0  0  0  0  0  0  0  0  0  0  0
   69.7648   82.9411   88.6772 C   0  0  0  0  0  0  0  0  0  0  0  0
   69.9975   81.8577   89.5265 C   0  0  0  0  0  0  0  0  0  0  0  0
   69.0407   80.8367   89.4193 C   0  0  0  0  0  0  0  0  0  0  0  0
   70.5769   84.1822   88.5654 C   0  0  0  0  0  0  0  0  0  0  0  0
   71.9735   84.1040   88.4139 C   0  0  0  0  0  0  0  0  0  0  0  0
   72.7441   85.2641   88.3066 C   0  0  0  0  0  0  0  0  0  0  0  0
   72.1377   86.5220   88.3471 C   0  0  0  0  0  0  0  0  0  0  0  0
   73.1426   87.9579   88.2071 Cl  0  0  0  0  0  0  0  0  0  0  0  0
   70.7462   86.6182   88.4971 C   0  0  0  0  0  0  0  0  0  0  0  0
   69.9435   88.1835   88.5545 Cl  0  0  0  0  0  0  0  0  0  0  0  0
   69.9740   85.4554   88.6042 C   0  0  0  0  0  0  0  0  0  0  0  0
   67.1908   79.2701   87.1887 O   0  0  0  0  0  0  0  0  0  0  0  0
   66.9670   80.2051   88.0017 C   0  0  0  0  0  0  0  0  0  0  0  0
   65.6688   80.4248   88.4536 O   0  0  0  0  0  0  0  0  0  0  0  0
   67.2332   77.7425   92.9315 C   0  0  0  0  0  0  0  0  0  0  0  0
   67.6823   76.5201   93.6892 C   0  0  0  0  0  0  0  0  0  0  0  0
   68.9488   76.4876   94.3026 C   0  0  0  0  0  0  0  0  0  0  0  0
   69.3768   75.3374   94.9735 C   0  0  0  0  0  0  0  0  0  0  0  0
   68.5487   74.2107   95.0313 C   0  0  0  0  0  0  0  0  0  0  0  0
   67.2900   74.2336   94.4225 C   0  0  0  0  0  0  0  0  0  0  0  0
   66.8564   75.3832   93.7537 C   0  0  0  0  0  0  0  0  0  0  0  0
   68.9523   76.8623   91.2813 C   0  0  0  0  0  0  0  0  0  0  0  0
   68.2333   75.8907   90.3762 C   0  0  0  0  0  0  0  0  0  0  0  0
   68.3204   74.5022   90.6001 C   0  0  0  0  0  0  0  0  0  0  0  0
   67.6883   73.6055   89.7314 C   0  0  0  0  0  0  0  0  0  0  0  0
   66.9599   74.0847   88.6381 C   0  0  0  0  0  0  0  0  0  0  0  0
   66.8521   75.4633   88.4180 C   0  0  0  0  0  0  0  0  0  0  0  0
   67.4812   76.3624   89.2853 C   0  0  0  0  0  0  0  0  0  0  0  0
 18 19  2  0
 19 20  1  0
 19  5  1  0
  5  6  1  0
  6  7  1  0
  7 10  1  0
 10 11  2  0
 11 12  1  0
 12 13  2  0
 13 14  1  0
 13 15  1  0
 15 16  1  0
 15 17  2  0
  7  8  2  0
  8  9  1  0
  9  1  1  0
  1  2  1  0
  2  3  2  0
  2  4  1  0
  4 21  1  0
 21 22  1  0
 22 23  2  0
 23 24  1  0
 24 25  2  0
 25 26  1  0
 26 27  2  0
  4 28  1  0
 28 29  1  0
 29 30  2  0
 30 31  1  0
 31 32  2  0
 32 33  1  0
 33 34  2  0
  9  5  2  0
 27 22  1  0
 34 29  1  0
 17 10  1  0
M  END
>  <Activity>  (5) 
-0.154405

>  <minimizedAffinity>  (5) 
-9.12541

>  <MorganFP>  (5) 
<rdkit.DataStructs.cDataStructs.ExplicitBitVect object at 0x7f21e43273c0>

$$$$
HIPS451
     RDKit          3D

 28 30  0  0  0  0  0  0  0  0999 V2000
   69.5593   79.5940   89.9458 C   0  0  0  0  0  0  0  0  0  0  0  0
   69.1848   80.9214   89.6726 C   0  0  0  0  0  0  0  0  0  0  0  0
   70.2440   81.8250   89.7448 C   0  0  0  0  0  0  0  0  0  0  0  0
   71.6333   80.9662   90.1561 S   0  0  0  0  0  0  0  0  0  0  0  0
   70.9160   79.4505   90.2508 C   0  0  0  0  0  0  0  0  0  0  0  0
   70.1756   83.2908   89.5330 C   0  0  0  0  0  0  0  0  0  0  0  0
   69.1447   84.0433   90.1252 C   0  0  0  0  0  0  0  0  0  0  0  0
   69.0674   85.4243   89.9243 C   0  0  0  0  0  0  0  0  0  0  0  0
   70.0124   86.0706   89.1241 C   0  0  0  0  0  0  0  0  0  0  0  0
   69.8990   87.9569   88.8464 Br  0  0  0  0  0  0  0  0  0  0  0  0
   71.0388   85.3349   88.5278 C   0  0  0  0  0  0  0  0  0  0  0  0
   71.1227   83.9535   88.7292 C   0  0  0  0  0  0  0  0  0  0  0  0
   67.8583   76.7831   91.6683 N   0  0  0  0  0  0  0  0  0  0  0  0
   67.9913   78.1696   91.2929 C   0  0  0  0  0  0  0  0  0  0  0  0
   67.5629   79.0765   92.0583 O   0  0  0  0  0  0  0  0  0  0  0  0
   68.6055   78.5286   90.0503 N   0  0  0  0  0  0  0  0  0  0  0  0
   67.2904   75.8315   93.8740 C   0  0  0  0  0  0  0  0  0  0  0  0
   66.7578   76.3742   92.5540 C   0  0  0  0  0  0  0  0  0  0  0  0
   68.7948   75.7728   91.1467 C   0  0  0  0  0  0  0  0  0  0  0  0
   68.1074   74.8484   90.1694 C   0  0  0  0  0  0  0  0  0  0  0  0
   67.4173   75.3759   89.0674 C   0  0  0  0  0  0  0  0  0  0  0  0
   66.7203   74.5325   88.1968 C   0  0  0  0  0  0  0  0  0  0  0  0
   66.7096   73.1543   88.4178 C   0  0  0  0  0  0  0  0  0  0  0  0
   67.4015   72.6180   89.5046 C   0  0  0  0  0  0  0  0  0  0  0  0
   68.1047   73.4589   90.3741 C   0  0  0  0  0  0  0  0  0  0  0  0
   71.6496   78.2171   90.5760 C   0  0  0  0  0  0  0  0  0  0  0  0
   72.4902   77.7366   89.7721 O   0  0  0  0  0  0  0  0  0  0  0  0
   71.4280   77.5885   91.7952 O   0  0  0  0  0  0  0  0  0  0  0  0
 17 18  1  0
 18 13  1  0
 13 19  1  0
 19 20  1  0
 20 21  2  0
 21 22  1  0
 22 23  2  0
 23 24  1  0
 24 25  2  0
 13 14  1  0
 14 15  2  0
 14 16  1  0
 16  1  1  0
  1  2  1  0
  2  3  2  0
  3  6  1  0
  6  7  2  0
  7  8  1  0
  8  9  2  0
  9 10  1  0
  9 11  1  0
 11 12  2  0
  3  4  1  0
  4  5  1  0
  5 26  1  0
 26 27  2  0
 26 28  1  0
 25 20  1  0
  5  1  2  0
 12  6  1  0
M  END
>  <Activity>  (6) 
-0.300895

>  <minimizedAffinity>  (6) 
-7.57150

>  <MorganFP>  (6) 
<rdkit.DataStructs.cDataStructs.ExplicitBitVect object at 0x7f21e4327c10>

$$$$
HIPS452
     RDKit          3D

 28 30  0  0  0  0  0  0  0  0999 V2000
   68.1670   78.9771   90.7535 C   0  0  0  0  0  0  0  0  0  0  0  0
   68.7136   77.7075   90.4886 C   0  0  0  0  0  0  0  0  0  0  0  0
   68.1623   76.6850   91.2615 C   0  0  0  0  0  0  0  0  0  0  0  0
   67.0140   77.3767   92.2832 S   0  0  0  0  0  0  0  0  0  0  0  0
   67.1949   78.9641   91.7590 C   0  0  0  0  0  0  0  0  0  0  0  0
   68.5264   75.2455   91.2227 C   0  0  0  0  0  0  0  0  0  0  0  0
   69.5001   74.7351   92.1012 C   0  0  0  0  0  0  0  0  0  0  0  0
   69.8474   73.3814   92.0711 C   0  0  0  0  0  0  0  0  0  0  0  0
   69.2170   72.5084   91.1745 C   0  0  0  0  0  0  0  0  0  0  0  0
   69.6186   71.0643   91.1159 C   0  0  0  0  0  0  0  0  0  0  0  0
   68.2555   73.0111   90.2876 C   0  0  0  0  0  0  0  0  0  0  0  0
   67.9072   74.3648   90.3153 C   0  0  0  0  0  0  0  0  0  0  0  0
   68.3903   82.1191   88.5608 N   0  0  0  0  0  0  0  0  0  0  0  0
   67.9168   80.8589   89.0756 C   0  0  0  0  0  0  0  0  0  0  0  0
   66.8642   80.3539   88.5993 O   0  0  0  0  0  0  0  0  0  0  0  0
   68.6343   80.1791   90.1207 N   0  0  0  0  0  0  0  0  0  0  0  0
   67.5782   83.6975   86.8405 C   0  0  0  0  0  0  0  0  0  0  0  0
   68.3004   82.3820   87.1178 C   0  0  0  0  0  0  0  0  0  0  0  0
   68.8687   83.1725   89.4709 C   0  0  0  0  0  0  0  0  0  0  0  0
   70.3641   83.3326   89.3646 C   0  0  0  0  0  0  0  0  0  0  0  0
   71.2236   82.4712   90.0678 C   0  0  0  0  0  0  0  0  0  0  0  0
   72.6098   82.6303   89.9799 C   0  0  0  0  0  0  0  0  0  0  0  0
   73.1493   83.6491   89.1907 C   0  0  0  0  0  0  0  0  0  0  0  0
   72.3031   84.5092   88.4862 C   0  0  0  0  0  0  0  0  0  0  0  0
   70.9163   84.3528   88.5705 C   0  0  0  0  0  0  0  0  0  0  0  0
   66.4109   80.0988   92.2787 C   0  0  0  0  0  0  0  0  0  0  0  0
   65.1891   79.9427   92.5442 O   0  0  0  0  0  0  0  0  0  0  0  0
   66.9965   81.3461   92.4668 O   0  0  0  0  0  0  0  0  0  0  0  0
 17 18  1  0
 18 13  1  0
 13 19  1  0
 19 20  1  0
 20 21  2  0
 21 22  1  0
 22 23  2  0
 23 24  1  0
 24 25  2  0
 13 14  1  0
 14 15  2  0
 14 16  1  0
 16  1  1  0
  1  2  1  0
  2  3  2  0
  3  6  1  0
  6  7  2  0
  7  8  1  0
  8  9  2  0
  9 10  1  0
  9 11  1  0
 11 12  2  0
  3  4  1  0
  4  5  1  0
  5 26  1  0
 26 27  2  0
 26 28  1  0
 25 20  1  0
  5  1  2  0
 12  6  1  0
M  END
>  <Activity>  (7) 
-0.065204

>  <minimizedAffinity>  (7) 
-8.08403

>  <MorganFP>  (7) 
<rdkit.DataStructs.cDataStructs.ExplicitBitVect object at 0x7f21e4327c80>

$$$$
HIPS452
     RDKit          3D

 28 30  0  0  0  0  0  0  0  0999 V2000
   68.1632   78.9289   89.7102 C   0  0  0  0  0  0  0  0  0  0  0  0
   68.5603   77.8390   90.5074 C   0  0  0  0  0  0  0  0  0  0  0  0
   68.3193   76.5958   89.9215 C   0  0  0  0  0  0  0  0  0  0  0  0
   67.5937   76.8666   88.4244 S   0  0  0  0  0  0  0  0  0  0  0  0
   67.5820   78.5464   88.4968 C   0  0  0  0  0  0  0  0  0  0  0  0
   68.6184   75.2637   90.5065 C   0  0  0  0  0  0  0  0  0  0  0  0
   69.5192   75.1461   91.5812 C   0  0  0  0  0  0  0  0  0  0  0  0
   69.8051   73.8960   92.1377 C   0  0  0  0  0  0  0  0  0  0  0  0
   69.1841   72.7416   91.6423 C   0  0  0  0  0  0  0  0  0  0  0  0
   69.5216   71.3964   92.2139 C   0  0  0  0  0  0  0  0  0  0  0  0
   68.2956   72.8487   90.5639 C   0  0  0  0  0  0  0  0  0  0  0  0
   68.0088   74.0977   90.0053 C   0  0  0  0  0  0  0  0  0  0  0  0
   69.5096   82.4145   90.5863 N   0  0  0  0  0  0  0  0  0  0  0  0
   69.4990   81.0140   90.2457 C   0  0  0  0  0  0  0  0  0  0  0  0
   70.5920   80.4216   90.0359 O   0  0  0  0  0  0  0  0  0  0  0  0
   68.2575   80.2943   90.1464 N   0  0  0  0  0  0  0  0  0  0  0  0
   69.9424   83.6410   92.6884 C   0  0  0  0  0  0  0  0  0  0  0  0
   70.5527   82.9241   91.4873 C   0  0  0  0  0  0  0  0  0  0  0  0
   68.5525   83.3470   89.9689 C   0  0  0  0  0  0  0  0  0  0  0  0
   69.1806   84.0617   88.7993 C   0  0  0  0  0  0  0  0  0  0  0  0
   68.9079   85.4206   88.5662 C   0  0  0  0  0  0  0  0  0  0  0  0
   69.4793   86.0782   87.4728 C   0  0  0  0  0  0  0  0  0  0  0  0
   70.3267   85.3862   86.6039 C   0  0  0  0  0  0  0  0  0  0  0  0
   70.6056   84.0357   86.8285 C   0  0  0  0  0  0  0  0  0  0  0  0
   70.0370   83.3746   87.9214 C   0  0  0  0  0  0  0  0  0  0  0  0
   67.0701   79.4148   87.4217 C   0  0  0  0  0  0  0  0  0  0  0  0
   67.4561   79.2328   86.2362 O   0  0  0  0  0  0  0  0  0  0  0  0
   66.1768   80.4443   87.6984 O   0  0  0  0  0  0  0  0  0  0  0  0
 17 18  1  0
 18 13  1  0
 13 19  1  0
 19 20  1  0
 20 21  2  0
 21 22  1  0
 22 23  2  0
 23 24  1  0
 24 25  2  0
 13 14  1  0
 14 15  2  0
 14 16  1  0
 16  1  1  0
  1  2  1  0
  2  3  2  0
  3  6  1  0
  6  7  2  0
  7  8  1  0
  8  9  2  0
  9 10  1  0
  9 11  1  0
 11 12  2  0
  3  4  1  0
  4  5  1  0
  5 26  1  0
 26 27  2  0
 26 28  1  0
 25 20  1  0
  5  1  2  0
 12  6  1  0
M  END
>  <Activity>  (8) 
-0.065204

>  <minimizedAffinity>  (8) 
-7.70376

>  <MorganFP>  (8) 
<rdkit.DataStructs.cDataStructs.ExplicitBitVect object at 0x7f21e4327cf0>

$$$$
HIPS5024
     RDKit          3D

 25 27  0  0  0  0  0  0  0  0999 V2000
   68.0723   74.2009   89.9483 N   0  0  0  0  0  0  0  0  0  0  0  0
   67.7362   73.7243   93.6604 C   0  0  0  0  0  0  0  0  0  0  0  0
   67.4596   74.0602   92.3202 C   0  0  0  0  0  0  0  0  0  0  0  0
   68.4059   73.8486   91.3057 C   0  0  0  0  0  0  0  0  0  0  0  0
   69.6527   73.2986   91.6431 C   0  0  0  0  0  0  0  0  0  0  0  0
   69.9411   72.9601   92.9645 C   0  0  0  0  0  0  0  0  0  0  0  0
   68.9952   73.1666   93.9768 C   0  0  0  0  0  0  0  0  0  0  0  0
   69.3132   72.8171   95.2891 O   0  0  0  0  0  0  0  0  0  0  0  0
   65.8351   74.8619   94.5426 O   0  0  0  0  0  0  0  0  0  0  0  0
   66.7036   73.9617   94.7031 C   0  0  0  0  0  0  0  0  0  0  0  0
   66.6754   73.2008   95.8686 O   0  0  0  0  0  0  0  0  0  0  0  0
   66.9179   75.0163   89.5606 C   0  0  0  0  0  0  0  0  0  0  0  0
   67.2559   75.9189   88.3859 C   0  0  0  0  0  0  0  0  0  0  0  0
   67.0091   75.4099   87.0949 C   0  0  0  0  0  0  0  0  0  0  0  0
   67.2122   76.1926   85.9613 C   0  0  0  0  0  0  0  0  0  0  0  0
   67.6325   77.5104   86.0928 C   0  0  0  0  0  0  0  0  0  0  0  0
   67.8620   78.0487   87.3576 C   0  0  0  0  0  0  0  0  0  0  0  0
   67.7130   77.2656   88.5258 C   0  0  0  0  0  0  0  0  0  0  0  0
   67.9240   77.9170   89.8890 C   0  0  0  0  0  0  0  0  0  0  0  0
   69.3213   77.7393   90.4333 C   0  0  0  0  0  0  0  0  0  0  0  0
   70.4302   78.2535   89.7398 C   0  0  0  0  0  0  0  0  0  0  0  0
   71.7221   78.0678   90.2420 C   0  0  0  0  0  0  0  0  0  0  0  0
   71.9163   77.3673   91.4356 C   0  0  0  0  0  0  0  0  0  0  0  0
   70.8189   76.8496   92.1291 C   0  0  0  0  0  0  0  0  0  0  0  0
   69.5255   77.0326   91.6311 C   0  0  0  0  0  0  0  0  0  0  0  0
  9 10  2  0
 10 11  1  0
 10  2  1  0
  2  3  2  0
  3  4  1  0
  4  1  1  0
  1 12  1  0
 12 13  1  0
 13 14  2  0
 14 15  1  0
 15 16  2  0
 16 17  1  0
 17 18  2  0
 18 19  1  0
 19 20  1  0
 20 21  2  0
 21 22  1  0
 22 23  2  0
 23 24  1  0
 24 25  2  0
  4  5  2  0
  5  6  1  0
  6  7  2  0
  7  8  1  0
  7  2  1  0
 18 13  1  0
 25 20  1  0
M  END
>  <Activity>  (9) 
0.00847

>  <minimizedAffinity>  (9) 
-7.96128

>  <MorganFP>  (9) 
<rdkit.DataStructs.cDataStructs.ExplicitBitVect object at 0x7f21e430fac0>

$$$$
HIPS5967
     RDKit          3D

 23 24  0  0  0  0  0  0  0  0999 V2000
   69.4708   74.2279   92.3819 C   0  0  0  0  0  0  0  0  0  0  0  0
   68.8531   74.2525   91.1125 C   0  0  0  0  0  0  0  0  0  0  0  0
   68.5444   72.9840   90.6273 C   0  0  0  0  0  0  0  0  0  0  0  0
   69.0760   71.8456   91.7414 S   0  0  0  0  0  0  0  0  0  0  0  0
   69.6898   72.9340   92.8654 C   0  0  0  0  0  0  0  0  0  0  0  0
   68.5402   75.4809   90.3550 C   0  0  0  0  0  0  0  0  0  0  0  0
   67.4617   75.4998   89.4568 C   0  0  0  0  0  0  0  0  0  0  0  0
   67.1589   76.6623   88.7430 C   0  0  0  0  0  0  0  0  0  0  0  0
   67.9343   77.8149   88.9090 C   0  0  0  0  0  0  0  0  0  0  0  0
   67.5045   79.2671   88.0163 Cl  0  0  0  0  0  0  0  0  0  0  0  0
   69.0316   77.7965   89.7863 C   0  0  0  0  0  0  0  0  0  0  0  0
   70.0323   79.2222   90.0238 Cl  0  0  0  0  0  0  0  0  0  0  0  0
   69.3344   76.6300   90.4988 C   0  0  0  0  0  0  0  0  0  0  0  0
   70.4114   72.5368   94.0849 C   0  0  0  0  0  0  0  0  0  0  0  0
   71.5492   72.0007   94.0121 O   0  0  0  0  0  0  0  0  0  0  0  0
   69.8155   72.7200   95.3287 O   0  0  0  0  0  0  0  0  0  0  0  0
   69.7450   75.4142   93.1411 N   0  0  0  0  0  0  0  0  0  0  0  0
   68.8549   75.8715   94.2104 C   0  0  0  0  0  0  0  0  0  0  0  0
   67.7634   76.8171   93.6763 C   0  0  0  0  0  0  0  0  0  0  0  0
   66.3343   76.2823   93.8749 C   0  0  0  0  0  0  0  0  0  0  0  0
   66.2670   74.7516   93.8029 C   0  0  0  0  0  0  0  0  0  0  0  0
   66.6639   73.9597   96.1932 C   0  0  0  0  0  0  0  0  0  0  0  0
   65.6506   74.1218   95.0606 C   0  0  0  0  0  0  0  0  0  0  0  0
 22 23  1  0
 23 21  1  0
 21 20  1  0
 20 19  1  0
 19 18  1  0
 18 17  1  0
 17  1  1  0
  1  2  1  0
  2  6  1  0
  6  7  2  0
  7  8  1  0
  8  9  2  0
  9 10  1  0
  9 11  1  0
 11 12  1  0
 11 13  2  0
  2  3  2  0
  3  4  1  0
  4  5  1  0
  5 14  1  0
 14 15  2  0
 14 16  1  0
  5  1  2  0
 13  6  1  0
M  END
>  <Activity>  (10) 
-0.855624

>  <minimizedAffinity>  (10) 
-6.82967

>  <MorganFP>  (10) 
<rdkit.DataStructs.cDataStructs.ExplicitBitVect object at 0x7f21e430e350>

$$$$
HIPS5967
     RDKit          3D

 23 24  0  0  0  0  0  0  0  0999 V2000
   70.2989   71.7742   93.4488 C   0  0  0  0  0  0  0  0  0  0  0  0
   69.7833   71.9091   92.1414 C   0  0  0  0  0  0  0  0  0  0  0  0
   69.7230   70.7030   91.4476 C   0  0  0  0  0  0  0  0  0  0  0  0
   70.3469   69.4932   92.4308 S   0  0  0  0  0  0  0  0  0  0  0  0
   70.6884   70.4669   93.7575 C   0  0  0  0  0  0  0  0  0  0  0  0
   69.3329   73.1824   91.5441 C   0  0  0  0  0  0  0  0  0  0  0  0
   68.2917   73.1901   90.6027 C   0  0  0  0  0  0  0  0  0  0  0  0
   67.8586   74.3936   90.0402 C   0  0  0  0  0  0  0  0  0  0  0  0
   68.4658   75.6010   90.4021 C   0  0  0  0  0  0  0  0  0  0  0  0
   67.8739   77.0980   89.6957 Cl  0  0  0  0  0  0  0  0  0  0  0  0
   69.5263   75.5992   91.3238 C   0  0  0  0  0  0  0  0  0  0  0  0
   70.3175   77.0933   91.8053 Cl  0  0  0  0  0  0  0  0  0  0  0  0
   69.9598   74.3919   91.8845 C   0  0  0  0  0  0  0  0  0  0  0  0
   71.3706   69.9918   94.9717 C   0  0  0  0  0  0  0  0  0  0  0  0
   70.7817   70.0028   96.0855 O   0  0  0  0  0  0  0  0  0  0  0  0
   72.6917   69.5618   94.8962 O   0  0  0  0  0  0  0  0  0  0  0  0
   70.3180   72.8511   94.3969 N   0  0  0  0  0  0  0  0  0  0  0  0
   69.2983   72.9819   95.4399 C   0  0  0  0  0  0  0  0  0  0  0  0
   68.3723   74.1848   95.1823 C   0  0  0  0  0  0  0  0  0  0  0  0
   66.9499   73.9971   95.7385 C   0  0  0  0  0  0  0  0  0  0  0  0
   65.8742   74.5423   94.7905 C   0  0  0  0  0  0  0  0  0  0  0  0
   66.3575   76.6173   93.3910 C   0  0  0  0  0  0  0  0  0  0  0  0
   66.4571   75.0949   93.4817 C   0  0  0  0  0  0  0  0  0  0  0  0
 22 23  1  0
 23 21  1  0
 21 20  1  0
 20 19  1  0
 19 18  1  0
 18 17  1  0
 17  1  1  0
  1  2  1  0
  2  6  1  0
  6  7  2  0
  7  8  1  0
  8  9  2  0
  9 10  1  0
  9 11  1  0
 11 12  1  0
 11 13  2  0
  2  3  2  0
  3  4  1  0
  4  5  1  0
  5 14  1  0
 14 15  2  0
 14 16  1  0
  5  1  2  0
 13  6  1  0
M  END
>  <Activity>  (11) 
-0.855624

>  <minimizedAffinity>  (11) 
-6.61215

>  <MorganFP>  (11) 
<rdkit.DataStructs.cDataStructs.ExplicitBitVect object at 0x7f21e430e3c0>

$$$$
HIPS5993
     RDKit          3D

 17 18  0  0  0  0  0  0  0  0999 V2000
   69.9038   72.2207   94.2960 N   0  0  0  0  0  0  0  0  0  0  0  0
   70.1188   71.1553   93.3620 C   0  0  0  0  0  0  0  0  0  0  0  0
   69.8696   71.2871   91.9753 C   0  0  0  0  0  0  0  0  0  0  0  0
   70.1844   70.1423   91.2478 C   0  0  0  0  0  0  0  0  0  0  0  0
   70.7468   68.9760   92.3135 S   0  0  0  0  0  0  0  0  0  0  0  0
   70.6208   69.8952   93.7169 C   0  0  0  0  0  0  0  0  0  0  0  0
   69.2918   72.4863   91.3294 C   0  0  0  0  0  0  0  0  0  0  0  0
   69.6872   73.7737   91.7267 C   0  0  0  0  0  0  0  0  0  0  0  0
   69.1211   74.9021   91.1282 C   0  0  0  0  0  0  0  0  0  0  0  0
   68.1468   74.7605   90.1344 C   0  0  0  0  0  0  0  0  0  0  0  0
   67.4573   76.2044   89.4053 Cl  0  0  0  0  0  0  0  0  0  0  0  0
   67.7332   73.4766   89.7416 C   0  0  0  0  0  0  0  0  0  0  0  0
   66.5061   73.2540   88.5019 Cl  0  0  0  0  0  0  0  0  0  0  0  0
   68.3017   72.3473   90.3429 C   0  0  0  0  0  0  0  0  0  0  0  0
   71.0543   69.4156   95.0426 C   0  0  0  0  0  0  0  0  0  0  0  0
   70.2431   68.7815   95.7690 O   0  0  0  0  0  0  0  0  0  0  0  0
   72.3528   69.6231   95.4940 O   0  0  0  0  0  0  0  0  0  0  0  0
  1  2  1  0
  2  3  1  0
  3  7  1  0
  7  8  2  0
  8  9  1  0
  9 10  2  0
 10 11  1  0
 10 12  1  0
 12 13  1  0
 12 14  2  0
  3  4  2  0
  4  5  1  0
  5  6  1  0
  6 15  1  0
 15 16  2  0
 15 17  1  0
  6  2  2  0
 14  7  1  0
M  END
>  <Activity>  (12) 
0.255042

>  <minimizedAffinity>  (12) 
-6.78148

>  <MorganFP>  (12) 
<rdkit.DataStructs.cDataStructs.ExplicitBitVect object at 0x7f21e430e740>

$$$$
HIPS5993
     RDKit          3D

 17 18  0  0  0  0  0  0  0  0999 V2000
   69.9493   72.1068   94.2771 N   0  0  0  0  0  0  0  0  0  0  0  0
   70.0755   71.1419   93.2251 C   0  0  0  0  0  0  0  0  0  0  0  0
   69.7983   71.4416   91.8701 C   0  0  0  0  0  0  0  0  0  0  0  0
   70.0248   70.3693   91.0113 C   0  0  0  0  0  0  0  0  0  0  0  0
   70.5442   69.0613   91.9233 S   0  0  0  0  0  0  0  0  0  0  0  0
   70.5103   69.8237   93.4226 C   0  0  0  0  0  0  0  0  0  0  0  0
   69.2764   72.7362   91.3793 C   0  0  0  0  0  0  0  0  0  0  0  0
   68.2487   72.7773   90.4235 C   0  0  0  0  0  0  0  0  0  0  0  0
   67.7760   74.0029   89.9477 C   0  0  0  0  0  0  0  0  0  0  0  0
   68.3294   75.2012   90.4110 C   0  0  0  0  0  0  0  0  0  0  0  0
   67.7083   76.7237   89.7880 Cl  0  0  0  0  0  0  0  0  0  0  0  0
   69.3691   75.1696   91.3554 C   0  0  0  0  0  0  0  0  0  0  0  0
   70.0978   76.6521   91.9585 Cl  0  0  0  0  0  0  0  0  0  0  0  0
   69.8413   73.9403   91.8307 C   0  0  0  0  0  0  0  0  0  0  0  0
   70.9491   69.1754   94.6727 C   0  0  0  0  0  0  0  0  0  0  0  0
   71.8713   68.3175   94.6365 O   0  0  0  0  0  0  0  0  0  0  0  0
   70.3849   69.5161   95.8969 O   0  0  0  0  0  0  0  0  0  0  0  0
  1  2  1  0
  2  3  1  0
  3  7  1  0
  7  8  2  0
  8  9  1  0
  9 10  2  0
 10 11  1  0
 10 12  1  0
 12 13  1  0
 12 14  2  0
  3  4  2  0
  4  5  1  0
  5  6  1  0
  6 15  1  0
 15 16  2  0
 15 17  1  0
  6  2  2  0
 14  7  1  0
M  END
>  <Activity>  (13) 
0.255042

>  <minimizedAffinity>  (13) 
-6.55908

>  <MorganFP>  (13) 
<rdkit.DataStructs.cDataStructs.ExplicitBitVect object at 0x7f21e430e7b0>

$$$$
HIPS5993
     RDKit          3D

 17 18  0  0  0  0  0  0  0  0999 V2000
   69.2683   75.4041   93.1220 N   0  0  0  0  0  0  0  0  0  0  0  0
   69.1613   74.1103   92.5151 C   0  0  0  0  0  0  0  0  0  0  0  0
   68.7424   73.9216   91.1767 C   0  0  0  0  0  0  0  0  0  0  0  0
   68.7488   72.5867   90.7806 C   0  0  0  0  0  0  0  0  0  0  0  0
   69.2496   71.6516   92.0794 S   0  0  0  0  0  0  0  0  0  0  0  0
   69.4854   72.9125   93.1678 C   0  0  0  0  0  0  0  0  0  0  0  0
   68.2922   75.0011   90.2705 C   0  0  0  0  0  0  0  0  0  0  0  0
   67.3568   74.7404   89.2564 C   0  0  0  0  0  0  0  0  0  0  0  0
   66.9528   75.7592   88.3899 C   0  0  0  0  0  0  0  0  0  0  0  0
   67.4845   77.0468   88.5175 C   0  0  0  0  0  0  0  0  0  0  0  0
   66.9519   78.3024   87.4076 Cl  0  0  0  0  0  0  0  0  0  0  0  0
   68.4331   77.3132   89.5190 C   0  0  0  0  0  0  0  0  0  0  0  0
   69.1320   78.9157   89.7091 Cl  0  0  0  0  0  0  0  0  0  0  0  0
   68.8365   76.2907   90.3860 C   0  0  0  0  0  0  0  0  0  0  0  0
   70.0157   72.7196   94.5306 C   0  0  0  0  0  0  0  0  0  0  0  0
   70.3567   71.5662   94.9065 O   0  0  0  0  0  0  0  0  0  0  0  0
   70.1761   73.7931   95.3994 O   0  0  0  0  0  0  0  0  0  0  0  0
  1  2  1  0
  2  3  1  0
  3  7  1  0
  7  8  2  0
  8  9  1  0
  9 10  2  0
 10 11  1  0
 10 12  1  0
 12 13  1  0
 12 14  2  0
  3  4  2  0
  4  5  1  0
  5  6  1  0
  6 15  1  0
 15 16  2  0
 15 17  1  0
  6  2  2  0
 14  7  1  0
M  END
>  <Activity>  (14) 
0.255042

>  <minimizedAffinity>  (14) 
-6.35478

>  <MorganFP>  (14) 
<rdkit.DataStructs.cDataStructs.ExplicitBitVect object at 0x7f21e430e820>

$$$$
HIPS6297
     RDKit          3D

 33 36  0  0  0  0  0  0  0  0999 V2000
   68.9506   77.7649   90.9300 C   0  0  0  0  0  0  0  0  0  0  0  0
   70.0599   76.9600   91.1178 C   0  0  0  0  0  0  0  0  0  0  0  0
   71.3071   77.5029   90.8357 C   0  0  0  0  0  0  0  0  0  0  0  0
   71.4001   78.8030   90.3855 C   0  0  0  0  0  0  0  0  0  0  0  0
   70.2848   79.5900   90.2043 C   0  0  0  0  0  0  0  0  0  0  0  0
   69.0495   79.0518   90.4839 C   0  0  0  0  0  0  0  0  0  0  0  0
   70.4092   80.9638   89.7275 C   0  0  0  0  0  0  0  0  0  0  0  0
   69.3840   81.5701   89.0102 C   0  0  0  0  0  0  0  0  0  0  0  0
   69.5394   82.8515   88.5821 C   0  0  0  0  0  0  0  0  0  0  0  0
   70.6811   83.6077   88.8211 C   0  0  0  0  0  0  0  0  0  0  0  0
   71.6784   82.9944   89.5282 C   0  0  0  0  0  0  0  0  0  0  0  0
   71.5499   81.6957   89.9757 C   0  0  0  0  0  0  0  0  0  0  0  0
   70.7998   85.2685   88.2252 S   0  0  0  0  0  0  0  0  0  0  0  0
   72.1960   85.7578   88.4034 O   0  0  0  0  0  0  0  0  0  0  0  0
   70.5513   85.1852   86.7319 O   0  0  0  0  0  0  0  0  0  0  0  0
   69.6423   86.1906   89.0412 N   0  0  0  0  0  0  0  0  0  0  0  0
   69.6813   87.5799   88.8190 C   0  0  0  0  0  0  0  0  0  0  0  0
   69.8031   88.4677   90.0056 C   0  0  0  0  0  0  0  0  0  0  0  0
   69.1206   88.0057   91.2447 C   0  0  0  0  0  0  0  0  0  0  0  0
   68.4638   86.6703   91.1386 C   0  0  0  0  0  0  0  0  0  0  0  0
   69.1985   85.6989   90.2819 C   0  0  0  0  0  0  0  0  0  0  0  0
   67.6158   77.1510   91.2428 C   0  0  0  0  0  0  0  0  0  0  0  0
   67.2504   77.4144   92.5697 O   0  0  0  0  0  0  0  0  0  0  0  0
   68.1553   74.4513   94.5853 C   0  0  0  0  0  0  0  0  0  0  0  0
   68.2431   75.5101   93.7139 C   0  0  0  0  0  0  0  0  0  0  0  0
   67.1638   76.3445   93.4494 C   0  0  0  0  0  0  0  0  0  0  0  0
   65.9798   76.0668   94.1048 C   0  0  0  0  0  0  0  0  0  0  0  0
   65.8766   75.0047   94.9844 C   0  0  0  0  0  0  0  0  0  0  0  0
   66.9696   74.1846   95.2325 C   0  0  0  0  0  0  0  0  0  0  0  0
   66.8209   73.1334   96.1205 O   0  0  0  0  0  0  0  0  0  0  0  0
   70.2458   73.5185   94.0287 O   0  0  0  0  0  0  0  0  0  0  0  0
   69.3026   73.5940   94.8425 C   0  0  0  0  0  0  0  0  0  0  0  0
   69.3763   72.8333   96.0087 O   0  0  0  0  0  0  0  0  0  0  0  0
 31 32  2  0
 32 33  1  0
 32 24  1  0
 24 25  2  0
 25 26  1  0
 26 23  1  0
 23 22  1  0
 22  1  1  0
  1  2  2  0
  2  3  1  0
  3  4  2  0
  4  5  1  0
  5  7  1  0
  7  8  2  0
  8  9  1  0
  9 10  2  0
 10 13  1  0
 13 14  2  0
 13 15  2  0
 13 16  1  0
 16 17  1  0
 17 18  1  0
 18 19  1  0
 19 20  1  0
 20 21  1  0
 10 11  1  0
 11 12  2  0
  5  6  2  0
 26 27  2  0
 27 28  1  0
 28 29  2  0
 29 30  1  0
 29 24  1  0
  6  1  1  0
 12  7  1  0
 21 16  1  0
M  END
>  <Activity>  (15) 
0.393044

>  <minimizedAffinity>  (15) 
-9.50073

>  <MorganFP>  (15) 
<rdkit.DataStructs.cDataStructs.ExplicitBitVect object at 0x7f21e41ac6d0>

$$$$
HIPS6312
     RDKit          3D

 34 37  0  0  0  0  0  0  0  0999 V2000
   67.7671   73.5203   89.6701 C   0  0  0  0  0  0  0  0  0  0  0  0
   67.9574   74.9081   89.5945 C   0  0  0  0  0  0  0  0  0  0  0  0
   68.7383   75.5738   90.5517 C   0  0  0  0  0  0  0  0  0  0  0  0
   69.2999   74.8457   91.6110 C   0  0  0  0  0  0  0  0  0  0  0  0
   69.1252   73.4568   91.6914 C   0  0  0  0  0  0  0  0  0  0  0  0
   68.3382   72.8033   90.7322 C   0  0  0  0  0  0  0  0  0  0  0  0
   68.9214   77.0376   90.4857 C   0  0  0  0  0  0  0  0  0  0  0  0
   67.9459   77.9469   90.1274 C   0  0  0  0  0  0  0  0  0  0  0  0
   68.5612   79.1812   90.1245 C   0  0  0  0  0  0  0  0  0  0  0  0
   69.8219   79.0515   90.4701 O   0  0  0  0  0  0  0  0  0  0  0  0
   70.0746   77.7836   90.7040 C   0  0  0  0  0  0  0  0  0  0  0  0
   71.3878   77.3109   91.1702 C   0  0  0  0  0  0  0  0  0  0  0  0
   71.5498   76.9147   92.3547 O   0  0  0  0  0  0  0  0  0  0  0  0
   72.4727   77.3431   90.3005 O   0  0  0  0  0  0  0  0  0  0  0  0
   69.7226   72.7009   92.8089 C   0  0  0  0  0  0  0  0  0  0  0  0
   70.6467   71.6833   92.6810 C   0  0  0  0  0  0  0  0  0  0  0  0
   70.9942   71.3247   93.9668 C   0  0  0  0  0  0  0  0  0  0  0  0
   70.3245   72.0547   94.8298 O   0  0  0  0  0  0  0  0  0  0  0  0
   69.5444   72.8849   94.1746 C   0  0  0  0  0  0  0  0  0  0  0  0
   68.6128   73.8038   94.8475 C   0  0  0  0  0  0  0  0  0  0  0  0
   68.9890   74.9721   95.1309 O   0  0  0  0  0  0  0  0  0  0  0  0
   67.3389   73.3832   95.2162 O   0  0  0  0  0  0  0  0  0  0  0  0
   66.9118   72.8138   88.6497 C   0  0  0  0  0  0  0  0  0  0  0  0
   67.5729   71.6555   88.1374 O   0  0  0  0  0  0  0  0  0  0  0  0
   66.7682   71.5169   84.5196 C   0  0  0  0  0  0  0  0  0  0  0  0
   66.9908   71.9876   85.8274 C   0  0  0  0  0  0  0  0  0  0  0  0
   67.3919   71.1224   86.8508 C   0  0  0  0  0  0  0  0  0  0  0  0
   67.5925   69.7626   86.5612 C   0  0  0  0  0  0  0  0  0  0  0  0
   67.3775   69.2805   85.2705 C   0  0  0  0  0  0  0  0  0  0  0  0
   66.9649   70.1437   84.2464 C   0  0  0  0  0  0  0  0  0  0  0  0
   66.7535   69.6325   82.9658 O   0  0  0  0  0  0  0  0  0  0  0  0
   66.8898   73.5925   83.3378 O   0  0  0  0  0  0  0  0  0  0  0  0
   66.3283   72.4720   83.4706 C   0  0  0  0  0  0  0  0  0  0  0  0
   65.2820   72.1363   82.6146 O   0  0  0  0  0  0  0  0  0  0  0  0
 32 33  2  0
 33 34  1  0
 33 25  1  0
 25 26  2  0
 26 27  1  0
 27 24  1  0
 24 23  1  0
 23  1  1  0
  1  2  2  0
  2  3  1  0
  3  7  1  0
  7  8  1  0
  8  9  2  0
  9 10  1  0
 10 11  1  0
 11 12  1  0
 12 13  2  0
 12 14  1  0
  3  4  2  0
  4  5  1  0
  5 15  1  0
 15 16  1  0
 16 17  2  0
 17 18  1  0
 18 19  1  0
 19 20  1  0
 20 21  2  0
 20 22  1  0
  5  6  2  0
 27 28  2  0
 28 29  1  0
 29 30  2  0
 30 31  1  0
 30 25  1  0
  6  1  1  0
 11  7  2  0
 19 15  2  0
M  END
>  <Activity>  (16) 
0.217117

>  <minimizedAffinity>  (16) 
-9.44897

>  <MorganFP>  (16) 
<rdkit.DataStructs.cDataStructs.ExplicitBitVect object at 0x7f21e41ac740>

$$$$
HIPS6312
     RDKit          3D

 34 37  0  0  0  0  0  0  0  0999 V2000
   67.3821   73.6572   89.2172 C   0  0  0  0  0  0  0  0  0  0  0  0
   67.9746   72.8555   90.2042 C   0  0  0  0  0  0  0  0  0  0  0  0
   68.6931   73.4381   91.2595 C   0  0  0  0  0  0  0  0  0  0  0  0
   68.8477   74.8317   91.3020 C   0  0  0  0  0  0  0  0  0  0  0  0
   68.2514   75.6440   90.3269 C   0  0  0  0  0  0  0  0  0  0  0  0
   67.5406   75.0500   89.2741 C   0  0  0  0  0  0  0  0  0  0  0  0
   69.3358   72.5944   92.2869 C   0  0  0  0  0  0  0  0  0  0  0  0
   69.9461   71.3784   92.0512 C   0  0  0  0  0  0  0  0  0  0  0  0
   70.3379   70.9053   93.2860 C   0  0  0  0  0  0  0  0  0  0  0  0
   70.0093   71.7697   94.2191 O   0  0  0  0  0  0  0  0  0  0  0  0
   69.4155   72.7997   93.6601 C   0  0  0  0  0  0  0  0  0  0  0  0
   68.9756   73.9739   94.4302 C   0  0  0  0  0  0  0  0  0  0  0  0
   69.8117   74.7273   94.9956 O   0  0  0  0  0  0  0  0  0  0  0  0
   67.6153   74.2285   94.5688 O   0  0  0  0  0  0  0  0  0  0  0  0
   68.4189   77.1088   90.3830 C   0  0  0  0  0  0  0  0  0  0  0  0
   68.9322   77.8933   89.3696 C   0  0  0  0  0  0  0  0  0  0  0  0
   68.8262   79.1962   89.8099 C   0  0  0  0  0  0  0  0  0  0  0  0
   68.3003   79.2189   91.0136 O   0  0  0  0  0  0  0  0  0  0  0  0
   68.0511   77.9864   91.3956 C   0  0  0  0  0  0  0  0  0  0  0  0
   67.5139   77.6562   92.7251 C   0  0  0  0  0  0  0  0  0  0  0  0
   66.2920   77.8450   92.9655 O   0  0  0  0  0  0  0  0  0  0  0  0
   68.3478   77.1828   93.7331 O   0  0  0  0  0  0  0  0  0  0  0  0
   66.6278   73.0245   88.0760 C   0  0  0  0  0  0  0  0  0  0  0  0
   67.2057   71.7703   87.7098 O   0  0  0  0  0  0  0  0  0  0  0  0
   65.8678   70.8828   84.3665 C   0  0  0  0  0  0  0  0  0  0  0  0
   66.0114   71.4502   85.6467 C   0  0  0  0  0  0  0  0  0  0  0  0
   67.1389   71.1899   86.4327 C   0  0  0  0  0  0  0  0  0  0  0  0
   68.1530   70.3607   85.9255 C   0  0  0  0  0  0  0  0  0  0  0  0
   68.0267   69.7917   84.6586 C   0  0  0  0  0  0  0  0  0  0  0  0
   66.8928   70.0425   83.8742 C   0  0  0  0  0  0  0  0  0  0  0  0
   66.7917   69.4562   82.6124 O   0  0  0  0  0  0  0  0  0  0  0  0
   64.7207   71.4883   82.3572 O   0  0  0  0  0  0  0  0  0  0  0  0
   64.6451   71.1771   83.5762 C   0  0  0  0  0  0  0  0  0  0  0  0
   63.3911   71.1110   84.1788 O   0  0  0  0  0  0  0  0  0  0  0  0
 32 33  2  0
 33 34  1  0
 33 25  1  0
 25 26  2  0
 26 27  1  0
 27 24  1  0
 24 23  1  0
 23  1  1  0
  1  2  2  0
  2  3  1  0
  3  7  1  0
  7  8  1  0
  8  9  2  0
  9 10  1  0
 10 11  1  0
 11 12  1  0
 12 13  2  0
 12 14  1  0
  3  4  2  0
  4  5  1  0
  5 15  1  0
 15 16  1  0
 16 17  2  0
 17 18  1  0
 18 19  1  0
 19 20  1  0
 20 21  2  0
 20 22  1  0
  5  6  2  0
 27 28  2  0
 28 29  1  0
 29 30  2  0
 30 31  1  0
 30 25  1  0
  6  1  1  0
 11  7  2  0
 19 15  2  0
M  END
>  <Activity>  (17) 
0.217117

>  <minimizedAffinity>  (17) 
-9.04134

>  <MorganFP>  (17) 
<rdkit.DataStructs.cDataStructs.ExplicitBitVect object at 0x7f21e41ac7b0>

$$$$
HIPS6546
     RDKit          3D

 33 35  0  0  0  0  0  0  0  0999 V2000
   68.0468   76.4913   89.6548 C   0  0  0  0  0  0  0  0  0  0  0  0
   67.4007   76.2225   88.4348 C   0  0  0  0  0  0  0  0  0  0  0  0
   66.9512   77.2689   87.6264 C   0  0  0  0  0  0  0  0  0  0  0  0
   67.1388   78.5940   88.0243 C   0  0  0  0  0  0  0  0  0  0  0  0
   67.7711   78.8830   89.2423 C   0  0  0  0  0  0  0  0  0  0  0  0
   68.2332   77.8299   90.0484 C   0  0  0  0  0  0  0  0  0  0  0  0
   69.4606   73.2667   92.1254 C   0  0  0  0  0  0  0  0  0  0  0  0
   68.6951   72.9962   90.9837 C   0  0  0  0  0  0  0  0  0  0  0  0
   68.2300   74.0437   90.1833 C   0  0  0  0  0  0  0  0  0  0  0  0
   68.5270   75.3788   90.5121 C   0  0  0  0  0  0  0  0  0  0  0  0
   69.2897   75.6425   91.6642 C   0  0  0  0  0  0  0  0  0  0  0  0
   69.7484   74.5937   92.4658 C   0  0  0  0  0  0  0  0  0  0  0  0
   70.0389   71.9537   93.1480 S   0  0  0  0  0  0  0  0  0  0  0  0
   69.3025   70.6949   92.7861 O   0  0  0  0  0  0  0  0  0  0  0  0
   69.7617   72.2578   94.5953 O   0  0  0  0  0  0  0  0  0  0  0  0
   71.6967   71.7106   92.8910 O   0  0  0  0  0  0  0  0  0  0  0  0
   72.2252   70.9814   93.9762 C   0  0  0  0  0  0  0  0  0  0  0  0
   72.9237   69.4399   92.0969 C   0  0  0  0  0  0  0  0  0  0  0  0
   73.3087   69.9932   93.4841 C   0  0  0  0  0  0  0  0  0  0  0  0
   74.6555   70.7352   93.3741 C   0  0  0  0  0  0  0  0  0  0  0  0
   73.4572   68.8260   94.4816 C   0  0  0  0  0  0  0  0  0  0  0  0
   68.0216   80.3097   89.6354 C   0  0  0  0  0  0  0  0  0  0  0  0
   67.4994   81.1682   88.6254 O   0  0  0  0  0  0  0  0  0  0  0  0
   68.1838   82.2618   88.0749 C   0  0  0  0  0  0  0  0  0  0  0  0
   67.5144   83.0542   87.1404 C   0  0  0  0  0  0  0  0  0  0  0  0
   68.1440   84.1579   86.5670 C   0  0  0  0  0  0  0  0  0  0  0  0
   69.4593   84.4894   86.9190 C   0  0  0  0  0  0  0  0  0  0  0  0
   70.0648   85.5991   86.3282 O   0  0  0  0  0  0  0  0  0  0  0  0
   70.1567   83.6992   87.8624 C   0  0  0  0  0  0  0  0  0  0  0  0
   69.5068   82.5862   88.4310 C   0  0  0  0  0  0  0  0  0  0  0  0
   71.5516   84.0118   88.2684 C   0  0  0  0  0  0  0  0  0  0  0  0
   72.3293   84.6301   87.4925 O   0  0  0  0  0  0  0  0  0  0  0  0
   72.0185   83.6226   89.5222 O   0  0  0  0  0  0  0  0  0  0  0  0
 18 19  1  0
 19 20  1  0
 19 21  1  0
 19 17  1  0
 17 16  1  0
 16 13  1  0
 13 14  2  0
 13 15  2  0
 13  7  1  0
  7  8  2  0
  8  9  1  0
  9 10  2  0
 10  1  1  0
  1  2  2  0
  2  3  1  0
  3  4  2  0
  4  5  1  0
  5 22  1  0
 22 23  1  0
 23 24  1  0
 24 25  2  0
 25 26  1  0
 26 27  2  0
 27 28  1  0
 27 29  1  0
 29 31  1  0
 31 32  2  0
 31 33  1  0
 29 30  2  0
  5  6  2  0
 10 11  1  0
 11 12  2  0
 12  7  1  0
  6  1  1  0
 30 24  1  0
M  END
>  <Activity>  (18) 
-0.51205

>  <minimizedAffinity>  (18) 
-8.68193

>  <MorganFP>  (18) 
<rdkit.DataStructs.cDataStructs.ExplicitBitVect object at 0x7f21e41aceb0>

$$$$
HIPS6547
     RDKit          3D

 33 35  0  0  0  0  0  0  0  0999 V2000
   67.6522   76.5043   89.0765 C   0  0  0  0  0  0  0  0  0  0  0  0
   67.1040   76.6283   87.7906 C   0  0  0  0  0  0  0  0  0  0  0  0
   66.9162   77.8915   87.2249 C   0  0  0  0  0  0  0  0  0  0  0  0
   67.2735   79.0392   87.9367 C   0  0  0  0  0  0  0  0  0  0  0  0
   67.8324   78.9311   89.2192 C   0  0  0  0  0  0  0  0  0  0  0  0
   68.0357   77.6589   89.7777 C   0  0  0  0  0  0  0  0  0  0  0  0
   66.5985   74.0246   87.7528 C   0  0  0  0  0  0  0  0  0  0  0  0
   67.3352   73.9894   89.0670 C   0  0  0  0  0  0  0  0  0  0  0  0
   67.5019   72.7543   89.7146 C   0  0  0  0  0  0  0  0  0  0  0  0
   68.1871   72.6737   90.9273 C   0  0  0  0  0  0  0  0  0  0  0  0
   68.7111   73.8264   91.5191 C   0  0  0  0  0  0  0  0  0  0  0  0
   68.5432   75.0662   90.8900 C   0  0  0  0  0  0  0  0  0  0  0  0
   67.8411   75.1650   89.6773 C   0  0  0  0  0  0  0  0  0  0  0  0
   69.5554   73.7060   93.0596 S   0  0  0  0  0  0  0  0  0  0  0  0
   70.2192   75.0119   93.3985 O   0  0  0  0  0  0  0  0  0  0  0  0
   70.6361   72.6739   92.9010 O   0  0  0  0  0  0  0  0  0  0  0  0
   68.5083   73.2025   94.3680 N   0  0  0  0  0  0  0  0  0  0  0  0
   67.3492   74.0767   94.6875 C   0  0  0  0  0  0  0  0  0  0  0  0
   66.9790   73.8372   96.1684 C   0  0  0  0  0  0  0  0  0  0  0  0
   67.6693   75.5773   94.5101 C   0  0  0  0  0  0  0  0  0  0  0  0
   66.1214   73.6918   93.8356 C   0  0  0  0  0  0  0  0  0  0  0  0
   68.1916   80.1746   89.9878 C   0  0  0  0  0  0  0  0  0  0  0  0
   68.4989   81.2437   89.0919 O   0  0  0  0  0  0  0  0  0  0  0  0
   69.6858   81.9951   89.1016 C   0  0  0  0  0  0  0  0  0  0  0  0
   70.7776   81.6749   89.9255 C   0  0  0  0  0  0  0  0  0  0  0  0
   71.9256   82.4661   89.9106 C   0  0  0  0  0  0  0  0  0  0  0  0
   72.0109   83.5827   89.0685 C   0  0  0  0  0  0  0  0  0  0  0  0
   73.1713   84.3571   89.0758 O   0  0  0  0  0  0  0  0  0  0  0  0
   70.9266   83.9109   88.2226 C   0  0  0  0  0  0  0  0  0  0  0  0
   69.7737   83.1032   88.2519 C   0  0  0  0  0  0  0  0  0  0  0  0
   70.9688   85.0813   87.3087 C   0  0  0  0  0  0  0  0  0  0  0  0
   71.6446   86.1051   87.5979 O   0  0  0  0  0  0  0  0  0  0  0  0
   70.2560   85.0594   86.1122 O   0  0  0  0  0  0  0  0  0  0  0  0
  7  8  1  0
  8  9  2  0
  9 10  1  0
 10 11  2  0
 11 14  1  0
 14 15  2  0
 14 16  2  0
 14 17  1  0
 17 18  1  0
 18 19  1  0
 18 20  1  0
 18 21  1  0
 11 12  1  0
 12 13  2  0
 13  1  1  0
  1  2  2  0
  2  3  1  0
  3  4  2  0
  4  5  1  0
  5 22  1  0
 22 23  1  0
 23 24  1  0
 24 25  2  0
 25 26  1  0
 26 27  2  0
 27 28  1  0
 27 29  1  0
 29 31  1  0
 31 32  2  0
 31 33  1  0
 29 30  2  0
  5  6  2  0
 13  8  1  0
  6  1  1  0
 30 24  1  0
M  END
>  <Activity>  (19) 
-0.481785

>  <minimizedAffinity>  (19) 
-9.85215

>  <MorganFP>  (19) 
<rdkit.DataStructs.cDataStructs.ExplicitBitVect object at 0x7f21e41acf20>

$$$$
HIPS6547
     RDKit          3D

 33 35  0  0  0  0  0  0  0  0999 V2000
   68.2693   77.4557   90.1524 C   0  0  0  0  0  0  0  0  0  0  0  0
   67.1143   78.2518   90.1124 C   0  0  0  0  0  0  0  0  0  0  0  0
   67.2208   79.6434   90.0577 C   0  0  0  0  0  0  0  0  0  0  0  0
   68.4787   80.2507   90.0422 C   0  0  0  0  0  0  0  0  0  0  0  0
   69.6428   79.4679   90.0712 C   0  0  0  0  0  0  0  0  0  0  0  0
   69.5319   78.0686   90.1088 C   0  0  0  0  0  0  0  0  0  0  0  0
   66.9931   75.8759   87.9417 C   0  0  0  0  0  0  0  0  0  0  0  0
   67.5399   75.2280   89.1876 C   0  0  0  0  0  0  0  0  0  0  0  0
   67.4138   73.8371   89.3361 C   0  0  0  0  0  0  0  0  0  0  0  0
   67.9158   73.1941   90.4681 C   0  0  0  0  0  0  0  0  0  0  0  0
   68.5455   73.9299   91.4759 C   0  0  0  0  0  0  0  0  0  0  0  0
   68.6689   75.3188   91.3461 C   0  0  0  0  0  0  0  0  0  0  0  0
   68.1535   75.9818   90.2200 C   0  0  0  0  0  0  0  0  0  0  0  0
   69.1545   73.1022   92.9056 S   0  0  0  0  0  0  0  0  0  0  0  0
   70.3778   73.7982   93.4348 O   0  0  0  0  0  0  0  0  0  0  0  0
   69.5644   71.7191   92.4844 O   0  0  0  0  0  0  0  0  0  0  0  0
   67.9503   72.9538   94.1665 N   0  0  0  0  0  0  0  0  0  0  0  0
   67.4295   74.2122   94.7621 C   0  0  0  0  0  0  0  0  0  0  0  0
   66.8614   73.8673   96.1571 C   0  0  0  0  0  0  0  0  0  0  0  0
   68.5274   75.2835   94.9431 C   0  0  0  0  0  0  0  0  0  0  0  0
   66.2692   74.7791   93.9173 C   0  0  0  0  0  0  0  0  0  0  0  0
   70.9934   80.1327   90.0788 C   0  0  0  0  0  0  0  0  0  0  0  0
   70.8759   81.4968   90.4855 O   0  0  0  0  0  0  0  0  0  0  0  0
   71.3158   82.6058   89.7438 C   0  0  0  0  0  0  0  0  0  0  0  0
   72.6484   83.0495   89.7640 C   0  0  0  0  0  0  0  0  0  0  0  0
   73.0283   84.1684   89.0237 C   0  0  0  0  0  0  0  0  0  0  0  0
   72.0913   84.8583   88.2430 C   0  0  0  0  0  0  0  0  0  0  0  0
   72.4995   85.9755   87.5140 O   0  0  0  0  0  0  0  0  0  0  0  0
   70.7489   84.4165   88.2003 C   0  0  0  0  0  0  0  0  0  0  0  0
   70.3814   83.2867   88.9558 C   0  0  0  0  0  0  0  0  0  0  0  0
   69.7187   85.1102   87.3853 C   0  0  0  0  0  0  0  0  0  0  0  0
   68.6467   85.5190   87.9073 O   0  0  0  0  0  0  0  0  0  0  0  0
   69.9282   85.3181   86.0241 O   0  0  0  0  0  0  0  0  0  0  0  0
  7  8  1  0
  8  9  2  0
  9 10  1  0
 10 11  2  0
 11 14  1  0
 14 15  2  0
 14 16  2  0
 14 17  1  0
 17 18  1  0
 18 19  1  0
 18 20  1  0
 18 21  1  0
 11 12  1  0
 12 13  2  0
 13  1  1  0
  1  2  2  0
  2  3  1  0
  3  4  2  0
  4  5  1  0
  5 22  1  0
 22 23  1  0
 23 24  1  0
 24 25  2  0
 25 26  1  0
 26 27  2  0
 27 28  1  0
 27 29  1  0
 29 31  1  0
 31 32  2  0
 31 33  1  0
 29 30  2  0
  5  6  2  0
 13  8  1  0
  6  1  1  0
 30 24  1  0
M  END
>  <Activity>  (20) 
-0.481785

>  <minimizedAffinity>  (20) 
-9.69527

>  <MorganFP>  (20) 
<rdkit.DataStructs.cDataStructs.ExplicitBitVect object at 0x7f21e41acf90>

$$$$
HIPS6568
     RDKit          3D

 18 19  0  0  0  0  0  0  0  0999 V2000
   68.1647   74.3113   94.6102 C   0  0  0  0  0  0  0  0  0  0  0  0
   68.0542   75.3804   93.7031 C   0  0  0  0  0  0  0  0  0  0  0  0
   66.8800   76.1348   93.6110 C   0  0  0  0  0  0  0  0  0  0  0  0
   65.7922   75.8134   94.4401 C   0  0  0  0  0  0  0  0  0  0  0  0
   65.8948   74.7691   95.3595 C   0  0  0  0  0  0  0  0  0  0  0  0
   67.0754   74.0273   95.4715 C   0  0  0  0  0  0  0  0  0  0  0  0
   67.1349   73.0487   96.4663 O   0  0  0  0  0  0  0  0  0  0  0  0
   70.2816   73.6848   93.7092 O   0  0  0  0  0  0  0  0  0  0  0  0
   69.4085   73.5099   94.6008 C   0  0  0  0  0  0  0  0  0  0  0  0
   69.6500   72.5938   95.6213 O   0  0  0  0  0  0  0  0  0  0  0  0
   66.8378   77.1856   92.6796 O   0  0  0  0  0  0  0  0  0  0  0  0
   67.0714   77.0544   91.2773 C   0  0  0  0  0  0  0  0  0  0  0  0
   68.3203   77.7762   90.8763 C   0  0  0  0  0  0  0  0  0  0  0  0
   69.5997   77.2364   90.8457 C   0  0  0  0  0  0  0  0  0  0  0  0
   70.5626   78.1405   90.3826 C   0  0  0  0  0  0  0  0  0  0  0  0
   72.4128   77.7027   90.2321 Br  0  0  0  0  0  0  0  0  0  0  0  0
   70.0482   79.3833   90.0353 C   0  0  0  0  0  0  0  0  0  0  0  0
   68.3882   79.3563   90.3049 S   0  0  0  0  0  0  0  0  0  0  0  0
  8  9  2  0
  9 10  1  0
  9  1  1  0
  1  2  2  0
  2  3  1  0
  3 11  1  0
 11 12  1  0
 12 13  1  0
 13 14  2  0
 14 15  1  0
 15 16  1  0
 15 17  2  0
 17 18  1  0
  3  4  2  0
  4  5  1  0
  5  6  2  0
  6  7  1  0
  6  1  1  0
 18 13  1  0
M  END
>  <Activity>  (21) 
0.108263

>  <minimizedAffinity>  (21) 
-6.13712

>  <MorganFP>  (21) 
<rdkit.DataStructs.cDataStructs.ExplicitBitVect object at 0x7f21e41ba430>

$$$$
HIPS6789
     RDKit          3D

 19 20  0  0  0  0  0  0  0  0999 V2000
   69.9170   78.2506   90.4883 N   0  0  0  0  0  0  0  0  0  0  0  0
   70.3427   77.3512   91.3196 C   0  0  0  0  0  0  0  0  0  0  0  0
   69.4956   76.2057   91.7200 C   0  0  0  0  0  0  0  0  0  0  0  0
   68.8705   75.4465   90.7163 C   0  0  0  0  0  0  0  0  0  0  0  0
   68.0618   74.3562   91.0489 C   0  0  0  0  0  0  0  0  0  0  0  0
   67.8656   74.0083   92.3875 C   0  0  0  0  0  0  0  0  0  0  0  0
   67.0569   72.9191   92.7040 O   0  0  0  0  0  0  0  0  0  0  0  0
   68.4831   74.7569   93.3971 C   0  0  0  0  0  0  0  0  0  0  0  0
   69.2941   75.8498   93.0718 C   0  0  0  0  0  0  0  0  0  0  0  0
   69.8747   76.5497   94.0793 F   0  0  0  0  0  0  0  0  0  0  0  0
   68.9694   80.8353   90.4733 O   0  0  0  0  0  0  0  0  0  0  0  0
   70.1659   80.6641   90.1148 C   0  0  0  0  0  0  0  0  0  0  0  0
   70.7135   79.3406   90.1028 N   0  0  0  0  0  0  0  0  0  0  0  0
   70.9689   81.8364   89.7171 C   0  0  0  0  0  0  0  0  0  0  0  0
   72.2564   82.1622   90.1447 C   0  0  0  0  0  0  0  0  0  0  0  0
   72.7458   83.3466   89.5802 C   0  0  0  0  0  0  0  0  0  0  0  0
   71.8488   83.9501   88.7129 C   0  0  0  0  0  0  0  0  0  0  0  0
   72.1208   85.4378   87.8306 Cl  0  0  0  0  0  0  0  0  0  0  0  0
   70.4501   83.0252   88.6399 S   0  0  0  0  0  0  0  0  0  0  0  0
 11 12  2  0
 12 13  1  0
 13  1  1  0
  1  2  2  0
  2  3  1  0
  3  4  2  0
  4  5  1  0
  5  6  2  0
  6  7  1  0
  6  8  1  0
  8  9  2  0
  9 10  1  0
 12 14  1  0
 14 15  2  0
 15 16  1  0
 16 17  2  0
 17 18  1  0
 17 19  1  0
  9  3  1  0
 19 14  1  0
M  END
>  <Activity>  (22) 
0.35716

>  <minimizedAffinity>  (22) 
-6.33115

>  <MorganFP>  (22) 
<rdkit.DataStructs.cDataStructs.ExplicitBitVect object at 0x7f21e41badd0>

$$$$
HIPS6789
     RDKit          3D

 19 20  0  0  0  0  0  0  0  0999 V2000
   70.3946   80.3043   89.8543 N   0  0  0  0  0  0  0  0  0  0  0  0
   71.3781   81.1076   90.1162 C   0  0  0  0  0  0  0  0  0  0  0  0
   71.4309   82.4749   89.5527 C   0  0  0  0  0  0  0  0  0  0  0  0
   70.2373   83.0655   89.1042 C   0  0  0  0  0  0  0  0  0  0  0  0
   70.2406   84.3549   88.5649 C   0  0  0  0  0  0  0  0  0  0  0  0
   71.4347   85.0729   88.4656 C   0  0  0  0  0  0  0  0  0  0  0  0
   71.4227   86.3571   87.9259 O   0  0  0  0  0  0  0  0  0  0  0  0
   72.6309   84.4954   88.9091 C   0  0  0  0  0  0  0  0  0  0  0  0
   72.6355   83.2051   89.4501 C   0  0  0  0  0  0  0  0  0  0  0  0
   73.8155   82.6810   89.8686 F   0  0  0  0  0  0  0  0  0  0  0  0
   68.4057   78.5252   89.1778 O   0  0  0  0  0  0  0  0  0  0  0  0
   69.2770   78.1232   89.9955 C   0  0  0  0  0  0  0  0  0  0  0  0
   70.3361   79.0056   90.3844 N   0  0  0  0  0  0  0  0  0  0  0  0
   69.1791   76.7510   90.5291 C   0  0  0  0  0  0  0  0  0  0  0  0
   68.3062   75.7445   90.1149 C   0  0  0  0  0  0  0  0  0  0  0  0
   68.4628   74.5471   90.8241 C   0  0  0  0  0  0  0  0  0  0  0  0
   69.4535   74.6106   91.7914 C   0  0  0  0  0  0  0  0  0  0  0  0
   69.9225   73.3081   92.8634 Cl  0  0  0  0  0  0  0  0  0  0  0  0
   70.1386   76.1427   91.7747 S   0  0  0  0  0  0  0  0  0  0  0  0
 11 12  2  0
 12 13  1  0
 13  1  1  0
  1  2  2  0
  2  3  1  0
  3  4  2  0
  4  5  1  0
  5  6  2  0
  6  7  1  0
  6  8  1  0
  8  9  2  0
  9 10  1  0
 12 14  1  0
 14 15  2  0
 15 16  1  0
 16 17  2  0
 17 18  1  0
 17 19  1  0
  9  3  1  0
 19 14  1  0
M  END
>  <Activity>  (23) 
0.35716

>  <minimizedAffinity>  (23) 
-6.21882

>  <MorganFP>  (23) 
<rdkit.DataStructs.cDataStructs.ExplicitBitVect object at 0x7f21e41bae40>

$$$$
HIPS6789
     RDKit          3D

 19 20  0  0  0  0  0  0  0  0999 V2000
   67.8779   77.8367   91.7240 N   0  0  0  0  0  0  0  0  0  0  0  0
   67.3309   77.8694   92.8991 C   0  0  0  0  0  0  0  0  0  0  0  0
   67.2056   76.6498   93.7279 C   0  0  0  0  0  0  0  0  0  0  0  0
   65.9321   76.0823   93.9035 C   0  0  0  0  0  0  0  0  0  0  0  0
   65.7674   74.9307   94.6781 C   0  0  0  0  0  0  0  0  0  0  0  0
   66.8708   74.3293   95.2882 C   0  0  0  0  0  0  0  0  0  0  0  0
   66.6914   73.1819   96.0574 O   0  0  0  0  0  0  0  0  0  0  0  0
   68.1452   74.8853   95.1208 C   0  0  0  0  0  0  0  0  0  0  0  0
   68.3179   76.0380   94.3468 C   0  0  0  0  0  0  0  0  0  0  0  0
   69.5691   76.5457   94.2090 F   0  0  0  0  0  0  0  0  0  0  0  0
   66.3596   78.2376   89.4628 O   0  0  0  0  0  0  0  0  0  0  0  0
   67.1839   79.1424   89.7645 C   0  0  0  0  0  0  0  0  0  0  0  0
   68.0011   78.9884   90.9307 N   0  0  0  0  0  0  0  0  0  0  0  0
   67.2822   80.3372   88.9041 C   0  0  0  0  0  0  0  0  0  0  0  0
   67.2894   80.3747   87.5094 C   0  0  0  0  0  0  0  0  0  0  0  0
   67.3950   81.6707   86.9894 C   0  0  0  0  0  0  0  0  0  0  0  0
   67.4705   82.6481   87.9692 C   0  0  0  0  0  0  0  0  0  0  0  0
   67.6097   84.3708   87.6882 Cl  0  0  0  0  0  0  0  0  0  0  0  0
   67.4074   81.9172   89.4788 S   0  0  0  0  0  0  0  0  0  0  0  0
 11 12  2  0
 12 13  1  0
 13  1  1  0
  1  2  2  0
  2  3  1  0
  3  4  2  0
  4  5  1  0
  5  6  2  0
  6  7  1  0
  6  8  1  0
  8  9  2  0
  9 10  1  0
 12 14  1  0
 14 15  2  0
 15 16  1  0
 16 17  2  0
 17 18  1  0
 17 19  1  0
  9  3  1  0
 19 14  1  0
M  END
>  <Activity>  (24) 
0.35716

>  <minimizedAffinity>  (24) 
-6.18088

>  <MorganFP>  (24) 
<rdkit.DataStructs.cDataStructs.ExplicitBitVect object at 0x7f21e41baeb0>

$$$$
HIPS6794
     RDKit          3D

 23 25  0  0  0  0  0  0  0  0999 V2000
   71.0159   79.8136   90.1814 C   0  0  0  0  0  0  0  0  0  0  0  0
   69.9446   78.7894   90.3882 C   0  0  0  0  0  0  0  0  0  0  0  0
   68.6040   79.0495   90.5822 C   0  0  0  0  0  0  0  0  0  0  0  0
   68.0041   77.8178   90.7298 C   0  0  0  0  0  0  0  0  0  0  0  0
   69.0185   76.8781   90.6123 C   0  0  0  0  0  0  0  0  0  0  0  0
   70.1605   77.4954   90.4063 O   0  0  0  0  0  0  0  0  0  0  0  0
   68.8676   75.4015   90.6940 C   0  0  0  0  0  0  0  0  0  0  0  0
   69.6191   74.6767   91.6411 C   0  0  0  0  0  0  0  0  0  0  0  0
   69.4892   73.2901   91.7467 C   0  0  0  0  0  0  0  0  0  0  0  0
   68.6090   72.6041   90.9120 C   0  0  0  0  0  0  0  0  0  0  0  0
   67.8560   73.3024   89.9682 C   0  0  0  0  0  0  0  0  0  0  0  0
   67.9751   74.6933   89.8504 C   0  0  0  0  0  0  0  0  0  0  0  0
   67.0124   75.4830   88.6045 Cl  0  0  0  0  0  0  0  0  0  0  0  0
   70.4527   81.1630   90.2286 N   0  0  0  0  0  0  0  0  0  0  0  0
   70.8572   84.2610   88.1012 C   0  0  0  0  0  0  0  0  0  0  0  0
   72.2177   84.5304   88.3233 C   0  0  0  0  0  0  0  0  0  0  0  0
   72.9727   83.7081   89.1607 C   0  0  0  0  0  0  0  0  0  0  0  0
   72.3823   82.6077   89.7831 C   0  0  0  0  0  0  0  0  0  0  0  0
   71.0272   82.3118   89.5738 C   0  0  0  0  0  0  0  0  0  0  0  0
   70.2673   83.1484   88.7311 C   0  0  0  0  0  0  0  0  0  0  0  0
   69.0988   85.8119   87.6822 O   0  0  0  0  0  0  0  0  0  0  0  0
   70.0601   85.1414   87.2180 C   0  0  0  0  0  0  0  0  0  0  0  0
   70.3662   85.2392   85.8630 O   0  0  0  0  0  0  0  0  0  0  0  0
 21 22  2  0
 22 23  1  0
 22 15  1  0
 15 16  2  0
 16 17  1  0
 17 18  2  0
 18 19  1  0
 19 14  1  0
 14  1  1  0
  1  2  1  0
  2  3  2  0
  3  4  1  0
  4  5  2  0
  5  7  1  0
  7  8  2  0
  8  9  1  0
  9 10  2  0
 10 11  1  0
 11 12  2  0
 12 13  1  0
  5  6  1  0
 19 20  2  0
 20 15  1  0
  6  2  1  0
 12  7  1  0
M  END
>  <Activity>  (25) 
-0.493566

>  <minimizedAffinity>  (25) 
-7.91599

>  <MorganFP>  (25) 
<rdkit.DataStructs.cDataStructs.ExplicitBitVect object at 0x7f21e41bc0b0>

$$$$
HIPS6794
     RDKit          3D

 23 25  0  0  0  0  0  0  0  0999 V2000
   71.1692   79.7822   90.2101 C   0  0  0  0  0  0  0  0  0  0  0  0
   69.9139   78.9676   90.2026 C   0  0  0  0  0  0  0  0  0  0  0  0
   68.6384   79.4458   90.4193 C   0  0  0  0  0  0  0  0  0  0  0  0
   67.8092   78.3495   90.3227 C   0  0  0  0  0  0  0  0  0  0  0  0
   68.6322   77.2664   90.0478 C   0  0  0  0  0  0  0  0  0  0  0  0
   69.8797   77.6749   89.9808 O   0  0  0  0  0  0  0  0  0  0  0  0
   68.2003   75.8581   89.8480 C   0  0  0  0  0  0  0  0  0  0  0  0
   67.2793   75.5513   88.8259 C   0  0  0  0  0  0  0  0  0  0  0  0
   66.8645   74.2353   88.6091 C   0  0  0  0  0  0  0  0  0  0  0  0
   67.3605   73.2050   89.4057 C   0  0  0  0  0  0  0  0  0  0  0  0
   68.2727   73.4871   90.4223 C   0  0  0  0  0  0  0  0  0  0  0  0
   68.6985   74.8019   90.6519 C   0  0  0  0  0  0  0  0  0  0  0  0
   69.8225   75.0656   91.9822 Cl  0  0  0  0  0  0  0  0  0  0  0  0
   70.8686   81.1868   90.4880 N   0  0  0  0  0  0  0  0  0  0  0  0
   70.7578   83.9080   87.8670 C   0  0  0  0  0  0  0  0  0  0  0  0
   72.0552   84.4285   88.0043 C   0  0  0  0  0  0  0  0  0  0  0  0
   72.9351   83.8921   88.9454 C   0  0  0  0  0  0  0  0  0  0  0  0
   72.5338   82.8305   89.7572 C   0  0  0  0  0  0  0  0  0  0  0  0
   71.2461   82.2873   89.6367 C   0  0  0  0  0  0  0  0  0  0  0  0
   70.3591   82.8359   88.6882 C   0  0  0  0  0  0  0  0  0  0  0  0
   68.5978   84.2085   86.9095 O   0  0  0  0  0  0  0  0  0  0  0  0
   69.8269   84.4863   86.8722 C   0  0  0  0  0  0  0  0  0  0  0  0
   70.3005   85.3462   85.8845 O   0  0  0  0  0  0  0  0  0  0  0  0
 21 22  2  0
 22 23  1  0
 22 15  1  0
 15 16  2  0
 16 17  1  0
 17 18  2  0
 18 19  1  0
 19 14  1  0
 14  1  1  0
  1  2  1  0
  2  3  2  0
  3  4  1  0
  4  5  2  0
  5  7  1  0
  7  8  2  0
  8  9  1  0
  9 10  2  0
 10 11  1  0
 11 12  2  0
 12 13  1  0
  5  6  1  0
 19 20  2  0
 20 15  1  0
  6  2  1  0
 12  7  1  0
M  END
>  <Activity>  (26) 
-0.493566

>  <minimizedAffinity>  (26) 
-7.86345

>  <MorganFP>  (26) 
<rdkit.DataStructs.cDataStructs.ExplicitBitVect object at 0x7f21e41bc120>

$$$$
HIPS6819
     RDKit          3D

 23 25  0  0  0  0  0  0  0  0999 V2000
   68.4864   74.2874   94.8658 C   0  0  0  0  0  0  0  0  0  0  0  0
   68.8293   75.2973   93.9486 C   0  0  0  0  0  0  0  0  0  0  0  0
   67.8654   76.1816   93.4538 C   0  0  0  0  0  0  0  0  0  0  0  0
   66.5348   76.0608   93.8886 C   0  0  0  0  0  0  0  0  0  0  0  0
   66.1840   75.0724   94.8093 C   0  0  0  0  0  0  0  0  0  0  0  0
   67.1454   74.1881   95.3096 C   0  0  0  0  0  0  0  0  0  0  0  0
   66.7345   73.2337   96.2429 O   0  0  0  0  0  0  0  0  0  0  0  0
   69.5701   73.3701   95.3778 C   0  0  0  0  0  0  0  0  0  0  0  0
   71.3111   72.3158   94.1200 O   0  0  0  0  0  0  0  0  0  0  0  0
   70.0731   72.4906   94.2768 C   0  0  0  0  0  0  0  0  0  0  0  0
   69.1695   71.8707   93.4192 O   0  0  0  0  0  0  0  0  0  0  0  0
   68.2713   77.1612   92.5359 O   0  0  0  0  0  0  0  0  0  0  0  0
   69.1633   76.9298   91.4485 C   0  0  0  0  0  0  0  0  0  0  0  0
   68.3658   76.6988   90.1881 C   0  0  0  0  0  0  0  0  0  0  0  0
   68.0755   77.8005   89.3643 C   0  0  0  0  0  0  0  0  0  0  0  0
   67.3486   77.6399   88.1853 C   0  0  0  0  0  0  0  0  0  0  0  0
   66.9024   76.3776   87.8005 C   0  0  0  0  0  0  0  0  0  0  0  0
   67.1845   75.2568   88.5928 C   0  0  0  0  0  0  0  0  0  0  0  0
   66.7383   73.9870   88.1934 C   0  0  0  0  0  0  0  0  0  0  0  0
   67.0208   72.8646   88.9724 C   0  0  0  0  0  0  0  0  0  0  0  0
   67.7502   72.9975   90.1534 C   0  0  0  0  0  0  0  0  0  0  0  0
   68.2011   74.2534   90.5669 C   0  0  0  0  0  0  0  0  0  0  0  0
   67.9251   75.4052   89.7975 C   0  0  0  0  0  0  0  0  0  0  0  0
  9 10  2  0
 10 11  1  0
 10  8  1  0
  8  1  1  0
  1  2  2  0
  2  3  1  0
  3 12  1  0
 12 13  1  0
 13 14  1  0
 14 15  2  0
 15 16  1  0
 16 17  2  0
 17 18  1  0
 18 19  2  0
 19 20  1  0
 20 21  2  0
 21 22  1  0
 22 23  2  0
  3  4  2  0
  4  5  1  0
  5  6  2  0
  6  7  1  0
  6  1  1  0
 23 14  1  0
 23 18  1  0
M  END
>  <Activity>  (27) 
0.709324

>  <minimizedAffinity>  (27) 
-8.49664

>  <MorganFP>  (27) 
<rdkit.DataStructs.cDataStructs.ExplicitBitVect object at 0x7f21e41bc350>

$$$$
HIPS6819
     RDKit          3D

 23 25  0  0  0  0  0  0  0  0999 V2000
   69.1227   76.8027   90.9785 C   0  0  0  0  0  0  0  0  0  0  0  0
   68.9886   78.0454   90.3330 C   0  0  0  0  0  0  0  0  0  0  0  0
   70.0855   78.8977   90.1713 C   0  0  0  0  0  0  0  0  0  0  0  0
   71.3425   78.4990   90.6563 C   0  0  0  0  0  0  0  0  0  0  0  0
   71.4923   77.2624   91.2857 C   0  0  0  0  0  0  0  0  0  0  0  0
   70.3987   76.4052   91.4464 C   0  0  0  0  0  0  0  0  0  0  0  0
   70.6179   75.1735   92.0674 O   0  0  0  0  0  0  0  0  0  0  0  0
   67.9081   75.9168   91.1123 C   0  0  0  0  0  0  0  0  0  0  0  0
   67.3189   75.0813   88.9492 O   0  0  0  0  0  0  0  0  0  0  0  0
   67.9056   74.8693   90.0440 C   0  0  0  0  0  0  0  0  0  0  0  0
   68.5472   73.6544   90.2649 O   0  0  0  0  0  0  0  0  0  0  0  0
   69.8830   80.1261   89.5257 O   0  0  0  0  0  0  0  0  0  0  0  0
   69.7698   81.3807   90.1927 C   0  0  0  0  0  0  0  0  0  0  0  0
   70.8076   82.3317   89.6482 C   0  0  0  0  0  0  0  0  0  0  0  0
   72.1062   82.2899   90.1855 C   0  0  0  0  0  0  0  0  0  0  0  0
   73.1034   83.1420   89.7125 C   0  0  0  0  0  0  0  0  0  0  0  0
   72.8284   84.0477   88.6906 C   0  0  0  0  0  0  0  0  0  0  0  0
   71.5477   84.1072   88.1251 C   0  0  0  0  0  0  0  0  0  0  0  0
   71.2812   85.0171   87.0898 C   0  0  0  0  0  0  0  0  0  0  0  0
   70.0109   85.0782   86.5161 C   0  0  0  0  0  0  0  0  0  0  0  0
   68.9974   84.2336   86.9675 C   0  0  0  0  0  0  0  0  0  0  0  0
   69.2443   83.3229   87.9976 C   0  0  0  0  0  0  0  0  0  0  0  0
   70.5208   83.2443   88.5969 C   0  0  0  0  0  0  0  0  0  0  0  0
  9 10  2  0
 10 11  1  0
 10  8  1  0
  8  1  1  0
  1  2  2  0
  2  3  1  0
  3 12  1  0
 12 13  1  0
 13 14  1  0
 14 15  2  0
 15 16  1  0
 16 17  2  0
 17 18  1  0
 18 19  2  0
 19 20  1  0
 20 21  2  0
 21 22  1  0
 22 23  2  0
  3  4  2  0
  4  5  1  0
  5  6  2  0
  6  7  1  0
  6  1  1  0
 23 14  1  0
 23 18  1  0
M  END
>  <Activity>  (28) 
0.709324

>  <minimizedAffinity>  (28) 
-8.14671

>  <MorganFP>  (28) 
<rdkit.DataStructs.cDataStructs.ExplicitBitVect object at 0x7f21e41bc3c0>

$$$$
HIPS6819
     RDKit          3D

 23 25  0  0  0  0  0  0  0  0999 V2000
   68.5680   74.0868   94.9819 C   0  0  0  0  0  0  0  0  0  0  0  0
   68.9266   75.0838   94.0567 C   0  0  0  0  0  0  0  0  0  0  0  0
   67.9891   76.0144   93.5974 C   0  0  0  0  0  0  0  0  0  0  0  0
   66.6697   75.9538   94.0767 C   0  0  0  0  0  0  0  0  0  0  0  0
   66.3043   74.9787   95.0058 C   0  0  0  0  0  0  0  0  0  0  0  0
   67.2395   74.0482   95.4706 C   0  0  0  0  0  0  0  0  0  0  0  0
   66.8161   73.1098   96.4144 O   0  0  0  0  0  0  0  0  0  0  0  0
   69.6242   73.1177   95.4542 C   0  0  0  0  0  0  0  0  0  0  0  0
   71.4017   72.2435   94.1122 O   0  0  0  0  0  0  0  0  0  0  0  0
   70.1589   72.3260   94.3026 C   0  0  0  0  0  0  0  0  0  0  0  0
   69.2788   71.6857   93.4355 O   0  0  0  0  0  0  0  0  0  0  0  0
   68.4092   76.9781   92.6692 O   0  0  0  0  0  0  0  0  0  0  0  0
   69.2808   76.7176   91.5720 C   0  0  0  0  0  0  0  0  0  0  0  0
   68.4902   76.1109   90.4385 C   0  0  0  0  0  0  0  0  0  0  0  0
   68.2761   74.7213   90.4358 C   0  0  0  0  0  0  0  0  0  0  0  0
   67.5461   74.1124   89.4158 C   0  0  0  0  0  0  0  0  0  0  0  0
   67.0094   74.8765   88.3821 C   0  0  0  0  0  0  0  0  0  0  0  0
   67.1943   76.2654   88.3609 C   0  0  0  0  0  0  0  0  0  0  0  0
   66.6429   77.0291   87.3199 C   0  0  0  0  0  0  0  0  0  0  0  0
   66.8160   78.4133   87.2947 C   0  0  0  0  0  0  0  0  0  0  0  0
   67.5377   79.0473   88.3053 C   0  0  0  0  0  0  0  0  0  0  0  0
   68.0945   78.3030   89.3482 C   0  0  0  0  0  0  0  0  0  0  0  0
   67.9361   76.9003   89.3944 C   0  0  0  0  0  0  0  0  0  0  0  0
  9 10  2  0
 10 11  1  0
 10  8  1  0
  8  1  1  0
  1  2  2  0
  2  3  1  0
  3 12  1  0
 12 13  1  0
 13 14  1  0
 14 15  2  0
 15 16  1  0
 16 17  2  0
 17 18  1  0
 18 19  2  0
 19 20  1  0
 20 21  2  0
 21 22  1  0
 22 23  2  0
  3  4  2  0
  4  5  1  0
  5  6  2  0
  6  7  1  0
  6  1  1  0
 23 14  1  0
 23 18  1  0
M  END
>  <Activity>  (29) 
0.709324

>  <minimizedAffinity>  (29) 
-7.99731

>  <MorganFP>  (29) 
<rdkit.DataStructs.cDataStructs.ExplicitBitVect object at 0x7f21e41bc430>

$$$$
HIPS6826
     RDKit          3D

 24 26  0  0  0  0  0  0  0  0999 V2000
   68.2138   76.6452   92.1447 N   0  0  0  0  0  0  0  0  0  0  0  0
   68.6409   74.0035   94.8076 C   0  0  0  0  0  0  0  0  0  0  0  0
   68.9312   74.8936   93.7580 C   0  0  0  0  0  0  0  0  0  0  0  0
   67.9446   75.7528   93.2426 C   0  0  0  0  0  0  0  0  0  0  0  0
   66.6626   75.7304   93.8039 C   0  0  0  0  0  0  0  0  0  0  0  0
   66.3672   74.8698   94.8605 C   0  0  0  0  0  0  0  0  0  0  0  0
   67.3457   74.0187   95.3834 C   0  0  0  0  0  0  0  0  0  0  0  0
   67.0020   73.2373   96.4889 O   0  0  0  0  0  0  0  0  0  0  0  0
   69.5886   72.4243   96.3221 O   0  0  0  0  0  0  0  0  0  0  0  0
   69.6985   73.0641   95.2422 C   0  0  0  0  0  0  0  0  0  0  0  0
   70.7997   72.8329   94.4218 O   0  0  0  0  0  0  0  0  0  0  0  0
   68.9748   76.2782   90.9481 C   0  0  0  0  0  0  0  0  0  0  0  0
   68.2509   75.2252   90.1319 C   0  0  0  0  0  0  0  0  0  0  0  0
   68.4093   73.8716   90.4815 C   0  0  0  0  0  0  0  0  0  0  0  0
   67.7288   72.8712   89.7852 C   0  0  0  0  0  0  0  0  0  0  0  0
   66.8844   73.2051   88.7277 C   0  0  0  0  0  0  0  0  0  0  0  0
   66.7253   74.5401   88.3547 C   0  0  0  0  0  0  0  0  0  0  0  0
   67.4122   75.5588   89.0355 C   0  0  0  0  0  0  0  0  0  0  0  0
   67.2150   76.9552   88.5945 C   0  0  0  0  0  0  0  0  0  0  0  0
   66.4605   77.8488   89.3716 C   0  0  0  0  0  0  0  0  0  0  0  0
   66.2642   79.1636   88.9381 C   0  0  0  0  0  0  0  0  0  0  0  0
   66.8239   79.5947   87.7320 C   0  0  0  0  0  0  0  0  0  0  0  0
   67.5858   78.7132   86.9598 C   0  0  0  0  0  0  0  0  0  0  0  0
   67.7863   77.3984   87.3907 C   0  0  0  0  0  0  0  0  0  0  0  0
  9 10  2  0
 10 11  1  0
 10  2  1  0
  2  3  2  0
  3  4  1  0
  4  1  1  0
  1 12  1  0
 12 13  1  0
 13 14  2  0
 14 15  1  0
 15 16  2  0
 16 17  1  0
 17 18  2  0
 18 19  1  0
 19 20  2  0
 20 21  1  0
 21 22  2  0
 22 23  1  0
 23 24  2  0
  4  5  2  0
  5  6  1  0
  6  7  2  0
  7  8  1  0
  7  2  1  0
 18 13  1  0
 24 19  1  0
M  END
>  <Activity>  (30) 
0.307615

>  <minimizedAffinity>  (30) 
-8.46046

>  <MorganFP>  (30) 
<rdkit.DataStructs.cDataStructs.ExplicitBitVect object at 0x7f21e41bc4a0>

$$$$
HIPS6826
     RDKit          3D

 24 26  0  0  0  0  0  0  0  0999 V2000
   66.7354   77.7080   92.7509 N   0  0  0  0  0  0  0  0  0  0  0  0
   67.9529   74.8559   94.9039 C   0  0  0  0  0  0  0  0  0  0  0  0
   67.9509   76.0189   94.1128 C   0  0  0  0  0  0  0  0  0  0  0  0
   66.7528   76.5392   93.5921 C   0  0  0  0  0  0  0  0  0  0  0  0
   65.5460   75.8954   93.8892 C   0  0  0  0  0  0  0  0  0  0  0  0
   65.5305   74.7552   94.6916 C   0  0  0  0  0  0  0  0  0  0  0  0
   66.7173   74.2372   95.2196 C   0  0  0  0  0  0  0  0  0  0  0  0
   66.6208   73.1373   96.0750 O   0  0  0  0  0  0  0  0  0  0  0  0
   69.4490   73.0671   95.4011 O   0  0  0  0  0  0  0  0  0  0  0  0
   69.2562   74.3109   95.3449 C   0  0  0  0  0  0  0  0  0  0  0  0
   70.3049   75.1776   95.6415 O   0  0  0  0  0  0  0  0  0  0  0  0
   66.8584   77.6786   91.2915 C   0  0  0  0  0  0  0  0  0  0  0  0
   68.2382   78.1185   90.8423 C   0  0  0  0  0  0  0  0  0  0  0  0
   68.4850   79.4920   90.6629 C   0  0  0  0  0  0  0  0  0  0  0  0
   69.7517   79.9461   90.2915 C   0  0  0  0  0  0  0  0  0  0  0  0
   70.7893   79.0376   90.0892 C   0  0  0  0  0  0  0  0  0  0  0  0
   70.5618   77.6700   90.2466 C   0  0  0  0  0  0  0  0  0  0  0  0
   69.2904   77.1942   90.6071 C   0  0  0  0  0  0  0  0  0  0  0  0
   69.1011   75.7359   90.7520 C   0  0  0  0  0  0  0  0  0  0  0  0
   68.1110   75.0682   90.0134 C   0  0  0  0  0  0  0  0  0  0  0  0
   67.9272   73.6909   90.1698 C   0  0  0  0  0  0  0  0  0  0  0  0
   68.7329   72.9728   91.0579 C   0  0  0  0  0  0  0  0  0  0  0  0
   69.7279   73.6299   91.7873 C   0  0  0  0  0  0  0  0  0  0  0  0
   69.9166   75.0064   91.6322 C   0  0  0  0  0  0  0  0  0  0  0  0
  9 10  2  0
 10 11  1  0
 10  2  1  0
  2  3  2  0
  3  4  1  0
  4  1  1  0
  1 12  1  0
 12 13  1  0
 13 14  2  0
 14 15  1  0
 15 16  2  0
 16 17  1  0
 17 18  2  0
 18 19  1  0
 19 20  2  0
 20 21  1  0
 21 22  2  0
 22 23  1  0
 23 24  2  0
  4  5  2  0
  5  6  1  0
  6  7  2  0
  7  8  1  0
  7  2  1  0
 18 13  1  0
 24 19  1  0
M  END
>  <Activity>  (31) 
0.307615

>  <minimizedAffinity>  (31) 
-8.20326

>  <MorganFP>  (31) 
<rdkit.DataStructs.cDataStructs.ExplicitBitVect object at 0x7f21e41bc510>

$$$$
HIPS6839
     RDKit          3D

 18 19  0  0  0  0  0  0  0  0999 V2000
   69.3260   73.1589   91.8611 C   0  0  0  0  0  0  0  0  0  0  0  0
   68.4144   72.5421   90.9847 C   0  0  0  0  0  0  0  0  0  0  0  0
   67.7075   73.2854   90.0338 C   0  0  0  0  0  0  0  0  0  0  0  0
   67.9181   74.6723   89.9538 C   0  0  0  0  0  0  0  0  0  0  0  0
   68.8035   75.2999   90.8304 C   0  0  0  0  0  0  0  0  0  0  0  0
   69.4938   74.5636   91.7988 C   0  0  0  0  0  0  0  0  0  0  0  0
   70.3025   75.2649   92.6957 O   0  0  0  0  0  0  0  0  0  0  0  0
   70.1721   71.0650   92.5971 O   0  0  0  0  0  0  0  0  0  0  0  0
   70.1020   72.3088   92.7903 C   0  0  0  0  0  0  0  0  0  0  0  0
   70.8096   72.8759   93.8462 O   0  0  0  0  0  0  0  0  0  0  0  0
   66.8163   72.6043   89.1883 O   0  0  0  0  0  0  0  0  0  0  0  0
   66.5369   72.9524   87.8319 C   0  0  0  0  0  0  0  0  0  0  0  0
   66.9649   71.8550   86.9020 C   0  0  0  0  0  0  0  0  0  0  0  0
   66.6104   71.8131   85.5562 C   0  0  0  0  0  0  0  0  0  0  0  0
   67.3092   70.4450   84.8715 S   0  0  0  0  0  0  0  0  0  0  0  0
   68.0696   69.9078   86.2690 C   0  0  0  0  0  0  0  0  0  0  0  0
   69.1434   68.3387   86.4017 Br  0  0  0  0  0  0  0  0  0  0  0  0
   67.7905   70.7918   87.2990 C   0  0  0  0  0  0  0  0  0  0  0  0
  8  9  2  0
  9 10  1  0
  9  1  1  0
  1  2  2  0
  2  3  1  0
  3 11  1  0
 11 12  1  0
 12 13  1  0
 13 14  2  0
 14 15  1  0
 15 16  1  0
 16 17  1  0
 16 18  2  0
  3  4  2  0
  4  5  1  0
  5  6  2  0
  6  7  1  0
  6  1  1  0
 18 13  1  0
M  END
>  <Activity>  (32) 
0.380265

>  <minimizedAffinity>  (32) 
-6.69616

>  <MorganFP>  (32) 
<rdkit.DataStructs.cDataStructs.ExplicitBitVect object at 0x7f21e41bc5f0>

$$$$
HIPS6839
     RDKit          3D

 18 19  0  0  0  0  0  0  0  0999 V2000
   68.3096   74.3069   94.6229 C   0  0  0  0  0  0  0  0  0  0  0  0
   68.5077   75.2910   93.6372 C   0  0  0  0  0  0  0  0  0  0  0  0
   67.5086   76.2207   93.3305 C   0  0  0  0  0  0  0  0  0  0  0  0
   66.2883   76.1690   94.0251 C   0  0  0  0  0  0  0  0  0  0  0  0
   66.0707   75.1856   94.9904 C   0  0  0  0  0  0  0  0  0  0  0  0
   67.0583   74.2390   95.2825 C   0  0  0  0  0  0  0  0  0  0  0  0
   66.7456   73.2343   96.2006 O   0  0  0  0  0  0  0  0  0  0  0  0
   69.4242   72.7659   96.0459 O   0  0  0  0  0  0  0  0  0  0  0  0
   69.4317   73.4032   94.9581 C   0  0  0  0  0  0  0  0  0  0  0  0
   70.4718   73.2001   94.0558 O   0  0  0  0  0  0  0  0  0  0  0  0
   67.7756   77.1781   92.3380 O   0  0  0  0  0  0  0  0  0  0  0  0
   68.7077   77.0191   91.2680 C   0  0  0  0  0  0  0  0  0  0  0  0
   68.0319   76.4535   90.0533 C   0  0  0  0  0  0  0  0  0  0  0  0
   67.6564   77.2275   88.9586 C   0  0  0  0  0  0  0  0  0  0  0  0
   66.9598   76.2128   87.8123 S   0  0  0  0  0  0  0  0  0  0  0  0
   67.1400   74.7926   88.6900 C   0  0  0  0  0  0  0  0  0  0  0  0
   66.5939   73.0628   88.1050 Br  0  0  0  0  0  0  0  0  0  0  0  0
   67.7508   75.0873   89.8985 C   0  0  0  0  0  0  0  0  0  0  0  0
  8  9  2  0
  9 10  1  0
  9  1  1  0
  1  2  2  0
  2  3  1  0
  3 11  1  0
 11 12  1  0
 12 13  1  0
 13 14  2  0
 14 15  1  0
 15 16  1  0
 16 17  1  0
 16 18  2  0
  3  4  2  0
  4  5  1  0
  5  6  2  0
  6  7  1  0
  6  1  1  0
 18 13  1  0
M  END
>  <Activity>  (33) 
0.380265

>  <minimizedAffinity>  (33) 
-6.37958

>  <MorganFP>  (33) 
<rdkit.DataStructs.cDataStructs.ExplicitBitVect object at 0x7f21e41bc660>

$$$$
HIPS6839
     RDKit          3D

 18 19  0  0  0  0  0  0  0  0999 V2000
   68.1500   74.1460   94.4961 C   0  0  0  0  0  0  0  0  0  0  0  0
   68.0955   74.9873   93.3697 C   0  0  0  0  0  0  0  0  0  0  0  0
   66.9594   75.7550   93.0932 C   0  0  0  0  0  0  0  0  0  0  0  0
   65.8568   75.6840   93.9612 C   0  0  0  0  0  0  0  0  0  0  0  0
   65.8894   74.8383   95.0702 C   0  0  0  0  0  0  0  0  0  0  0  0
   67.0142   74.0507   95.3364 C   0  0  0  0  0  0  0  0  0  0  0  0
   66.9496   73.1674   96.4162 O   0  0  0  0  0  0  0  0  0  0  0  0
   69.5512   72.8108   95.8730 O   0  0  0  0  0  0  0  0  0  0  0  0
   69.4078   73.4206   94.7789 C   0  0  0  0  0  0  0  0  0  0  0  0
   70.4165   73.3517   93.8224 O   0  0  0  0  0  0  0  0  0  0  0  0
   66.9751   76.5760   91.9536 O   0  0  0  0  0  0  0  0  0  0  0  0
   68.0734   76.7143   91.0516 C   0  0  0  0  0  0  0  0  0  0  0  0
   67.6120   77.2575   89.7308 C   0  0  0  0  0  0  0  0  0  0  0  0
   67.1487   78.5594   89.5606 C   0  0  0  0  0  0  0  0  0  0  0  0
   66.7590   78.7702   87.9382 S   0  0  0  0  0  0  0  0  0  0  0  0
   67.1840   77.2225   87.4443 C   0  0  0  0  0  0  0  0  0  0  0  0
   67.0590   76.5657   85.6595 Br  0  0  0  0  0  0  0  0  0  0  0  0
   67.6405   76.5113   88.5426 C   0  0  0  0  0  0  0  0  0  0  0  0
  8  9  2  0
  9 10  1  0
  9  1  1  0
  1  2  2  0
  2  3  1  0
  3 11  1  0
 11 12  1  0
 12 13  1  0
 13 14  2  0
 14 15  1  0
 15 16  1  0
 16 17  1  0
 16 18  2  0
  3  4  2  0
  4  5  1  0
  5  6  2  0
  6  7  1  0
  6  1  1  0
 18 13  1  0
M  END
>  <Activity>  (34) 
0.380265

>  <minimizedAffinity>  (34) 
-6.34541

>  <MorganFP>  (34) 
<rdkit.DataStructs.cDataStructs.ExplicitBitVect object at 0x7f21e41bc6d0>

$$$$
HIPS6862
     RDKit          3D

 24 26  0  0  0  0  0  0  0  0999 V2000
   67.8520   78.8268   88.9877 O   0  0  0  0  0  0  0  0  0  0  0  0
   69.8837   76.5468   91.1673 C   0  0  0  0  0  0  0  0  0  0  0  0
   68.7883   77.0665   90.4504 C   0  0  0  0  0  0  0  0  0  0  0  0
   68.8955   78.2887   89.7585 C   0  0  0  0  0  0  0  0  0  0  0  0
   70.1008   78.9911   89.8000 C   0  0  0  0  0  0  0  0  0  0  0  0
   71.1750   78.5138   90.5496 C   0  0  0  0  0  0  0  0  0  0  0  0
   71.0743   77.3096   91.2533 C   0  0  0  0  0  0  0  0  0  0  0  0
   72.1589   76.9236   92.0449 O   0  0  0  0  0  0  0  0  0  0  0  0
   70.2592   74.9347   92.8816 O   0  0  0  0  0  0  0  0  0  0  0  0
   69.7729   75.1894   91.7467 C   0  0  0  0  0  0  0  0  0  0  0  0
   69.1990   74.1587   91.0076 O   0  0  0  0  0  0  0  0  0  0  0  0
   67.1521   80.0464   89.2469 C   0  0  0  0  0  0  0  0  0  0  0  0
   67.5461   81.1155   88.2305 C   0  0  0  0  0  0  0  0  0  0  0  0
   68.2645   82.1663   88.8700 O   0  0  0  0  0  0  0  0  0  0  0  0
   69.0542   83.1149   88.1956 C   0  0  0  0  0  0  0  0  0  0  0  0
   68.5221   83.9333   87.1786 C   0  0  0  0  0  0  0  0  0  0  0  0
   69.3212   84.8774   86.5291 C   0  0  0  0  0  0  0  0  0  0  0  0
   70.6651   85.0179   86.8795 C   0  0  0  0  0  0  0  0  0  0  0  0
   71.2194   84.2227   87.8960 C   0  0  0  0  0  0  0  0  0  0  0  0
   72.5664   84.3801   88.2676 C   0  0  0  0  0  0  0  0  0  0  0  0
   73.1115   83.5974   89.2893 C   0  0  0  0  0  0  0  0  0  0  0  0
   72.3190   82.6573   89.9501 C   0  0  0  0  0  0  0  0  0  0  0  0
   70.9780   82.4905   89.5932 C   0  0  0  0  0  0  0  0  0  0  0  0
   70.4114   83.2635   88.5604 C   0  0  0  0  0  0  0  0  0  0  0  0
  9 10  2  0
 10 11  1  0
 10  2  1  0
  2  3  2  0
  3  4  1  0
  4  1  1  0
  1 12  1  0
 12 13  1  0
 13 14  1  0
 14 15  1  0
 15 16  2  0
 16 17  1  0
 17 18  2  0
 18 19  1  0
 19 20  2  0
 20 21  1  0
 21 22  2  0
 22 23  1  0
 23 24  2  0
  4  5  2  0
  5  6  1  0
  6  7  2  0
  7  8  1  0
  7  2  1  0
 24 15  1  0
 24 19  1  0
M  END
>  <Activity>  (35) 
0.461461

>  <minimizedAffinity>  (35) 
-8.03820

>  <MorganFP>  (35) 
<rdkit.DataStructs.cDataStructs.ExplicitBitVect object at 0x7f21e41bc740>

$$$$
HIPS6862
     RDKit          3D

 24 26  0  0  0  0  0  0  0  0999 V2000
   68.0706   78.1846   89.6312 O   0  0  0  0  0  0  0  0  0  0  0  0
   69.1394   75.0063   91.3145 C   0  0  0  0  0  0  0  0  0  0  0  0
   69.0499   76.3779   91.0066 C   0  0  0  0  0  0  0  0  0  0  0  0
   68.2353   76.8264   89.9486 C   0  0  0  0  0  0  0  0  0  0  0  0
   67.5224   75.8927   89.1952 C   0  0  0  0  0  0  0  0  0  0  0  0
   67.6440   74.5285   89.4560 C   0  0  0  0  0  0  0  0  0  0  0  0
   68.4624   74.0711   90.4936 C   0  0  0  0  0  0  0  0  0  0  0  0
   68.5999   72.6903   90.6561 O   0  0  0  0  0  0  0  0  0  0  0  0
   70.4824   73.4907   92.5704 O   0  0  0  0  0  0  0  0  0  0  0  0
   69.8822   74.5985   92.5278 C   0  0  0  0  0  0  0  0  0  0  0  0
   69.8586   75.4016   93.6647 O   0  0  0  0  0  0  0  0  0  0  0  0
   68.4554   79.2953   90.4453 C   0  0  0  0  0  0  0  0  0  0  0  0
   69.7540   79.9114   89.9301 C   0  0  0  0  0  0  0  0  0  0  0  0
   69.7348   81.3251   90.1038 O   0  0  0  0  0  0  0  0  0  0  0  0
   70.7499   82.1942   89.6648 C   0  0  0  0  0  0  0  0  0  0  0  0
   72.0410   82.1707   90.2301 C   0  0  0  0  0  0  0  0  0  0  0  0
   73.0383   83.0350   89.7715 C   0  0  0  0  0  0  0  0  0  0  0  0
   72.7633   83.9400   88.7449 C   0  0  0  0  0  0  0  0  0  0  0  0
   71.4886   83.9786   88.1564 C   0  0  0  0  0  0  0  0  0  0  0  0
   71.2170   84.8722   87.1053 C   0  0  0  0  0  0  0  0  0  0  0  0
   69.9517   84.8983   86.5119 C   0  0  0  0  0  0  0  0  0  0  0  0
   68.9511   84.0329   86.9573 C   0  0  0  0  0  0  0  0  0  0  0  0
   69.2065   83.1377   88.0001 C   0  0  0  0  0  0  0  0  0  0  0  0
   70.4725   83.1013   88.6173 C   0  0  0  0  0  0  0  0  0  0  0  0
  9 10  2  0
 10 11  1  0
 10  2  1  0
  2  3  2  0
  3  4  1  0
  4  1  1  0
  1 12  1  0
 12 13  1  0
 13 14  1  0
 14 15  1  0
 15 16  2  0
 16 17  1  0
 17 18  2  0
 18 19  1  0
 19 20  2  0
 20 21  1  0
 21 22  2  0
 22 23  1  0
 23 24  2  0
  4  5  2  0
  5  6  1  0
  6  7  2  0
  7  8  1  0
  7  2  1  0
 24 15  1  0
 24 19  1  0
M  END
>  <Activity>  (36) 
0.461461

>  <minimizedAffinity>  (36) 
-7.85576

>  <MorganFP>  (36) 
<rdkit.DataStructs.cDataStructs.ExplicitBitVect object at 0x7f21e41bc7b0>

$$$$
HIPS6862
     RDKit          3D

 24 26  0  0  0  0  0  0  0  0999 V2000
   68.1804   79.9880   89.9065 O   0  0  0  0  0  0  0  0  0  0  0  0
   70.8139   77.5128   90.9139 C   0  0  0  0  0  0  0  0  0  0  0  0
   70.1957   78.6014   90.2684 C   0  0  0  0  0  0  0  0  0  0  0  0
   68.8333   78.8869   90.4843 C   0  0  0  0  0  0  0  0  0  0  0  0
   68.0935   78.0690   91.3395 C   0  0  0  0  0  0  0  0  0  0  0  0
   68.6804   76.9575   91.9426 C   0  0  0  0  0  0  0  0  0  0  0  0
   70.0280   76.6554   91.7226 C   0  0  0  0  0  0  0  0  0  0  0  0
   70.5369   75.4872   92.2956 O   0  0  0  0  0  0  0  0  0  0  0  0
   72.9731   76.9590   91.7564 O   0  0  0  0  0  0  0  0  0  0  0  0
   72.2783   77.3459   90.7783 C   0  0  0  0  0  0  0  0  0  0  0  0
   72.9140   77.6920   89.5891 O   0  0  0  0  0  0  0  0  0  0  0  0
   67.2923   79.9515   88.7865 C   0  0  0  0  0  0  0  0  0  0  0  0
   67.4839   81.1880   87.9115 C   0  0  0  0  0  0  0  0  0  0  0  0
   68.1599   82.2096   88.6385 O   0  0  0  0  0  0  0  0  0  0  0  0
   69.0689   83.1207   88.0712 C   0  0  0  0  0  0  0  0  0  0  0  0
   68.6859   84.0070   87.0442 C   0  0  0  0  0  0  0  0  0  0  0  0
   69.6018   84.9122   86.5022 C   0  0  0  0  0  0  0  0  0  0  0  0
   70.9158   84.9452   86.9721 C   0  0  0  0  0  0  0  0  0  0  0  0
   71.3226   84.0805   88.0015 C   0  0  0  0  0  0  0  0  0  0  0  0
   72.6389   84.1297   88.4933 C   0  0  0  0  0  0  0  0  0  0  0  0
   73.0369   83.2778   89.5276 C   0  0  0  0  0  0  0  0  0  0  0  0
   72.1268   82.3758   90.0815 C   0  0  0  0  0  0  0  0  0  0  0  0
   70.8144   82.3165   89.6043 C   0  0  0  0  0  0  0  0  0  0  0  0
   70.3954   83.1605   88.5569 C   0  0  0  0  0  0  0  0  0  0  0  0
  9 10  2  0
 10 11  1  0
 10  2  1  0
  2  3  2  0
  3  4  1  0
  4  1  1  0
  1 12  1  0
 12 13  1  0
 13 14  1  0
 14 15  1  0
 15 16  2  0
 16 17  1  0
 17 18  2  0
 18 19  1  0
 19 20  2  0
 20 21  1  0
 21 22  2  0
 22 23  1  0
 23 24  2  0
  4  5  2  0
  5  6  1  0
  6  7  2  0
  7  8  1  0
  7  2  1  0
 24 15  1  0
 24 19  1  0
M  END
>  <Activity>  (37) 
0.461461

>  <minimizedAffinity>  (37) 
-7.84341

>  <MorganFP>  (37) 
<rdkit.DataStructs.cDataStructs.ExplicitBitVect object at 0x7f21e41bc820>

$$$$
HIPS6863
     RDKit          3D

 22 24  0  0  0  0  0  0  0  0999 V2000
   69.6236   76.3160   91.1419 C   0  0  0  0  0  0  0  0  0  0  0  0
   70.3897   77.4943   91.1322 C   0  0  0  0  0  0  0  0  0  0  0  0
   70.1120   78.5286   90.2255 C   0  0  0  0  0  0  0  0  0  0  0  0
   69.0423   78.3908   89.3327 C   0  0  0  0  0  0  0  0  0  0  0  0
   68.2726   77.2275   89.3328 C   0  0  0  0  0  0  0  0  0  0  0  0
   68.5660   76.1759   90.2085 C   0  0  0  0  0  0  0  0  0  0  0  0
   67.8135   75.0052   90.0914 O   0  0  0  0  0  0  0  0  0  0  0  0
   70.1604   74.0814   91.7731 O   0  0  0  0  0  0  0  0  0  0  0  0
   69.9608   75.2722   92.1331 C   0  0  0  0  0  0  0  0  0  0  0  0
   70.0039   75.5935   93.4873 O   0  0  0  0  0  0  0  0  0  0  0  0
   71.0079   79.7387   90.1569 C   0  0  0  0  0  0  0  0  0  0  0  0
   70.2064   81.0512   90.1623 C   0  0  0  0  0  0  0  0  0  0  0  0
   71.0140   82.2121   89.6079 C   0  0  0  0  0  0  0  0  0  0  0  0
   72.3273   82.3692   90.0861 C   0  0  0  0  0  0  0  0  0  0  0  0
   73.1620   83.3640   89.5823 C   0  0  0  0  0  0  0  0  0  0  0  0
   72.7122   84.2158   88.5783 C   0  0  0  0  0  0  0  0  0  0  0  0
   71.4148   84.0833   88.0674 C   0  0  0  0  0  0  0  0  0  0  0  0
   70.9844   84.9341   87.0370 C   0  0  0  0  0  0  0  0  0  0  0  0
   69.7018   84.8050   86.5067 C   0  0  0  0  0  0  0  0  0  0  0  0
   68.8355   83.8332   87.0025 C   0  0  0  0  0  0  0  0  0  0  0  0
   69.2435   82.9825   88.0321 C   0  0  0  0  0  0  0  0  0  0  0  0
   70.5425   83.0827   88.5814 C   0  0  0  0  0  0  0  0  0  0  0  0
  8  9  2  0
  9 10  1  0
  9  1  1  0
  1  2  2  0
  2  3  1  0
  3 11  1  0
 11 12  1  0
 12 13  1  0
 13 14  2  0
 14 15  1  0
 15 16  2  0
 16 17  1  0
 17 18  2  0
 18 19  1  0
 19 20  2  0
 20 21  1  0
 21 22  2  0
  3  4  2  0
  4  5  1  0
  5  6  2  0
  6  7  1  0
  6  1  1  0
 22 13  1  0
 22 17  1  0
M  END
>  <Activity>  (38) 
-0.401787

>  <minimizedAffinity>  (38) 
-8.62380

>  <MorganFP>  (38) 
<rdkit.DataStructs.cDataStructs.ExplicitBitVect object at 0x7f21e41bc890>

$$$$
HIPS6863
     RDKit          3D

 22 24  0  0  0  0  0  0  0  0999 V2000
   68.3559   74.4096   94.5864 C   0  0  0  0  0  0  0  0  0  0  0  0
   68.6704   75.4818   93.7339 C   0  0  0  0  0  0  0  0  0  0  0  0
   67.7074   76.4471   93.4023 C   0  0  0  0  0  0  0  0  0  0  0  0
   66.4212   76.3497   93.9468 C   0  0  0  0  0  0  0  0  0  0  0  0
   66.0961   75.2917   94.7959 C   0  0  0  0  0  0  0  0  0  0  0  0
   67.0397   74.3045   95.1021 C   0  0  0  0  0  0  0  0  0  0  0  0
   66.6197   73.2256   95.8831 O   0  0  0  0  0  0  0  0  0  0  0  0
   69.4174   72.8116   96.0006 O   0  0  0  0  0  0  0  0  0  0  0  0
   69.4218   73.4363   94.9064 C   0  0  0  0  0  0  0  0  0  0  0  0
   70.4746   73.2466   94.0149 O   0  0  0  0  0  0  0  0  0  0  0  0
   68.0299   77.5295   92.4043 C   0  0  0  0  0  0  0  0  0  0  0  0
   68.9563   77.0252   91.2852 C   0  0  0  0  0  0  0  0  0  0  0  0
   68.1904   76.7153   90.0105 C   0  0  0  0  0  0  0  0  0  0  0  0
   67.9779   77.7770   89.1128 C   0  0  0  0  0  0  0  0  0  0  0  0
   67.3462   77.5686   87.8891 C   0  0  0  0  0  0  0  0  0  0  0  0
   66.9252   76.2935   87.5244 C   0  0  0  0  0  0  0  0  0  0  0  0
   67.1296   75.2083   88.3860 C   0  0  0  0  0  0  0  0  0  0  0  0
   66.7219   73.9238   87.9929 C   0  0  0  0  0  0  0  0  0  0  0  0
   66.9323   72.8306   88.8319 C   0  0  0  0  0  0  0  0  0  0  0  0
   67.5434   73.0086   90.0711 C   0  0  0  0  0  0  0  0  0  0  0  0
   67.9493   74.2800   90.4822 C   0  0  0  0  0  0  0  0  0  0  0  0
   67.7592   75.4052   89.6474 C   0  0  0  0  0  0  0  0  0  0  0  0
  8  9  2  0
  9 10  1  0
  9  1  1  0
  1  2  2  0
  2  3  1  0
  3 11  1  0
 11 12  1  0
 12 13  1  0
 13 14  2  0
 14 15  1  0
 15 16  2  0
 16 17  1  0
 17 18  2  0
 18 19  1  0
 19 20  2  0
 20 21  1  0
 21 22  2  0
  3  4  2  0
  4  5  1  0
  5  6  2  0
  6  7  1  0
  6  1  1  0
 22 13  1  0
 22 17  1  0
M  END
>  <Activity>  (39) 
-0.401787

>  <minimizedAffinity>  (39) 
-8.62341

>  <MorganFP>  (39) 
<rdkit.DataStructs.cDataStructs.ExplicitBitVect object at 0x7f21e41bc900>

$$$$
HIPS6863
     RDKit          3D

 22 24  0  0  0  0  0  0  0  0999 V2000
   68.4205   77.0872   89.6810 C   0  0  0  0  0  0  0  0  0  0  0  0
   69.2106   78.2419   89.5486 C   0  0  0  0  0  0  0  0  0  0  0  0
   70.3819   78.4059   90.3037 C   0  0  0  0  0  0  0  0  0  0  0  0
   70.7780   77.3933   91.1859 C   0  0  0  0  0  0  0  0  0  0  0  0
   70.0042   76.2411   91.3257 C   0  0  0  0  0  0  0  0  0  0  0  0
   68.8153   76.0862   90.6038 C   0  0  0  0  0  0  0  0  0  0  0  0
   68.0434   74.9510   90.8610 O   0  0  0  0  0  0  0  0  0  0  0  0
   66.3196   77.8660   88.8688 O   0  0  0  0  0  0  0  0  0  0  0  0
   67.2070   76.9719   88.8445 C   0  0  0  0  0  0  0  0  0  0  0  0
   67.0126   75.8367   88.0618 O   0  0  0  0  0  0  0  0  0  0  0  0
   71.1597   79.6947   90.2280 C   0  0  0  0  0  0  0  0  0  0  0  0
   70.2421   80.9112   90.0205 C   0  0  0  0  0  0  0  0  0  0  0  0
   71.0134   82.1294   89.5426 C   0  0  0  0  0  0  0  0  0  0  0  0
   72.3175   82.3017   90.0402 C   0  0  0  0  0  0  0  0  0  0  0  0
   73.1212   83.3520   89.6032 C   0  0  0  0  0  0  0  0  0  0  0  0
   72.6492   84.2465   88.6477 C   0  0  0  0  0  0  0  0  0  0  0  0
   71.3604   84.1013   88.1189 C   0  0  0  0  0  0  0  0  0  0  0  0
   70.9080   84.9970   87.1372 C   0  0  0  0  0  0  0  0  0  0  0  0
   69.6339   84.8568   86.5894 C   0  0  0  0  0  0  0  0  0  0  0  0
   68.7979   83.8287   87.0195 C   0  0  0  0  0  0  0  0  0  0  0  0
   69.2279   82.9324   88.0003 C   0  0  0  0  0  0  0  0  0  0  0  0
   70.5192   83.0433   88.5655 C   0  0  0  0  0  0  0  0  0  0  0  0
  8  9  2  0
  9 10  1  0
  9  1  1  0
  1  2  2  0
  2  3  1  0
  3 11  1  0
 11 12  1  0
 12 13  1  0
 13 14  2  0
 14 15  1  0
 15 16  2  0
 16 17  1  0
 17 18  2  0
 18 19  1  0
 19 20  2  0
 20 21  1  0
 21 22  2  0
  3  4  2  0
  4  5  1  0
  5  6  2  0
  6  7  1  0
  6  1  1  0
 22 13  1  0
 22 17  1  0
M  END
>  <Activity>  (40) 
-0.401787

>  <minimizedAffinity>  (40) 
-8.25289

>  <MorganFP>  (40) 
<rdkit.DataStructs.cDataStructs.ExplicitBitVect object at 0x7f21e41bc970>

$$$$
HIPS6933
     RDKit          3D

 34 38  0  0  0  0  0  0  0  0999 V2000
   66.8611   78.6023   87.3682 N   0  0  0  0  0  0  0  0  0  0  0  0
   67.6339   77.6280   87.7533 C   0  0  0  0  0  0  0  0  0  0  0  0
   68.4430   77.6779   88.9853 C   0  0  0  0  0  0  0  0  0  0  0  0
   69.0948   78.7975   89.4889 C   0  0  0  0  0  0  0  0  0  0  0  0
   69.7733   78.4801   90.6155 N   0  0  0  0  0  0  0  0  0  0  0  0
   69.5382   77.1750   90.8379 C   0  0  0  0  0  0  0  0  0  0  0  0
   70.0317   76.3948   91.8825 C   0  0  0  0  0  0  0  0  0  0  0  0
   69.6450   75.0322   91.9381 C   0  0  0  0  0  0  0  0  0  0  0  0
   68.7642   74.5158   90.9603 C   0  0  0  0  0  0  0  0  0  0  0  0
   68.2883   75.3269   89.9166 C   0  0  0  0  0  0  0  0  0  0  0  0
   68.7150   76.6538   89.8750 C   0  0  0  0  0  0  0  0  0  0  0  0
   70.1038   74.1597   92.9371 O   0  0  0  0  0  0  0  0  0  0  0  0
   69.3634   73.0631   93.4726 C   0  0  0  0  0  0  0  0  0  0  0  0
   68.1261   73.5495   94.1802 C   0  0  0  0  0  0  0  0  0  0  0  0
   68.2180   74.1553   95.4446 C   0  0  0  0  0  0  0  0  0  0  0  0
   67.0682   74.6346   96.0805 C   0  0  0  0  0  0  0  0  0  0  0  0
   65.8225   74.5170   95.4584 C   0  0  0  0  0  0  0  0  0  0  0  0
   65.7225   73.9142   94.2017 C   0  0  0  0  0  0  0  0  0  0  0  0
   66.8697   73.4356   93.5614 C   0  0  0  0  0  0  0  0  0  0  0  0
   67.6147   81.1409   86.5094 O   0  0  0  0  0  0  0  0  0  0  0  0
   67.0853   81.0418   87.6487 C   0  0  0  0  0  0  0  0  0  0  0  0
   66.6395   79.7679   88.1230 N   0  0  0  0  0  0  0  0  0  0  0  0
   66.9971   82.2488   88.5321 C   0  0  0  0  0  0  0  0  0  0  0  0
   68.2961   82.5890   89.0097 O   0  0  0  0  0  0  0  0  0  0  0  0
   69.1671   83.5060   88.4003 C   0  0  0  0  0  0  0  0  0  0  0  0
   68.7113   84.4373   87.4475 C   0  0  0  0  0  0  0  0  0  0  0  0
   69.5981   85.3400   86.8577 C   0  0  0  0  0  0  0  0  0  0  0  0
   70.9483   85.3344   87.2091 C   0  0  0  0  0  0  0  0  0  0  0  0
   71.4258   84.4191   88.1570 C   0  0  0  0  0  0  0  0  0  0  0  0
   72.7822   84.4144   88.5187 C   0  0  0  0  0  0  0  0  0  0  0  0
   73.2562   83.4957   89.4579 C   0  0  0  0  0  0  0  0  0  0  0  0
   72.3859   82.5706   90.0362 C   0  0  0  0  0  0  0  0  0  0  0  0
   71.0320   82.5665   89.6908 C   0  0  0  0  0  0  0  0  0  0  0  0
   70.5332   83.4922   88.7540 C   0  0  0  0  0  0  0  0  0  0  0  0
 20 21  2  0
 21 23  1  0
 23 24  1  0
 24 25  1  0
 25 26  2  0
 26 27  1  0
 27 28  2  0
 28 29  1  0
 29 30  2  0
 30 31  1  0
 31 32  2  0
 32 33  1  0
 33 34  2  0
 21 22  1  0
 22  1  1  0
  1  2  2  0
  2  3  1  0
  3  4  2  0
  4  5  1  0
  5  6  1  0
  6  7  2  0
  7  8  1  0
  8 12  1  0
 12 13  1  0
 13 14  1  0
 14 15  2  0
 15 16  1  0
 16 17  2  0
 17 18  1  0
 18 19  2  0
  8  9  2  0
  9 10  1  0
 10 11  2  0
 34 25  1  0
 11  3  1  0
 34 29  1  0
 11  6  1  0
 19 14  1  0
M  END
>  <Activity>  (41) 
0.769153

>  <minimizedAffinity>  (41) 
-9.75721

>  <MorganFP>  (41) 
<rdkit.DataStructs.cDataStructs.ExplicitBitVect object at 0x7f21e41bcb30>

$$$$
HIPS6933
     RDKit          3D

 34 38  0  0  0  0  0  0  0  0999 V2000
   66.5846   78.1880   87.9740 N   0  0  0  0  0  0  0  0  0  0  0  0
   67.3741   77.1776   88.1989 C   0  0  0  0  0  0  0  0  0  0  0  0
   68.4131   77.1821   89.2455 C   0  0  0  0  0  0  0  0  0  0  0  0
   69.3407   78.1925   89.4705 C   0  0  0  0  0  0  0  0  0  0  0  0
   70.1676   77.8547   90.4865 N   0  0  0  0  0  0  0  0  0  0  0  0
   69.7566   76.6491   90.9175 C   0  0  0  0  0  0  0  0  0  0  0  0
   70.3072   75.8888   91.9481 C   0  0  0  0  0  0  0  0  0  0  0  0
   69.7060   74.6415   92.2517 C   0  0  0  0  0  0  0  0  0  0  0  0
   68.5676   74.2202   91.5271 C   0  0  0  0  0  0  0  0  0  0  0  0
   68.0396   75.0072   90.4901 C   0  0  0  0  0  0  0  0  0  0  0  0
   68.6758   76.2131   90.1975 C   0  0  0  0  0  0  0  0  0  0  0  0
   70.1976   73.7937   93.2563 O   0  0  0  0  0  0  0  0  0  0  0  0
   69.6318   72.5337   93.6168 C   0  0  0  0  0  0  0  0  0  0  0  0
   70.3556   71.4071   92.9277 C   0  0  0  0  0  0  0  0  0  0  0  0
   69.7502   70.7120   91.8673 C   0  0  0  0  0  0  0  0  0  0  0  0
   70.4418   69.6891   91.2104 C   0  0  0  0  0  0  0  0  0  0  0  0
   71.7409   69.3568   91.6035 C   0  0  0  0  0  0  0  0  0  0  0  0
   72.3493   70.0421   92.6583 C   0  0  0  0  0  0  0  0  0  0  0  0
   71.6623   71.0669   93.3163 C   0  0  0  0  0  0  0  0  0  0  0  0
   67.3996   80.6729   87.0196 O   0  0  0  0  0  0  0  0  0  0  0  0
   67.0388   80.5986   88.2247 C   0  0  0  0  0  0  0  0  0  0  0  0
   66.5696   79.3562   88.7566 N   0  0  0  0  0  0  0  0  0  0  0  0
   67.1776   81.7959   89.1148 C   0  0  0  0  0  0  0  0  0  0  0  0
   68.2384   82.6229   88.6435 O   0  0  0  0  0  0  0  0  0  0  0  0
   69.5648   82.5756   89.1009 C   0  0  0  0  0  0  0  0  0  0  0  0
   70.0056   81.5744   89.9875 C   0  0  0  0  0  0  0  0  0  0  0  0
   71.3309   81.5487   90.4258 C   0  0  0  0  0  0  0  0  0  0  0  0
   72.2381   82.5132   89.9863 C   0  0  0  0  0  0  0  0  0  0  0  0
   71.8244   83.5183   89.1015 C   0  0  0  0  0  0  0  0  0  0  0  0
   72.7355   84.4868   88.6513 C   0  0  0  0  0  0  0  0  0  0  0  0
   72.3179   85.4917   87.7757 C   0  0  0  0  0  0  0  0  0  0  0  0
   70.9899   85.5446   87.3498 C   0  0  0  0  0  0  0  0  0  0  0  0
   70.0725   84.5845   87.7846 C   0  0  0  0  0  0  0  0  0  0  0  0
   70.4773   83.5572   88.6588 C   0  0  0  0  0  0  0  0  0  0  0  0
 20 21  2  0
 21 23  1  0
 23 24  1  0
 24 25  1  0
 25 26  2  0
 26 27  1  0
 27 28  2  0
 28 29  1  0
 29 30  2  0
 30 31  1  0
 31 32  2  0
 32 33  1  0
 33 34  2  0
 21 22  1  0
 22  1  1  0
  1  2  2  0
  2  3  1  0
  3  4  2  0
  4  5  1  0
  5  6  1  0
  6  7  2  0
  7  8  1  0
  8 12  1  0
 12 13  1  0
 13 14  1  0
 14 15  2  0
 15 16  1  0
 16 17  2  0
 17 18  1  0
 18 19  2  0
  8  9  2  0
  9 10  1  0
 10 11  2  0
 34 25  1  0
 11  3  1  0
 34 29  1  0
 11  6  1  0
 19 14  1  0
M  END
>  <Activity>  (42) 
0.769153

>  <minimizedAffinity>  (42) 
-9.13934

>  <MorganFP>  (42) 
<rdkit.DataStructs.cDataStructs.ExplicitBitVect object at 0x7f21e41bcc10>

$$$$
HIPS6968
     RDKit          3D

 23 25  0  0  0  0  0  0  0  0999 V2000
   67.1510   78.1012   92.1926 O   0  0  0  0  0  0  0  0  0  0  0  0
   67.7782   74.8167   94.7863 C   0  0  0  0  0  0  0  0  0  0  0  0
   66.5696   74.9315   94.0747 C   0  0  0  0  0  0  0  0  0  0  0  0
   66.3460   76.0055   93.2108 C   0  0  0  0  0  0  0  0  0  0  0  0
   67.3278   76.9956   93.0405 C   0  0  0  0  0  0  0  0  0  0  0  0
   68.5325   76.8855   93.7396 C   0  0  0  0  0  0  0  0  0  0  0  0
   68.7669   75.8108   94.6102 C   0  0  0  0  0  0  0  0  0  0  0  0
   69.9791   75.7411   95.2961 O   0  0  0  0  0  0  0  0  0  0  0  0
   67.0634   73.3013   96.4818 O   0  0  0  0  0  0  0  0  0  0  0  0
   67.9836   73.6620   95.6988 C   0  0  0  0  0  0  0  0  0  0  0  0
   69.1862   72.9608   95.7065 O   0  0  0  0  0  0  0  0  0  0  0  0
   67.4381   78.1234   90.7938 C   0  0  0  0  0  0  0  0  0  0  0  0
   68.8631   78.5453   90.5494 C   0  0  0  0  0  0  0  0  0  0  0  0
   69.9050   77.6093   90.6170 C   0  0  0  0  0  0  0  0  0  0  0  0
   71.2231   78.0090   90.3932 C   0  0  0  0  0  0  0  0  0  0  0  0
   71.5147   79.3452   90.1096 C   0  0  0  0  0  0  0  0  0  0  0  0
   70.4864   80.3035   90.0505 C   0  0  0  0  0  0  0  0  0  0  0  0
   69.1602   79.8906   90.2784 C   0  0  0  0  0  0  0  0  0  0  0  0
   70.7934   81.7255   89.7506 C   0  0  0  0  0  0  0  0  0  0  0  0
   72.0646   82.3043   89.9299 C   0  0  0  0  0  0  0  0  0  0  0  0
   72.1231   83.6471   89.5868 C   0  0  0  0  0  0  0  0  0  0  0  0
   70.6015   84.1191   89.0602 S   0  0  0  0  0  0  0  0  0  0  0  0
   69.8503   82.6307   89.2628 C   0  0  0  0  0  0  0  0  0  0  0  0
  9 10  2  0
 10 11  1  0
 10  2  1  0
  2  3  2  0
  3  4  1  0
  4  5  2  0
  5  1  1  0
  1 12  1  0
 12 13  1  0
 13 14  2  0
 14 15  1  0
 15 16  2  0
 16 17  1  0
 17 19  1  0
 19 20  1  0
 20 21  2  0
 21 22  1  0
 22 23  1  0
 17 18  2  0
  5  6  1  0
  6  7  2  0
  7  8  1  0
  7  2  1  0
 18 13  1  0
 23 19  2  0
M  END
>  <Activity>  (43) 
-0.059906

>  <minimizedAffinity>  (43) 
-7.56889

>  <MorganFP>  (43) 
<rdkit.DataStructs.cDataStructs.ExplicitBitVect object at 0x7f21e41bcc80>

$$$$
HIPS6968
     RDKit          3D

 23 25  0  0  0  0  0  0  0  0999 V2000
   70.8619   76.5700   92.6386 O   0  0  0  0  0  0  0  0  0  0  0  0
   67.6366   74.5350   94.4728 C   0  0  0  0  0  0  0  0  0  0  0  0
   67.7114   75.9387   94.5370 C   0  0  0  0  0  0  0  0  0  0  0  0
   68.7654   76.6283   93.9341 C   0  0  0  0  0  0  0  0  0  0  0  0
   69.7750   75.9275   93.2537 C   0  0  0  0  0  0  0  0  0  0  0  0
   69.7045   74.5340   93.1812 C   0  0  0  0  0  0  0  0  0  0  0  0
   68.6502   73.8316   93.7838 C   0  0  0  0  0  0  0  0  0  0  0  0
   68.6199   72.4402   93.6962 O   0  0  0  0  0  0  0  0  0  0  0  0
   66.6975   73.1411   96.1631 O   0  0  0  0  0  0  0  0  0  0  0  0
   66.5023   73.8318   95.1265 C   0  0  0  0  0  0  0  0  0  0  0  0
   65.2120   73.9218   94.6115 O   0  0  0  0  0  0  0  0  0  0  0  0
   71.0573   76.6955   91.2295 C   0  0  0  0  0  0  0  0  0  0  0  0
   70.2089   77.8076   90.6713 C   0  0  0  0  0  0  0  0  0  0  0  0
   68.8713   77.5760   90.3202 C   0  0  0  0  0  0  0  0  0  0  0  0
   68.0930   78.6108   89.7998 C   0  0  0  0  0  0  0  0  0  0  0  0
   68.6433   79.8814   89.6164 C   0  0  0  0  0  0  0  0  0  0  0  0
   69.9870   80.1323   89.9489 C   0  0  0  0  0  0  0  0  0  0  0  0
   70.7641   79.0819   90.4725 C   0  0  0  0  0  0  0  0  0  0  0  0
   70.5757   81.4821   89.7537 C   0  0  0  0  0  0  0  0  0  0  0  0
   71.8754   81.8338   90.1660 C   0  0  0  0  0  0  0  0  0  0  0  0
   72.2171   83.1483   89.8834 C   0  0  0  0  0  0  0  0  0  0  0  0
   70.9110   83.8761   89.1220 S   0  0  0  0  0  0  0  0  0  0  0  0
   69.8969   82.5374   89.1436 C   0  0  0  0  0  0  0  0  0  0  0  0
  9 10  2  0
 10 11  1  0
 10  2  1  0
  2  3  2  0
  3  4  1  0
  4  5  2  0
  5  1  1  0
  1 12  1  0
 12 13  1  0
 13 14  2  0
 14 15  1  0
 15 16  2  0
 16 17  1  0
 17 19  1  0
 19 20  1  0
 20 21  2  0
 21 22  1  0
 22 23  1  0
 17 18  2  0
  5  6  1  0
  6  7  2  0
  7  8  1  0
  7  2  1  0
 18 13  1  0
 23 19  2  0
M  END
>  <Activity>  (44) 
-0.059906

>  <minimizedAffinity>  (44) 
-7.49839

>  <MorganFP>  (44) 
<rdkit.DataStructs.cDataStructs.ExplicitBitVect object at 0x7f21e41bccf0>

$$$$
HIPS6968
     RDKit          3D

 23 25  0  0  0  0  0  0  0  0999 V2000
   68.5698   77.1415   91.2591 O   0  0  0  0  0  0  0  0  0  0  0  0
   67.3797   75.1609   94.8044 C   0  0  0  0  0  0  0  0  0  0  0  0
   66.4099   75.7074   93.9435 C   0  0  0  0  0  0  0  0  0  0  0  0
   66.7828   76.3605   92.7670 C   0  0  0  0  0  0  0  0  0  0  0  0
   68.1393   76.4862   92.4244 C   0  0  0  0  0  0  0  0  0  0  0  0
   69.1076   75.9414   93.2715 C   0  0  0  0  0  0  0  0  0  0  0  0
   68.7436   75.2837   94.4560 C   0  0  0  0  0  0  0  0  0  0  0  0
   69.7403   74.7606   95.2791 O   0  0  0  0  0  0  0  0  0  0  0  0
   67.2621   73.2683   96.2488 O   0  0  0  0  0  0  0  0  0  0  0  0
   66.9491   74.4734   96.0495 C   0  0  0  0  0  0  0  0  0  0  0  0
   66.1984   75.1413   97.0130 O   0  0  0  0  0  0  0  0  0  0  0  0
   68.0407   76.9301   89.9495 C   0  0  0  0  0  0  0  0  0  0  0  0
   67.8224   75.4620   89.6941 C   0  0  0  0  0  0  0  0  0  0  0  0
   66.9599   75.0368   88.6736 C   0  0  0  0  0  0  0  0  0  0  0  0
   66.7599   73.6746   88.4459 C   0  0  0  0  0  0  0  0  0  0  0  0
   67.4099   72.7258   89.2385 C   0  0  0  0  0  0  0  0  0  0  0  0
   68.2688   73.1303   90.2767 C   0  0  0  0  0  0  0  0  0  0  0  0
   68.4635   74.5066   90.4989 C   0  0  0  0  0  0  0  0  0  0  0  0
   68.9604   72.1238   91.1223 C   0  0  0  0  0  0  0  0  0  0  0  0
   69.1319   72.2586   92.5135 C   0  0  0  0  0  0  0  0  0  0  0  0
   69.8079   71.1991   93.1007 C   0  0  0  0  0  0  0  0  0  0  0  0
   70.1929   70.0938   91.8984 S   0  0  0  0  0  0  0  0  0  0  0  0
   69.5114   70.9443   90.6205 C   0  0  0  0  0  0  0  0  0  0  0  0
  9 10  2  0
 10 11  1  0
 10  2  1  0
  2  3  2  0
  3  4  1  0
  4  5  2  0
  5  1  1  0
  1 12  1  0
 12 13  1  0
 13 14  2  0
 14 15  1  0
 15 16  2  0
 16 17  1  0
 17 19  1  0
 19 20  1  0
 20 21  2  0
 21 22  1  0
 22 23  1  0
 17 18  2  0
  5  6  1  0
  6  7  2  0
  7  8  1  0
  7  2  1  0
 18 13  1  0
 23 19  2  0
M  END
>  <Activity>  (45) 
-0.059906

>  <minimizedAffinity>  (45) 
-7.39418

>  <MorganFP>  (45) 
<rdkit.DataStructs.cDataStructs.ExplicitBitVect object at 0x7f21e41bcd60>

$$$$
HIPS6978
     RDKit          3D

 33 38  0  0  0  0  0  0  0  0999 V2000
   68.6998   78.1628   89.2412 C   0  0  0  0  0  0  0  0  0  0  0  0
   69.5876   79.1041   89.6811 C   0  0  0  0  0  0  0  0  0  0  0  0
   70.3123   78.5498   90.6692 N   0  0  0  0  0  0  0  0  0  0  0  0
   69.9509   77.2795   90.9120 C   0  0  0  0  0  0  0  0  0  0  0  0
   70.3915   76.3173   91.8106 C   0  0  0  0  0  0  0  0  0  0  0  0
   69.8410   75.0595   91.8583 C   0  0  0  0  0  0  0  0  0  0  0  0
   68.8010   74.8009   90.9417 C   0  0  0  0  0  0  0  0  0  0  0  0
   68.3832   75.7599   90.0678 C   0  0  0  0  0  0  0  0  0  0  0  0
   68.9397   77.0239   90.0225 C   0  0  0  0  0  0  0  0  0  0  0  0
   66.9401   79.1535   88.0124 N   0  0  0  0  0  0  0  0  0  0  0  0
   67.6772   78.1563   88.2229 C   0  0  0  0  0  0  0  0  0  0  0  0
   67.5315   81.4164   86.7320 O   0  0  0  0  0  0  0  0  0  0  0  0
   67.3213   81.5550   87.9623 C   0  0  0  0  0  0  0  0  0  0  0  0
   66.9964   80.3365   88.6862 N   0  0  0  0  0  0  0  0  0  0  0  0
   67.3870   82.8478   88.6760 C   0  0  0  0  0  0  0  0  0  0  0  0
   68.5079   83.7462   88.2238 C   0  0  2  0  0  0  0  0  0  0  0  0
   68.6648   84.8944   89.2453 C   0  0  0  0  0  0  0  0  0  0  0  0
   69.8557   85.7128   88.8797 C   0  0  1  0  0  0  0  0  0  0  0  0
   71.1386   84.9074   88.8673 C   0  0  0  0  0  0  0  0  0  0  0  0
   70.9877   83.8045   87.8699 C   0  0  2  0  0  0  0  0  0  0  0  0
   70.7087   84.3620   86.4985 C   0  0  0  0  0  0  0  0  0  0  0  0
   69.4806   85.2105   86.5330 C   0  0  2  0  0  0  0  0  0  0  0  0
   69.6807   86.3410   87.5194 C   0  0  0  0  0  0  0  0  0  0  0  0
   68.2512   84.3954   86.9043 C   0  0  0  0  0  0  0  0  0  0  0  0
   69.7979   82.9495   88.2565 C   0  0  0  0  0  0  0  0  0  0  0  0
   70.2225   74.0794   92.7037 O   0  0  0  0  0  0  0  0  0  0  0  0
   69.6959   73.1846   93.5556 C   0  0  0  0  0  0  0  0  0  0  0  0
   68.4200   73.6133   94.1743 C   0  0  0  0  0  0  0  0  0  0  0  0
   68.3609   74.3249   95.3398 C   0  0  0  0  0  0  0  0  0  0  0  0
   67.1170   74.6807   95.8628 C   0  0  0  0  0  0  0  0  0  0  0  0
   65.9430   74.3366   95.2391 C   0  0  0  0  0  0  0  0  0  0  0  0
   65.9827   73.6251   94.0721 C   0  0  0  0  0  0  0  0  0  0  0  0
   67.2167   73.2691   93.5487 C   0  0  0  0  0  0  0  0  0  0  0  0
 12 13  2  0
 13 15  1  0
 16 15  1  1
 16 17  1  0
 18 17  1  6
 18 19  1  0
 20 19  1  1
 20 21  1  0
 22 21  1  1
 22 23  1  0
 22 24  1  0
 20 25  1  0
 13 14  1  0
 14 10  1  0
 10 11  2  0
 11  1  1  0
  1  2  2  0
  2  3  1  0
  3  4  1  0
  4  5  2  0
  5  6  1  0
  6 26  1  0
 26 27  1  0
 27 28  1  0
 28 29  2  0
 29 30  1  0
 30 31  2  0
 31 32  1  0
 32 33  2  0
  6  7  2  0
  7  8  1  0
  8  9  2  0
 24 16  1  0
  9  1  1  0
 25 16  1  0
  9  4  1  0
 23 18  1  0
 33 28  1  0
M  END
>  <Activity>  (46) 
0.877782

>  <minimizedAffinity>  (46) 
-9.60277

>  <MorganFP>  (46) 
<rdkit.DataStructs.cDataStructs.ExplicitBitVect object at 0x7f21e41bcf20>

$$$$
HIPS6978
     RDKit          3D

 33 38  0  0  0  0  0  0  0  0999 V2000
   66.7266   77.7803   89.2859 C   0  0  0  0  0  0  0  0  0  0  0  0
   66.7289   77.9552   90.6412 C   0  0  0  0  0  0  0  0  0  0  0  0
   66.9147   79.2652   90.8823 N   0  0  0  0  0  0  0  0  0  0  0  0
   67.0372   79.9769   89.7503 C   0  0  0  0  0  0  0  0  0  0  0  0
   67.2377   81.3255   89.4879 C   0  0  0  0  0  0  0  0  0  0  0  0
   67.3302   81.8118   88.2064 C   0  0  0  0  0  0  0  0  0  0  0  0
   67.2102   80.8621   87.1709 C   0  0  0  0  0  0  0  0  0  0  0  0
   67.0139   79.5425   87.4502 C   0  0  0  0  0  0  0  0  0  0  0  0
   66.9211   79.0570   88.7406 C   0  0  0  0  0  0  0  0  0  0  0  0
   67.1657   75.5427   88.6628 N   0  0  0  0  0  0  0  0  0  0  0  0
   66.5749   76.6284   88.4299 C   0  0  0  0  0  0  0  0  0  0  0  0
   67.5635   73.0571   89.5422 O   0  0  0  0  0  0  0  0  0  0  0  0
   68.1987   73.9389   90.1714 C   0  0  0  0  0  0  0  0  0  0  0  0
   68.0005   75.3046   89.7130 N   0  0  0  0  0  0  0  0  0  0  0  0
   69.1004   73.6608   91.3092 C   0  0  0  0  0  0  0  0  0  0  0  0
   68.6113   74.1953   92.6294 C   0  0  2  0  0  0  0  0  0  0  0  0
   69.4588   73.5719   93.7605 C   0  0  0  0  0  0  0  0  0  0  0  0
   69.0727   74.1941   95.0587 C   0  0  1  0  0  0  0  0  0  0  0  0
   69.2848   75.6940   95.0755 C   0  0  0  0  0  0  0  0  0  0  0  0
   68.4547   76.2950   93.9877 C   0  0  2  0  0  0  0  0  0  0  0  0
   66.9973   75.9721   94.1905 C   0  0  0  0  0  0  0  0  0  0  0  0
   66.8049   74.4924   94.2412 C   0  0  2  0  0  0  0  0  0  0  0  0
   67.6240   73.9197   95.3779 C   0  0  0  0  0  0  0  0  0  0  0  0
   67.1931   73.8353   92.9254 C   0  0  0  0  0  0  0  0  0  0  0  0
   68.8671   75.6897   92.6611 C   0  0  0  0  0  0  0  0  0  0  0  0
   67.5221   83.1076   87.8825 O   0  0  0  0  0  0  0  0  0  0  0  0
   68.0419   83.8628   86.9011 C   0  0  0  0  0  0  0  0  0  0  0  0
   69.3586   84.4588   87.2263 C   0  0  0  0  0  0  0  0  0  0  0  0
   69.5190   85.7779   87.5463 C   0  0  0  0  0  0  0  0  0  0  0  0
   70.7964   86.2636   87.8290 C   0  0  0  0  0  0  0  0  0  0  0  0
   71.9042   85.4527   87.7961 C   0  0  0  0  0  0  0  0  0  0  0  0
   71.7627   84.1303   87.4783 C   0  0  0  0  0  0  0  0  0  0  0  0
   70.4951   83.6433   87.1963 C   0  0  0  0  0  0  0  0  0  0  0  0
 12 13  2  0
 13 15  1  0
 16 15  1  6
 16 17  1  0
 18 17  1  6
 18 19  1  0
 20 19  1  1
 20 21  1  0
 22 21  1  6
 22 23  1  0
 22 24  1  0
 20 25  1  0
 13 14  1  0
 14 10  1  0
 10 11  2  0
 11  1  1  0
  1  2  2  0
  2  3  1  0
  3  4  1  0
  4  5  2  0
  5  6  1  0
  6 26  1  0
 26 27  1  0
 27 28  1  0
 28 29  2  0
 29 30  1  0
 30 31  2  0
 31 32  1  0
 32 33  2  0
  6  7  2  0
  7  8  1  0
  8  9  2  0
 24 16  1  0
  9  1  1  0
 25 16  1  0
  9  4  1  0
 23 18  1  0
 33 28  1  0
M  END
>  <Activity>  (47) 
0.877782

>  <minimizedAffinity>  (47) 
-9.17899

>  <MorganFP>  (47) 
<rdkit.DataStructs.cDataStructs.ExplicitBitVect object at 0x7f21e41bcf90>

$$$$
HIPS6978
     RDKit          3D

 33 38  0  0  0  0  0  0  0  0999 V2000
   68.9476   78.1229   89.4157 C   0  0  0  0  0  0  0  0  0  0  0  0
   69.9586   78.9763   89.7581 C   0  0  0  0  0  0  0  0  0  0  0  0
   70.6814   78.3838   90.7252 N   0  0  0  0  0  0  0  0  0  0  0  0
   70.2012   77.1718   91.0470 C   0  0  0  0  0  0  0  0  0  0  0  0
   70.5923   76.2022   91.9605 C   0  0  0  0  0  0  0  0  0  0  0  0
   69.9130   75.0161   92.0986 C   0  0  0  0  0  0  0  0  0  0  0  0
   68.7941   74.8391   91.2588 C   0  0  0  0  0  0  0  0  0  0  0  0
   68.4269   75.8038   90.3687 C   0  0  0  0  0  0  0  0  0  0  0  0
   69.1128   76.9956   90.2324 C   0  0  0  0  0  0  0  0  0  0  0  0
   67.1891   79.2369   88.2958 N   0  0  0  0  0  0  0  0  0  0  0  0
   67.8666   78.1903   88.4621 C   0  0  0  0  0  0  0  0  0  0  0  0
   67.0606   81.5651   87.0022 O   0  0  0  0  0  0  0  0  0  0  0  0
   67.2930   81.6660   88.2323 C   0  0  0  0  0  0  0  0  0  0  0  0
   67.3685   80.4112   88.9632 N   0  0  0  0  0  0  0  0  0  0  0  0
   67.4850   82.9500   88.9390 C   0  0  0  0  0  0  0  0  0  0  0  0
   68.6453   83.7656   88.4329 C   0  0  2  0  0  0  0  0  0  0  0  0
   68.2233   84.4673   87.1230 C   0  0  0  0  0  0  0  0  0  0  0  0
   69.3165   85.3810   86.6852 C   0  0  1  0  0  0  0  0  0  0  0  0
   69.6374   86.4456   87.7141 C   0  0  0  0  0  0  0  0  0  0  0  0
   70.0564   85.7636   88.9763 C   0  0  2  0  0  0  0  0  0  0  0  0
   71.2607   84.8915   88.7352 C   0  0  0  0  0  0  0  0  0  0  0  0
   70.9592   83.8881   87.6714 C   0  0  2  0  0  0  0  0  0  0  0  0
   70.5801   84.6095   86.3959 C   0  0  0  0  0  0  0  0  0  0  0  0
   69.8453   82.9437   88.0967 C   0  0  0  0  0  0  0  0  0  0  0  0
   68.9343   84.8587   89.4436 C   0  0  0  0  0  0  0  0  0  0  0  0
   70.2402   74.0332   92.9633 O   0  0  0  0  0  0  0  0  0  0  0  0
   69.7543   72.8800   93.4510 C   0  0  0  0  0  0  0  0  0  0  0  0
   70.3341   71.6663   92.8305 C   0  0  0  0  0  0  0  0  0  0  0  0
   71.4887   71.0839   93.2733 C   0  0  0  0  0  0  0  0  0  0  0  0
   71.9747   69.9473   92.6256 C   0  0  0  0  0  0  0  0  0  0  0  0
   71.3252   69.3919   91.5507 C   0  0  0  0  0  0  0  0  0  0  0  0
   70.1687   69.9608   91.0940 C   0  0  0  0  0  0  0  0  0  0  0  0
   69.6820   71.0906   91.7345 C   0  0  0  0  0  0  0  0  0  0  0  0
 12 13  2  0
 13 15  1  0
 16 15  1  1
 16 17  1  0
 18 17  1  1
 18 19  1  0
 20 19  1  6
 20 21  1  0
 22 21  1  1
 22 23  1  0
 22 24  1  0
 20 25  1  0
 13 14  1  0
 14 10  1  0
 10 11  2  0
 11  1  1  0
  1  2  2  0
  2  3  1  0
  3  4  1  0
  4  5  2  0
  5  6  1  0
  6 26  1  0
 26 27  1  0
 27 28  1  0
 28 29  2  0
 29 30  1  0
 30 31  2  0
 31 32  1  0
 32 33  2  0
  6  7  2  0
  7  8  1  0
  8  9  2  0
 24 16  1  0
  9  1  1  0
 25 16  1  0
  9  4  1  0
 23 18  1  0
 33 28  1  0
M  END
>  <Activity>  (48) 
0.877782

>  <minimizedAffinity>  (48) 
-9.06939

>  <MorganFP>  (48) 
<rdkit.DataStructs.cDataStructs.ExplicitBitVect object at 0x7f21e41bd040>

$$$$
HIPS6983
     RDKit          3D

 30 33  0  0  0  0  0  0  0  0999 V2000
   68.4019   79.0140   89.2642 C   0  0  0  0  0  0  0  0  0  0  0  0
   67.5544   79.6255   88.3638 C   0  0  0  0  0  0  0  0  0  0  0  0
   66.6457   78.8654   87.6377 C   0  0  0  0  0  0  0  0  0  0  0  0
   66.5922   77.4993   87.8181 C   0  0  0  0  0  0  0  0  0  0  0  0
   67.4295   76.8656   88.7126 C   0  0  0  0  0  0  0  0  0  0  0  0
   68.3196   77.6436   89.4183 C   0  0  0  0  0  0  0  0  0  0  0  0
   67.4007   75.4238   88.9294 C   0  0  0  0  0  0  0  0  0  0  0  0
   67.9179   74.9449   90.1125 C   0  0  0  0  0  0  0  0  0  0  0  0
   67.9133   73.5888   90.3648 C   0  0  0  0  0  0  0  0  0  0  0  0
   67.3863   72.7415   89.4172 C   0  0  0  0  0  0  0  0  0  0  0  0
   66.8693   73.2228   88.2342 C   0  0  0  0  0  0  0  0  0  0  0  0
   66.8814   74.5748   87.9984 C   0  0  0  0  0  0  0  0  0  0  0  0
   66.2933   72.2830   87.2160 C   0  0  0  0  0  0  0  0  0  0  0  0
   67.2926   71.6426   86.4259 N   0  0  0  0  0  0  0  0  0  0  0  0
   67.1769   71.7706   85.0144 C   0  0  0  0  0  0  0  0  0  0  0  0
   67.5597   70.4506   84.3859 C   0  0  0  0  0  0  0  0  0  0  0  0
   68.2703   69.7284   85.4976 C   0  0  0  0  0  0  0  0  0  0  0  0
   67.5416   70.2694   86.7331 C   0  0  0  0  0  0  0  0  0  0  0  0
   69.3823   79.8084   90.0517 C   0  0  0  0  0  0  0  0  0  0  0  0
   68.9257   81.1685   89.9850 O   0  0  0  0  0  0  0  0  0  0  0  0
   70.2425   84.0567   88.1361 C   0  0  0  0  0  0  0  0  0  0  0  0
   69.3571   83.1199   88.6123 C   0  0  0  0  0  0  0  0  0  0  0  0
   69.7726   82.1372   89.4741 C   0  0  0  0  0  0  0  0  0  0  0  0
   71.1072   82.0924   89.8681 C   0  0  0  0  0  0  0  0  0  0  0  0
   72.0162   83.0170   89.4077 C   0  0  0  0  0  0  0  0  0  0  0  0
   71.5463   83.9834   88.5435 C   0  0  0  0  0  0  0  0  0  0  0  0
   72.4325   84.9517   88.0436 O   0  0  0  0  0  0  0  0  0  0  0  0
   68.9199   85.9167   87.5783 O   0  0  0  0  0  0  0  0  0  0  0  0
   69.8065   85.1125   87.2130 C   0  0  0  0  0  0  0  0  0  0  0  0
   70.3707   85.2177   85.9502 O   0  0  0  0  0  0  0  0  0  0  0  0
 28 29  2  0
 29 30  1  0
 29 21  1  0
 21 22  2  0
 22 23  1  0
 23 20  1  0
 20 19  1  0
 19  1  1  0
  1  2  2  0
  2  3  1  0
  3  4  2  0
  4  5  1  0
  5  7  1  0
  7  8  2  0
  8  9  1  0
  9 10  2  0
 10 11  1  0
 11 13  1  0
 13 14  1  0
 14 15  1  0
 15 16  1  0
 16 17  1  0
 17 18  1  0
 11 12  2  0
  5  6  2  0
 23 24  2  0
 24 25  1  0
 25 26  2  0
 26 27  1  0
 26 21  1  0
  6  1  1  0
 12  7  1  0
 18 14  1  0
M  END
>  <Activity>  (49) 
0.527388

>  <minimizedAffinity>  (49) 
-9.15212

>  <MorganFP>  (49) 
<rdkit.DataStructs.cDataStructs.ExplicitBitVect object at 0x7f21e41bd350>

$$$$
HIPS6983
     RDKit          3D

 30 33  0  0  0  0  0  0  0  0999 V2000
   69.9661   79.1247   90.1831 C   0  0  0  0  0  0  0  0  0  0  0  0
   71.2956   79.1682   90.5487 C   0  0  0  0  0  0  0  0  0  0  0  0
   71.9168   78.0301   91.0484 C   0  0  0  0  0  0  0  0  0  0  0  0
   71.2028   76.8575   91.1785 C   0  0  0  0  0  0  0  0  0  0  0  0
   69.8727   76.7899   90.8196 C   0  0  0  0  0  0  0  0  0  0  0  0
   69.2832   77.9326   90.3275 C   0  0  0  0  0  0  0  0  0  0  0  0
   69.0870   75.5675   90.9433 C   0  0  0  0  0  0  0  0  0  0  0  0
   68.2759   75.2195   89.8860 C   0  0  0  0  0  0  0  0  0  0  0  0
   67.5133   74.0721   89.9545 C   0  0  0  0  0  0  0  0  0  0  0  0
   67.5843   73.2975   91.0896 C   0  0  0  0  0  0  0  0  0  0  0  0
   68.3966   73.6475   92.1461 C   0  0  0  0  0  0  0  0  0  0  0  0
   69.1489   74.7923   92.0623 C   0  0  0  0  0  0  0  0  0  0  0  0
   68.4648   72.7861   93.3729 C   0  0  0  0  0  0  0  0  0  0  0  0
   67.5342   73.1804   94.3786 N   0  0  0  0  0  0  0  0  0  0  0  0
   66.2815   73.6856   93.9337 C   0  0  0  0  0  0  0  0  0  0  0  0
   65.8873   74.8342   94.8333 C   0  0  0  0  0  0  0  0  0  0  0  0
   66.7893   74.6685   96.0256 C   0  0  0  0  0  0  0  0  0  0  0  0
   68.0416   74.0604   95.3837 C   0  0  0  0  0  0  0  0  0  0  0  0
   69.2815   80.3310   89.6461 C   0  0  0  0  0  0  0  0  0  0  0  0
   69.8247   81.4442   90.3731 O   0  0  0  0  0  0  0  0  0  0  0  0
   70.4596   84.2844   88.1317 C   0  0  0  0  0  0  0  0  0  0  0  0
   69.7888   83.2881   88.7994 C   0  0  0  0  0  0  0  0  0  0  0  0
   70.4488   82.4631   89.6739 C   0  0  0  0  0  0  0  0  0  0  0  0
   71.8135   82.6409   89.8845 C   0  0  0  0  0  0  0  0  0  0  0  0
   72.5112   83.6299   89.2303 C   0  0  0  0  0  0  0  0  0  0  0  0
   71.8000   84.4313   88.3621 C   0  0  0  0  0  0  0  0  0  0  0  0
   72.4641   85.4563   87.6684 O   0  0  0  0  0  0  0  0  0  0  0  0
   68.7619   85.8147   87.5876 O   0  0  0  0  0  0  0  0  0  0  0  0
   69.7611   85.1725   87.1935 C   0  0  0  0  0  0  0  0  0  0  0  0
   70.2035   85.2985   85.8849 O   0  0  0  0  0  0  0  0  0  0  0  0
 28 29  2  0
 29 30  1  0
 29 21  1  0
 21 22  2  0
 22 23  1  0
 23 20  1  0
 20 19  1  0
 19  1  1  0
  1  2  2  0
  2  3  1  0
  3  4  2  0
  4  5  1  0
  5  7  1  0
  7  8  2  0
  8  9  1  0
  9 10  2  0
 10 11  1  0
 11 13  1  0
 13 14  1  0
 14 15  1  0
 15 16  1  0
 16 17  1  0
 17 18  1  0
 11 12  2  0
  5  6  2  0
 23 24  2  0
 24 25  1  0
 25 26  2  0
 26 27  1  0
 26 21  1  0
  6  1  1  0
 12  7  1  0
 18 14  1  0
M  END
>  <Activity>  (50) 
0.527388

>  <minimizedAffinity>  (50) 
-9.10792

>  <MorganFP>  (50) 
<rdkit.DataStructs.cDataStructs.ExplicitBitVect object at 0x7f21e41bd3c0>

$$$$
HIPS6983
     RDKit          3D

 30 33  0  0  0  0  0  0  0  0999 V2000
   69.2177   79.7734   90.1870 C   0  0  0  0  0  0  0  0  0  0  0  0
   70.5798   79.9905   90.2092 C   0  0  0  0  0  0  0  0  0  0  0  0
   71.4519   78.9204   90.3678 C   0  0  0  0  0  0  0  0  0  0  0  0
   70.9541   77.6415   90.5031 C   0  0  0  0  0  0  0  0  0  0  0  0
   69.5962   77.3999   90.4841 C   0  0  0  0  0  0  0  0  0  0  0  0
   68.7559   78.4788   90.3254 C   0  0  0  0  0  0  0  0  0  0  0  0
   69.0346   76.0613   90.6240 C   0  0  0  0  0  0  0  0  0  0  0  0
   68.1585   75.6311   89.6524 C   0  0  0  0  0  0  0  0  0  0  0  0
   67.6006   74.3725   89.7397 C   0  0  0  0  0  0  0  0  0  0  0  0
   67.9381   73.5720   90.8068 C   0  0  0  0  0  0  0  0  0  0  0  0
   68.8149   74.0044   91.7776 C   0  0  0  0  0  0  0  0  0  0  0  0
   69.3612   75.2593   91.6763 C   0  0  0  0  0  0  0  0  0  0  0  0
   69.1752   73.1139   92.9305 C   0  0  0  0  0  0  0  0  0  0  0  0
   68.1748   73.0912   93.9461 N   0  0  0  0  0  0  0  0  0  0  0  0
   66.8330   73.3176   93.5329 C   0  0  0  0  0  0  0  0  0  0  0  0
   66.1523   74.1694   94.5794 C   0  0  0  0  0  0  0  0  0  0  0  0
   67.0674   74.0588   95.7680 C   0  0  0  0  0  0  0  0  0  0  0  0
   68.4347   73.9043   95.0922 C   0  0  0  0  0  0  0  0  0  0  0  0
   68.2664   80.9043   90.0184 C   0  0  0  0  0  0  0  0  0  0  0  0
   68.1736   81.1285   88.6028 O   0  0  0  0  0  0  0  0  0  0  0  0
   70.0511   84.1772   87.7816 C   0  0  0  0  0  0  0  0  0  0  0  0
   69.7527   82.9451   88.3120 C   0  0  0  0  0  0  0  0  0  0  0  0
   68.5287   82.3660   88.0939 C   0  0  0  0  0  0  0  0  0  0  0  0
   67.5813   83.0376   87.3259 C   0  0  0  0  0  0  0  0  0  0  0  0
   67.8520   84.2721   86.7822 C   0  0  0  0  0  0  0  0  0  0  0  0
   69.0972   84.8093   87.0320 C   0  0  0  0  0  0  0  0  0  0  0  0
   69.4252   86.0674   86.5004 O   0  0  0  0  0  0  0  0  0  0  0  0
   72.4002   84.1417   87.8040 O   0  0  0  0  0  0  0  0  0  0  0  0
   71.3590   84.8049   88.0098 C   0  0  0  0  0  0  0  0  0  0  0  0
   71.4402   86.1183   88.4486 O   0  0  0  0  0  0  0  0  0  0  0  0
 28 29  2  0
 29 30  1  0
 29 21  1  0
 21 22  2  0
 22 23  1  0
 23 20  1  0
 20 19  1  0
 19  1  1  0
  1  2  2  0
  2  3  1  0
  3  4  2  0
  4  5  1  0
  5  7  1  0
  7  8  2  0
  8  9  1  0
  9 10  2  0
 10 11  1  0
 11 13  1  0
 13 14  1  0
 14 15  1  0
 15 16  1  0
 16 17  1  0
 17 18  1  0
 11 12  2  0
  5  6  2  0
 23 24  2  0
 24 25  1  0
 25 26  2  0
 26 27  1  0
 26 21  1  0
  6  1  1  0
 12  7  1  0
 18 14  1  0
M  END
>  <Activity>  (51) 
0.527388

>  <minimizedAffinity>  (51) 
-9.09874

>  <MorganFP>  (51) 
<rdkit.DataStructs.cDataStructs.ExplicitBitVect object at 0x7f21e41bd430>

$$$$
HIPS6984
     RDKit          3D

 31 34  0  0  0  0  0  0  0  0999 V2000
   69.8991   76.7474   91.9293 C   0  0  0  0  0  0  0  0  0  0  0  0
   71.2536   76.8388   91.7241 C   0  0  0  0  0  0  0  0  0  0  0  0
   71.7285   77.7122   90.7626 C   0  0  0  0  0  0  0  0  0  0  0  0
   70.8701   78.4891   90.0098 C   0  0  0  0  0  0  0  0  0  0  0  0
   69.4903   78.4183   90.1950 C   0  0  0  0  0  0  0  0  0  0  0  0
   69.0434   77.5437   91.1556 C   0  0  0  0  0  0  0  0  0  0  0  0
   68.5697   79.2306   89.4081 C   0  0  0  0  0  0  0  0  0  0  0  0
   67.6805   78.6464   88.5231 C   0  0  0  0  0  0  0  0  0  0  0  0
   66.8065   79.3880   87.7682 C   0  0  0  0  0  0  0  0  0  0  0  0
   66.7749   80.7703   87.8593 C   0  0  0  0  0  0  0  0  0  0  0  0
   67.6441   81.3819   88.7281 C   0  0  0  0  0  0  0  0  0  0  0  0
   68.5312   80.5935   89.4911 C   0  0  0  0  0  0  0  0  0  0  0  0
   67.6771   82.7402   88.8774 O   0  0  0  0  0  0  0  0  0  0  0  0
   68.6963   83.5660   88.4524 C   0  0  0  0  0  0  0  0  0  0  0  0
   69.2456   83.1319   87.0881 C   0  0  0  0  0  0  0  0  0  0  0  0
   70.6032   83.7373   86.9259 C   0  0  0  0  0  0  0  0  0  0  0  0
   70.5961   85.1386   87.4906 C   0  0  0  0  0  0  0  0  0  0  0  0
   69.2198   85.7608   87.4144 C   0  0  0  0  0  0  0  0  0  0  0  0
   68.1944   85.0034   88.2042 C   0  0  0  0  0  0  0  0  0  0  0  0
   69.2978   75.8343   92.9557 C   0  0  0  0  0  0  0  0  0  0  0  0
   70.0211   74.7056   93.0957 O   0  0  0  0  0  0  0  0  0  0  0  0
   70.3913   71.0627   93.3898 C   0  0  0  0  0  0  0  0  0  0  0  0
   70.4515   72.3976   93.6875 C   0  0  0  0  0  0  0  0  0  0  0  0
   69.9896   73.3926   92.8563 C   0  0  0  0  0  0  0  0  0  0  0  0
   69.4287   72.9546   91.6325 C   0  0  0  0  0  0  0  0  0  0  0  0
   69.3568   71.6335   91.3119 C   0  0  0  0  0  0  0  0  0  0  0  0
   69.8393   70.6890   92.1934 C   0  0  0  0  0  0  0  0  0  0  0  0
   69.7604   69.3452   91.8552 O   0  0  0  0  0  0  0  0  0  0  0  0
   71.6148   69.0905   93.9255 O   0  0  0  0  0  0  0  0  0  0  0  0
   70.8887   70.0488   94.2950 C   0  0  0  0  0  0  0  0  0  0  0  0
   70.5628   70.1150   95.6393 O   0  0  0  0  0  0  0  0  0  0  0  0
 29 30  2  0
 30 31  1  0
 30 22  1  0
 22 23  2  0
 23 24  1  0
 24 21  1  0
 21 20  1  0
 20  1  1  0
  1  2  2  0
  2  3  1  0
  3  4  2  0
  4  5  1  0
  5  7  1  0
  7  8  2  0
  8  9  1  0
  9 10  2  0
 10 11  1  0
 11 13  1  0
 13 14  1  0
 14 15  1  0
 15 16  1  0
 16 17  1  0
 17 18  1  0
 18 19  1  0
 11 12  2  0
  5  6  2  0
 24 25  2  0
 25 26  1  0
 26 27  2  0
 27 28  1  0
 27 22  1  0
  6  1  1  0
 12  7  1  0
 19 14  1  0
M  END
>  <Activity>  (52) 
-0.786406

>  <minimizedAffinity>  (52) 
-9.28428

>  <MorganFP>  (52) 
<rdkit.DataStructs.cDataStructs.ExplicitBitVect object at 0x7f21e41bd4a0>

$$$$
HIPS6984
     RDKit          3D

 31 34  0  0  0  0  0  0  0  0999 V2000
   68.2542   79.6838   89.4639 C   0  0  0  0  0  0  0  0  0  0  0  0
   67.5741   80.2137   88.3954 C   0  0  0  0  0  0  0  0  0  0  0  0
   66.8811   79.3631   87.5532 C   0  0  0  0  0  0  0  0  0  0  0  0
   66.8614   77.9988   87.7663 C   0  0  0  0  0  0  0  0  0  0  0  0
   67.5423   77.4314   88.8422 C   0  0  0  0  0  0  0  0  0  0  0  0
   68.2229   78.2968   89.6640 C   0  0  0  0  0  0  0  0  0  0  0  0
   67.5329   75.9928   89.0811 C   0  0  0  0  0  0  0  0  0  0  0  0
   66.8852   75.1298   88.2146 C   0  0  0  0  0  0  0  0  0  0  0  0
   66.8583   73.7728   88.4184 C   0  0  0  0  0  0  0  0  0  0  0  0
   67.4852   73.1996   89.5131 C   0  0  0  0  0  0  0  0  0  0  0  0
   68.1372   74.0277   90.3927 C   0  0  0  0  0  0  0  0  0  0  0  0
   68.1481   75.4188   90.1572 C   0  0  0  0  0  0  0  0  0  0  0  0
   68.7803   73.5427   91.4971 O   0  0  0  0  0  0  0  0  0  0  0  0
   68.5071   73.8986   92.8009 C   0  0  0  0  0  0  0  0  0  0  0  0
   67.2636   73.1785   93.3362 C   0  0  0  0  0  0  0  0  0  0  0  0
   66.7645   73.9428   94.5205 C   0  0  0  0  0  0  0  0  0  0  0  0
   67.9416   74.4329   95.3311 C   0  0  0  0  0  0  0  0  0  0  0  0
   69.1407   73.5252   95.1732 C   0  0  0  0  0  0  0  0  0  0  0  0
   69.6306   73.4492   93.7579 C   0  0  0  0  0  0  0  0  0  0  0  0
   69.0239   80.5318   90.4319 C   0  0  0  0  0  0  0  0  0  0  0  0
   70.1337   81.0445   89.8642 O   0  0  0  0  0  0  0  0  0  0  0  0
   70.5551   84.1982   88.0281 C   0  0  0  0  0  0  0  0  0  0  0  0
   69.9880   83.0538   88.5211 C   0  0  0  0  0  0  0  0  0  0  0  0
   70.6370   82.1708   89.3538 C   0  0  0  0  0  0  0  0  0  0  0  0
   71.9689   82.5138   89.6889 C   0  0  0  0  0  0  0  0  0  0  0  0
   72.5566   83.6455   89.2122 C   0  0  0  0  0  0  0  0  0  0  0  0
   71.8465   84.4865   88.3813 C   0  0  0  0  0  0  0  0  0  0  0  0
   72.4566   85.6374   87.9018 O   0  0  0  0  0  0  0  0  0  0  0  0
   68.7831   85.6991   87.4981 O   0  0  0  0  0  0  0  0  0  0  0  0
   69.8347   85.1001   87.1551 C   0  0  0  0  0  0  0  0  0  0  0  0
   70.3063   85.3316   85.8738 O   0  0  0  0  0  0  0  0  0  0  0  0
 29 30  2  0
 30 31  1  0
 30 22  1  0
 22 23  2  0
 23 24  1  0
 24 21  1  0
 21 20  1  0
 20  1  1  0
  1  2  2  0
  2  3  1  0
  3  4  2  0
  4  5  1  0
  5  7  1  0
  7  8  2  0
  8  9  1  0
  9 10  2  0
 10 11  1  0
 11 13  1  0
 13 14  1  0
 14 15  1  0
 15 16  1  0
 16 17  1  0
 17 18  1  0
 18 19  1  0
 11 12  2  0
  5  6  2  0
 24 25  2  0
 25 26  1  0
 26 27  2  0
 27 28  1  0
 27 22  1  0
  6  1  1  0
 12  7  1  0
 19 14  1  0
M  END
>  <Activity>  (53) 
-0.786406

>  <minimizedAffinity>  (53) 
-9.20568

>  <MorganFP>  (53) 
<rdkit.DataStructs.cDataStructs.ExplicitBitVect object at 0x7f21e41bd510>

$$$$
HIPS6984
     RDKit          3D

 31 34  0  0  0  0  0  0  0  0999 V2000
   66.8194   79.3064   87.9577 C   0  0  0  0  0  0  0  0  0  0  0  0
   66.2729   78.2463   87.2775 C   0  0  0  0  0  0  0  0  0  0  0  0
   66.7763   76.9771   87.4981 C   0  0  0  0  0  0  0  0  0  0  0  0
   67.8123   76.7583   88.3846 C   0  0  0  0  0  0  0  0  0  0  0  0
   68.3876   77.8143   89.0896 C   0  0  0  0  0  0  0  0  0  0  0  0
   67.8704   79.0649   88.8533 C   0  0  0  0  0  0  0  0  0  0  0  0
   69.4829   77.6011   90.0285 C   0  0  0  0  0  0  0  0  0  0  0  0
   70.6403   78.3565   89.9580 C   0  0  0  0  0  0  0  0  0  0  0  0
   71.6869   78.1736   90.8269 C   0  0  0  0  0  0  0  0  0  0  0  0
   71.6311   77.2137   91.8246 C   0  0  0  0  0  0  0  0  0  0  0  0
   70.4967   76.4468   91.9225 C   0  0  0  0  0  0  0  0  0  0  0  0
   69.4369   76.6576   91.0152 C   0  0  0  0  0  0  0  0  0  0  0  0
   70.3616   75.4788   92.8780 O   0  0  0  0  0  0  0  0  0  0  0  0
   69.1653   74.9551   93.3208 C   0  0  0  0  0  0  0  0  0  0  0  0
   69.1406   73.4259   93.2101 C   0  0  0  0  0  0  0  0  0  0  0  0
   67.7117   72.9863   93.2395 C   0  0  0  0  0  0  0  0  0  0  0  0
   66.9495   73.8308   94.2338 C   0  0  0  0  0  0  0  0  0  0  0  0
   67.8510   74.3394   95.3363 C   0  0  0  0  0  0  0  0  0  0  0  0
   68.9555   75.2164   94.8266 C   0  0  0  0  0  0  0  0  0  0  0  0
   66.3305   80.7137   87.7869 C   0  0  0  0  0  0  0  0  0  0  0  0
   67.2293   81.6070   88.2460 O   0  0  0  0  0  0  0  0  0  0  0  0
   70.1774   83.7522   87.7971 C   0  0  0  0  0  0  0  0  0  0  0  0
   69.3679   82.7423   88.2433 C   0  0  0  0  0  0  0  0  0  0  0  0
   68.0612   82.5715   87.8460 C   0  0  0  0  0  0  0  0  0  0  0  0
   67.5749   83.5253   86.9199 C   0  0  0  0  0  0  0  0  0  0  0  0
   68.3587   84.5392   86.4605 C   0  0  0  0  0  0  0  0  0  0  0  0
   69.6608   84.6500   86.9012 C   0  0  0  0  0  0  0  0  0  0  0  0
   70.4500   85.6880   86.4255 O   0  0  0  0  0  0  0  0  0  0  0  0
   72.4880   84.2350   87.4785 O   0  0  0  0  0  0  0  0  0  0  0  0
   71.5477   83.8936   88.2410 C   0  0  0  0  0  0  0  0  0  0  0  0
   71.8647   83.6465   89.5662 O   0  0  0  0  0  0  0  0  0  0  0  0
 29 30  2  0
 30 31  1  0
 30 22  1  0
 22 23  2  0
 23 24  1  0
 24 21  1  0
 21 20  1  0
 20  1  1  0
  1  2  2  0
  2  3  1  0
  3  4  2  0
  4  5  1  0
  5  7  1  0
  7  8  2  0
  8  9  1  0
  9 10  2  0
 10 11  1  0
 11 13  1  0
 13 14  1  0
 14 15  1  0
 15 16  1  0
 16 17  1  0
 17 18  1  0
 18 19  1  0
 11 12  2  0
  5  6  2  0
 24 25  2  0
 25 26  1  0
 26 27  2  0
 27 28  1  0
 27 22  1  0
  6  1  1  0
 12  7  1  0
 19 14  1  0
M  END
>  <Activity>  (54) 
-0.786406

>  <minimizedAffinity>  (54) 
-9.19712

>  <MorganFP>  (54) 
<rdkit.DataStructs.cDataStructs.ExplicitBitVect object at 0x7f21e41bd580>

$$$$
HIPS6986
     RDKit          3D

 28 30  0  0  0  0  0  0  0  0999 V2000
   68.7807   77.0869   90.3120 C   0  0  0  0  0  0  0  0  0  0  0  0
   67.5807   77.7448   89.9873 C   0  0  0  0  0  0  0  0  0  0  0  0
   67.5727   79.1186   89.7343 C   0  0  0  0  0  0  0  0  0  0  0  0
   68.7594   79.8513   89.7958 C   0  0  0  0  0  0  0  0  0  0  0  0
   69.9695   79.2104   90.0990 C   0  0  0  0  0  0  0  0  0  0  0  0
   69.9729   77.8329   90.3705 C   0  0  0  0  0  0  0  0  0  0  0  0
   69.6254   73.7280   91.8899 C   0  0  0  0  0  0  0  0  0  0  0  0
   68.8077   72.8696   91.1301 C   0  0  0  0  0  0  0  0  0  0  0  0
   67.9926   73.3842   90.1195 C   0  0  0  0  0  0  0  0  0  0  0  0
   67.9798   74.7534   89.8518 C   0  0  0  0  0  0  0  0  0  0  0  0
   68.7880   75.6289   90.5953 C   0  0  0  0  0  0  0  0  0  0  0  0
   69.6057   75.1018   91.6115 C   0  0  0  0  0  0  0  0  0  0  0  0
   70.4739   73.2969   92.9279 O   0  0  0  0  0  0  0  0  0  0  0  0
   69.7689   73.1878   95.2909 C   0  0  0  0  0  0  0  0  0  0  0  0
   70.1929   72.4243   94.0313 C   0  0  0  0  0  0  0  0  0  0  0  0
   71.3170   71.4124   94.2813 C   0  0  0  0  0  0  0  0  0  0  0  0
   71.2402   80.0021   90.2020 C   0  0  0  0  0  0  0  0  0  0  0  0
   70.9226   81.3565   90.5097 O   0  0  0  0  0  0  0  0  0  0  0  0
   71.2686   82.4571   89.7112 C   0  0  0  0  0  0  0  0  0  0  0  0
   72.5572   82.9805   89.8319 C   0  0  0  0  0  0  0  0  0  0  0  0
   72.9526   84.0729   89.0609 C   0  0  0  0  0  0  0  0  0  0  0  0
   72.0633   84.6627   88.1525 C   0  0  0  0  0  0  0  0  0  0  0  0
   72.4868   85.7550   87.3953 O   0  0  0  0  0  0  0  0  0  0  0  0
   70.7534   84.1492   88.0141 C   0  0  0  0  0  0  0  0  0  0  0  0
   70.3692   83.0443   88.8010 C   0  0  0  0  0  0  0  0  0  0  0  0
   69.7789   84.7450   87.0621 C   0  0  0  0  0  0  0  0  0  0  0  0
   68.5399   84.6039   87.2506 O   0  0  0  0  0  0  0  0  0  0  0  0
   70.2117   85.4647   85.9516 O   0  0  0  0  0  0  0  0  0  0  0  0
 14 15  1  0
 15 16  1  0
 15 13  1  0
 13  7  1  0
  7  8  2  0
  8  9  1  0
  9 10  2  0
 10 11  1  0
 11  1  1  0
  1  2  2  0
  2  3  1  0
  3  4  2  0
  4  5  1  0
  5 17  1  0
 17 18  1  0
 18 19  1  0
 19 20  2  0
 20 21  1  0
 21 22  2  0
 22 23  1  0
 22 24  1  0
 24 26  1  0
 26 27  2  0
 26 28  1  0
 24 25  2  0
  5  6  2  0
 11 12  2  0
 12  7  1  0
  6  1  1  0
 25 19  1  0
M  END
>  <Activity>  (55) 
-0.442309

>  <minimizedAffinity>  (55) 
-8.89427

>  <MorganFP>  (55) 
<rdkit.DataStructs.cDataStructs.ExplicitBitVect object at 0x7f21e41bd740>

$$$$
HIPS6986
     RDKit          3D

 28 30  0  0  0  0  0  0  0  0999 V2000
   70.5216   79.5554   90.3503 C   0  0  0  0  0  0  0  0  0  0  0  0
   71.5770   78.6335   90.4717 C   0  0  0  0  0  0  0  0  0  0  0  0
   71.3186   77.3013   90.8030 C   0  0  0  0  0  0  0  0  0  0  0  0
   70.0069   76.8708   91.0111 C   0  0  0  0  0  0  0  0  0  0  0  0
   68.9392   77.7699   90.8758 C   0  0  0  0  0  0  0  0  0  0  0  0
   69.2021   79.1126   90.5603 C   0  0  0  0  0  0  0  0  0  0  0  0
   70.0236   83.1376   89.1647 C   0  0  0  0  0  0  0  0  0  0  0  0
   71.3151   83.6613   89.3666 C   0  0  0  0  0  0  0  0  0  0  0  0
   72.3303   82.8538   89.8841 C   0  0  0  0  0  0  0  0  0  0  0  0
   72.0762   81.5203   90.2063 C   0  0  0  0  0  0  0  0  0  0  0  0
   70.7965   80.9753   90.0122 C   0  0  0  0  0  0  0  0  0  0  0  0
   69.7799   81.7960   89.4906 C   0  0  0  0  0  0  0  0  0  0  0  0
   68.9417   83.8790   88.6520 O   0  0  0  0  0  0  0  0  0  0  0  0
   69.2288   85.7674   87.0886 C   0  0  0  0  0  0  0  0  0  0  0  0
   68.7077   84.3438   87.3152 C   0  0  0  0  0  0  0  0  0  0  0  0
   67.2534   84.1492   86.8715 C   0  0  0  0  0  0  0  0  0  0  0  0
   67.5318   77.3182   91.1352 C   0  0  0  0  0  0  0  0  0  0  0  0
   67.2522   77.4382   92.5271 O   0  0  0  0  0  0  0  0  0  0  0  0
   67.1751   76.3588   93.4201 C   0  0  0  0  0  0  0  0  0  0  0  0
   65.9686   76.1397   94.0876 C   0  0  0  0  0  0  0  0  0  0  0  0
   65.8382   75.0805   94.9848 C   0  0  0  0  0  0  0  0  0  0  0  0
   66.9156   74.2188   95.2308 C   0  0  0  0  0  0  0  0  0  0  0  0
   66.7558   73.1680   96.1342 O   0  0  0  0  0  0  0  0  0  0  0  0
   68.1467   74.4220   94.5662 C   0  0  0  0  0  0  0  0  0  0  0  0
   68.2622   75.4976   93.6621 C   0  0  0  0  0  0  0  0  0  0  0  0
   69.3144   73.5311   94.7981 C   0  0  0  0  0  0  0  0  0  0  0  0
   69.4091   72.8753   95.8713 O   0  0  0  0  0  0  0  0  0  0  0  0
   70.3190   73.4044   93.8427 O   0  0  0  0  0  0  0  0  0  0  0  0
 14 15  1  0
 15 16  1  0
 15 13  1  0
 13  7  1  0
  7  8  2  0
  8  9  1  0
  9 10  2  0
 10 11  1  0
 11  1  1  0
  1  2  2  0
  2  3  1  0
  3  4  2  0
  4  5  1  0
  5 17  1  0
 17 18  1  0
 18 19  1  0
 19 20  2  0
 20 21  1  0
 21 22  2  0
 22 23  1  0
 22 24  1  0
 24 26  1  0
 26 27  2  0
 26 28  1  0
 24 25  2  0
  5  6  2  0
 11 12  2  0
 12  7  1  0
  6  1  1  0
 25 19  1  0
M  END
>  <Activity>  (56) 
-0.442309

>  <minimizedAffinity>  (56) 
-8.76947

>  <MorganFP>  (56) 
<rdkit.DataStructs.cDataStructs.ExplicitBitVect object at 0x7f21e41bd820>

$$$$
HIPS6989
     RDKit          3D

 35 38  0  0  0  0  0  0  0  0999 V2000
   67.3588   80.6527   88.2873 C   0  0  0  0  0  0  0  0  0  0  0  0
   66.4939   79.7542   87.6453 C   0  0  0  0  0  0  0  0  0  0  0  0
   66.6834   78.3777   87.7804 C   0  0  0  0  0  0  0  0  0  0  0  0
   67.7401   77.8851   88.5496 C   0  0  0  0  0  0  0  0  0  0  0  0
   68.6275   78.7687   89.1894 C   0  0  0  0  0  0  0  0  0  0  0  0
   68.4323   80.1550   89.0436 C   0  0  0  0  0  0  0  0  0  0  0  0
   69.7496   78.2504   90.0130 C   0  0  0  0  0  0  0  0  0  0  0  0
   70.9582   78.9635   90.1073 C   0  0  0  0  0  0  0  0  0  0  0  0
   72.0137   78.4675   90.8763 C   0  0  0  0  0  0  0  0  0  0  0  0
   71.8817   77.2507   91.5481 C   0  0  0  0  0  0  0  0  0  0  0  0
   70.6967   76.5149   91.4514 C   0  0  0  0  0  0  0  0  0  0  0  0
   69.6235   77.0306   90.7029 C   0  0  0  0  0  0  0  0  0  0  0  0
   70.5999   75.2987   92.1439 O   0  0  0  0  0  0  0  0  0  0  0  0
   69.6139   74.9789   93.0898 C   0  0  0  0  0  0  0  0  0  0  0  0
   69.4358   75.8268   94.1874 C   0  0  0  0  0  0  0  0  0  0  0  0
   68.4683   75.5412   95.1554 C   0  0  0  0  0  0  0  0  0  0  0  0
   67.6563   74.4001   95.0354 C   0  0  0  0  0  0  0  0  0  0  0  0
   67.8702   73.5227   93.9582 C   0  0  0  0  0  0  0  0  0  0  0  0
   68.8392   73.8097   92.9928 C   0  0  0  0  0  0  0  0  0  0  0  0
   66.6445   74.0676   96.1028 C   0  0  0  0  0  0  0  0  0  0  0  0
   66.3620   75.1838   96.8715 F   0  0  0  0  0  0  0  0  0  0  0  0
   65.4625   73.6232   95.5354 F   0  0  0  0  0  0  0  0  0  0  0  0
   67.1534   73.0749   96.9194 F   0  0  0  0  0  0  0  0  0  0  0  0
   67.1612   82.1390   88.1378 C   0  0  0  0  0  0  0  0  0  0  0  0
   67.9710   82.6600   87.0824 O   0  0  0  0  0  0  0  0  0  0  0  0
   71.1985   84.0023   88.3189 C   0  0  0  0  0  0  0  0  0  0  0  0
   70.0886   83.1647   88.1047 C   0  0  0  0  0  0  0  0  0  0  0  0
   69.0495   83.5440   87.2489 C   0  0  0  0  0  0  0  0  0  0  0  0
   69.1229   84.7816   86.5882 C   0  0  0  0  0  0  0  0  0  0  0  0
   70.2078   85.6310   86.8069 C   0  0  0  0  0  0  0  0  0  0  0  0
   71.2362   85.2668   87.6824 C   0  0  0  0  0  0  0  0  0  0  0  0
   72.2501   86.1977   87.9179 O   0  0  0  0  0  0  0  0  0  0  0  0
   73.3579   84.1910   89.2903 O   0  0  0  0  0  0  0  0  0  0  0  0
   72.3012   83.5129   89.1749 C   0  0  0  0  0  0  0  0  0  0  0  0
   72.1622   82.3372   89.9070 O   0  0  0  0  0  0  0  0  0  0  0  0
 33 34  2  0
 34 35  1  0
 34 26  1  0
 26 27  2  0
 27 28  1  0
 28 25  1  0
 25 24  1  0
 24  1  1  0
  1  2  2  0
  2  3  1  0
  3  4  2  0
  4  5  1  0
  5  7  1  0
  7  8  2  0
  8  9  1  0
  9 10  2  0
 10 11  1  0
 11 13  1  0
 13 14  1  0
 14 15  2  0
 15 16  1  0
 16 17  2  0
 17 20  1  0
 20 21  1  0
 20 22  1  0
 20 23  1  0
 17 18  1  0
 18 19  2  0
 11 12  2  0
  5  6  2  0
 28 29  2  0
 29 30  1  0
 30 31  2  0
 31 32  1  0
 31 26  1  0
  6  1  1  0
 12  7  1  0
 19 14  1  0
M  END
>  <Activity>  (57) 
-1.273758

>  <minimizedAffinity>  (57) 
-10.01343

>  <MorganFP>  (57) 
<rdkit.DataStructs.cDataStructs.ExplicitBitVect object at 0x7f21e41bd890>

$$$$
HIPS6989
     RDKit          3D

 35 38  0  0  0  0  0  0  0  0999 V2000
   69.0209   73.7206   90.9354 C   0  0  0  0  0  0  0  0  0  0  0  0
   68.2162   72.7055   90.3973 C   0  0  0  0  0  0  0  0  0  0  0  0
   67.2606   73.0068   89.4253 C   0  0  0  0  0  0  0  0  0  0  0  0
   67.0934   74.3224   88.9869 C   0  0  0  0  0  0  0  0  0  0  0  0
   67.8795   75.3573   89.5241 C   0  0  0  0  0  0  0  0  0  0  0  0
   68.8371   75.0455   90.5075 C   0  0  0  0  0  0  0  0  0  0  0  0
   67.7097   76.7572   89.0577 C   0  0  0  0  0  0  0  0  0  0  0  0
   67.1232   77.0302   87.8089 C   0  0  0  0  0  0  0  0  0  0  0  0
   66.9736   78.3482   87.3709 C   0  0  0  0  0  0  0  0  0  0  0  0
   67.4181   79.4068   88.1654 C   0  0  0  0  0  0  0  0  0  0  0  0
   68.0230   79.1576   89.4011 C   0  0  0  0  0  0  0  0  0  0  0  0
   68.1443   77.8319   89.8550 C   0  0  0  0  0  0  0  0  0  0  0  0
   68.4533   80.2471   90.1731 O   0  0  0  0  0  0  0  0  0  0  0  0
   69.4100   81.1947   89.7786 C   0  0  0  0  0  0  0  0  0  0  0  0
   70.7164   81.0717   90.2618 C   0  0  0  0  0  0  0  0  0  0  0  0
   71.6982   81.9980   89.8975 C   0  0  0  0  0  0  0  0  0  0  0  0
   71.3868   83.0631   89.0347 C   0  0  0  0  0  0  0  0  0  0  0  0
   70.0620   83.2138   88.5897 C   0  0  0  0  0  0  0  0  0  0  0  0
   69.0821   82.2873   88.9568 C   0  0  0  0  0  0  0  0  0  0  0  0
   72.4341   84.0879   88.6785 C   0  0  0  0  0  0  0  0  0  0  0  0
   72.8690   83.9084   87.3766 F   0  0  0  0  0  0  0  0  0  0  0  0
   71.9228   85.3696   88.7905 F   0  0  0  0  0  0  0  0  0  0  0  0
   73.5107   83.9559   89.5357 F   0  0  0  0  0  0  0  0  0  0  0  0
   70.0484   73.3999   91.9897 C   0  0  0  0  0  0  0  0  0  0  0  0
   69.9490   74.3016   93.0934 O   0  0  0  0  0  0  0  0  0  0  0  0
   66.9851   76.2574   94.1601 C   0  0  0  0  0  0  0  0  0  0  0  0
   68.1731   75.8678   93.5151 C   0  0  0  0  0  0  0  0  0  0  0  0
   68.7624   74.6255   93.7713 C   0  0  0  0  0  0  0  0  0  0  0  0
   68.1498   73.7516   94.6848 C   0  0  0  0  0  0  0  0  0  0  0  0
   66.9826   74.1333   95.3467 C   0  0  0  0  0  0  0  0  0  0  0  0
   66.4045   75.3854   95.1131 C   0  0  0  0  0  0  0  0  0  0  0  0
   65.2840   75.7358   95.8690 O   0  0  0  0  0  0  0  0  0  0  0  0
   65.1682   77.7859   94.0939 O   0  0  0  0  0  0  0  0  0  0  0  0
   66.3692   77.5506   93.7906 C   0  0  0  0  0  0  0  0  0  0  0  0
   67.1206   78.5402   93.1632 O   0  0  0  0  0  0  0  0  0  0  0  0
 33 34  2  0
 34 35  1  0
 34 26  1  0
 26 27  2  0
 27 28  1  0
 28 25  1  0
 25 24  1  0
 24  1  1  0
  1  2  2  0
  2  3  1  0
  3  4  2  0
  4  5  1  0
  5  7  1  0
  7  8  2  0
  8  9  1  0
  9 10  2  0
 10 11  1  0
 11 13  1  0
 13 14  1  0
 14 15  2  0
 15 16  1  0
 16 17  2  0
 17 20  1  0
 20 21  1  0
 20 22  1  0
 20 23  1  0
 17 18  1  0
 18 19  2  0
 11 12  2  0
  5  6  2  0
 28 29  2  0
 29 30  1  0
 30 31  2  0
 31 32  1  0
 31 26  1  0
  6  1  1  0
 12  7  1  0
 19 14  1  0
M  END
>  <Activity>  (58) 
-1.273758

>  <minimizedAffinity>  (58) 
-9.88434

>  <MorganFP>  (58) 
<rdkit.DataStructs.cDataStructs.ExplicitBitVect object at 0x7f21e41bd900>

$$$$
HIPS6989
     RDKit          3D

 35 38  0  0  0  0  0  0  0  0999 V2000
   68.5827   77.5279   90.5527 C   0  0  0  0  0  0  0  0  0  0  0  0
   69.9655   77.3045   90.6267 C   0  0  0  0  0  0  0  0  0  0  0  0
   70.8583   78.3674   90.4782 C   0  0  0  0  0  0  0  0  0  0  0  0
   70.3814   79.6598   90.2473 C   0  0  0  0  0  0  0  0  0  0  0  0
   68.9995   79.9029   90.1548 C   0  0  0  0  0  0  0  0  0  0  0  0
   68.1065   78.8248   90.3005 C   0  0  0  0  0  0  0  0  0  0  0  0
   68.4867   81.2762   89.9148 C   0  0  0  0  0  0  0  0  0  0  0  0
   67.4031   81.7765   90.6588 C   0  0  0  0  0  0  0  0  0  0  0  0
   66.9190   83.0655   90.4233 C   0  0  0  0  0  0  0  0  0  0  0  0
   67.4998   83.8643   89.4363 C   0  0  0  0  0  0  0  0  0  0  0  0
   68.5643   83.3794   88.6706 C   0  0  0  0  0  0  0  0  0  0  0  0
   69.0714   82.0935   88.9301 C   0  0  0  0  0  0  0  0  0  0  0  0
   69.1246   84.2127   87.6908 O   0  0  0  0  0  0  0  0  0  0  0  0
   70.1129   85.1826   87.9178 C   0  0  0  0  0  0  0  0  0  0  0  0
   71.4553   84.7912   87.8986 C   0  0  0  0  0  0  0  0  0  0  0  0
   72.4703   85.7254   88.1257 C   0  0  0  0  0  0  0  0  0  0  0  0
   72.1556   87.0733   88.3705 C   0  0  0  0  0  0  0  0  0  0  0  0
   70.8046   87.4553   88.4387 C   0  0  0  0  0  0  0  0  0  0  0  0
   69.7917   86.5191   88.2130 C   0  0  0  0  0  0  0  0  0  0  0  0
   73.2480   88.0715   88.6607 C   0  0  0  0  0  0  0  0  0  0  0  0
   74.3953   87.4275   89.0909 F   0  0  0  0  0  0  0  0  0  0  0  0
   73.5606   88.7989   87.5249 F   0  0  0  0  0  0  0  0  0  0  0  0
   72.8210   88.9396   89.6482 F   0  0  0  0  0  0  0  0  0  0  0  0
   67.6166   76.3817   90.7055 C   0  0  0  0  0  0  0  0  0  0  0  0
   66.8206   76.5358   91.8818 O   0  0  0  0  0  0  0  0  0  0  0  0
   68.1995   74.1164   94.3298 C   0  0  0  0  0  0  0  0  0  0  0  0
   68.0507   74.9483   93.2050 C   0  0  0  0  0  0  0  0  0  0  0  0
   66.9040   75.7294   93.0285 C   0  0  0  0  0  0  0  0  0  0  0  0
   65.8882   75.6844   93.9979 C   0  0  0  0  0  0  0  0  0  0  0  0
   66.0136   74.8487   95.1079 C   0  0  0  0  0  0  0  0  0  0  0  0
   67.1470   74.0461   95.2747 C   0  0  0  0  0  0  0  0  0  0  0  0
   67.1715   73.1733   96.3644 O   0  0  0  0  0  0  0  0  0  0  0  0
   70.2976   73.3198   93.5516 O   0  0  0  0  0  0  0  0  0  0  0  0
   69.4673   73.3732   94.4990 C   0  0  0  0  0  0  0  0  0  0  0  0
   69.7845   72.7807   95.7179 O   0  0  0  0  0  0  0  0  0  0  0  0
 33 34  2  0
 34 35  1  0
 34 26  1  0
 26 27  2  0
 27 28  1  0
 28 25  1  0
 25 24  1  0
 24  1  1  0
  1  2  2  0
  2  3  1  0
  3  4  2  0
  4  5  1  0
  5  7  1  0
  7  8  2  0
  8  9  1  0
  9 10  2  0
 10 11  1  0
 11 13  1  0
 13 14  1  0
 14 15  2  0
 15 16  1  0
 16 17  2  0
 17 20  1  0
 20 21  1  0
 20 22  1  0
 20 23  1  0
 17 18  1  0
 18 19  2  0
 11 12  2  0
  5  6  2  0
 28 29  2  0
 29 30  1  0
 30 31  2  0
 31 32  1  0
 31 26  1  0
  6  1  1  0
 12  7  1  0
 19 14  1  0
M  END
>  <Activity>  (59) 
-1.273758

>  <minimizedAffinity>  (59) 
-9.70209

>  <MorganFP>  (59) 
<rdkit.DataStructs.cDataStructs.ExplicitBitVect object at 0x7f21e41bd970>

$$$$
HIPS6990
     RDKit          3D

 33 36  0  0  0  0  0  0  0  0999 V2000
   69.8797   76.7971   91.9565 C   0  0  0  0  0  0  0  0  0  0  0  0
   71.1900   76.9240   91.4623 C   0  0  0  0  0  0  0  0  0  0  0  0
   71.4786   77.8491   90.4581 C   0  0  0  0  0  0  0  0  0  0  0  0
   70.4705   78.6601   89.9403 C   0  0  0  0  0  0  0  0  0  0  0  0
   69.1567   78.5552   90.4236 C   0  0  0  0  0  0  0  0  0  0  0  0
   68.8677   77.6187   91.4297 C   0  0  0  0  0  0  0  0  0  0  0  0
   69.2141   73.5103   93.7462 C   0  0  0  0  0  0  0  0  0  0  0  0
   68.8686   73.9683   95.0194 C   0  0  0  0  0  0  0  0  0  0  0  0
   68.8955   75.3337   95.3096 C   0  0  0  0  0  0  0  0  0  0  0  0
   69.2537   76.2546   94.3255 C   0  0  0  0  0  0  0  0  0  0  0  0
   69.5713   75.8178   93.0271 C   0  0  0  0  0  0  0  0  0  0  0  0
   69.5507   74.4401   92.7446 C   0  0  0  0  0  0  0  0  0  0  0  0
   69.1535   72.1339   93.4856 O   0  0  0  0  0  0  0  0  0  0  0  0
   72.5354   69.7517   92.6609 C   0  0  0  0  0  0  0  0  0  0  0  0
   71.3696   69.5991   91.8875 C   0  0  0  0  0  0  0  0  0  0  0  0
   70.2436   70.3825   92.1536 C   0  0  0  0  0  0  0  0  0  0  0  0
   70.2554   71.3146   93.2091 C   0  0  0  0  0  0  0  0  0  0  0  0
   71.4209   71.4683   93.9703 C   0  0  0  0  0  0  0  0  0  0  0  0
   72.5485   70.6861   93.7043 C   0  0  0  0  0  0  0  0  0  0  0  0
   74.1666   68.6286   91.1286 C   0  0  0  0  0  0  0  0  0  0  0  0
   73.6985   69.0087   92.4177 O   0  0  0  0  0  0  0  0  0  0  0  0
   68.0665   79.3576   89.7763 C   0  0  0  0  0  0  0  0  0  0  0  0
   66.9889   78.5439   89.3084 O   0  0  0  0  0  0  0  0  0  0  0  0
   67.1045   77.5965   88.2833 C   0  0  0  0  0  0  0  0  0  0  0  0
   67.5141   77.9480   86.9899 C   0  0  0  0  0  0  0  0  0  0  0  0
   67.5329   76.9856   85.9787 C   0  0  0  0  0  0  0  0  0  0  0  0
   67.2044   75.6502   86.2515 C   0  0  0  0  0  0  0  0  0  0  0  0
   67.1599   74.7603   85.1757 O   0  0  0  0  0  0  0  0  0  0  0  0
   66.8972   75.2617   87.5820 C   0  0  0  0  0  0  0  0  0  0  0  0
   66.7995   76.2607   88.5735 C   0  0  0  0  0  0  0  0  0  0  0  0
   66.7498   73.8419   87.9911 C   0  0  0  0  0  0  0  0  0  0  0  0
   67.1199   73.4790   89.1462 O   0  0  0  0  0  0  0  0  0  0  0  0
   66.3049   72.8820   87.0818 O   0  0  0  0  0  0  0  0  0  0  0  0
 20 21  1  0
 21 14  1  0
 14 15  2  0
 15 16  1  0
 16 17  2  0
 17 13  1  0
 13  7  1  0
  7  8  2  0
  8  9  1  0
  9 10  2  0
 10 11  1  0
 11  1  1  0
  1  2  2  0
  2  3  1  0
  3  4  2  0
  4  5  1  0
  5 22  1  0
 22 23  1  0
 23 24  1  0
 24 25  2  0
 25 26  1  0
 26 27  2  0
 27 28  1  0
 27 29  1  0
 29 31  1  0
 31 32  2  0
 31 33  1  0
 29 30  2  0
  5  6  2  0
 11 12  2  0
 17 18  1  0
 18 19  2  0
 19 14  1  0
 12  7  1  0
  6  1  1  0
 30 24  1  0
M  END
>  <Activity>  (60) 
-0.524576

>  <minimizedAffinity>  (60) 
-9.04837

>  <MorganFP>  (60) 
<rdkit.DataStructs.cDataStructs.ExplicitBitVect object at 0x7f21e41bd9e0>

$$$$
HIPS6990
     RDKit          3D

 33 36  0  0  0  0  0  0  0  0999 V2000
   69.3769   76.6148   91.5196 C   0  0  0  0  0  0  0  0  0  0  0  0
   68.4207   76.4617   90.5002 C   0  0  0  0  0  0  0  0  0  0  0  0
   68.4457   77.2923   89.3791 C   0  0  0  0  0  0  0  0  0  0  0  0
   69.4237   78.2778   89.2575 C   0  0  0  0  0  0  0  0  0  0  0  0
   70.3924   78.4438   90.2599 C   0  0  0  0  0  0  0  0  0  0  0  0
   70.3608   77.6108   91.3903 C   0  0  0  0  0  0  0  0  0  0  0  0
   69.2654   73.4899   93.6812 C   0  0  0  0  0  0  0  0  0  0  0  0
   69.1906   74.0539   94.9566 C   0  0  0  0  0  0  0  0  0  0  0  0
   69.2224   75.4402   95.1183 C   0  0  0  0  0  0  0  0  0  0  0  0
   69.3143   76.2757   94.0056 C   0  0  0  0  0  0  0  0  0  0  0  0
   69.3553   75.7301   92.7101 C   0  0  0  0  0  0  0  0  0  0  0  0
   69.3319   74.3323   92.5555 C   0  0  0  0  0  0  0  0  0  0  0  0
   69.2078   72.0945   93.5567 O   0  0  0  0  0  0  0  0  0  0  0  0
   72.5529   69.6760   92.6891 C   0  0  0  0  0  0  0  0  0  0  0  0
   71.3973   69.5797   91.8918 C   0  0  0  0  0  0  0  0  0  0  0  0
   70.2834   70.3755   92.1718 C   0  0  0  0  0  0  0  0  0  0  0  0
   70.2970   71.2637   93.2645 C   0  0  0  0  0  0  0  0  0  0  0  0
   71.4526   71.3617   94.0496 C   0  0  0  0  0  0  0  0  0  0  0  0
   72.5681   70.5670   93.7698 C   0  0  0  0  0  0  0  0  0  0  0  0
   74.7001   69.2503   91.4729 C   0  0  0  0  0  0  0  0  0  0  0  0
   73.7043   68.9187   92.4342 O   0  0  0  0  0  0  0  0  0  0  0  0
   71.3667   79.5808   90.1628 C   0  0  0  0  0  0  0  0  0  0  0  0
   70.7362   80.8571   90.2874 O   0  0  0  0  0  0  0  0  0  0  0  0
   71.1804   82.0212   89.6472 C   0  0  0  0  0  0  0  0  0  0  0  0
   72.4790   82.5171   89.8252 C   0  0  0  0  0  0  0  0  0  0  0  0
   72.8507   83.7264   89.2349 C   0  0  0  0  0  0  0  0  0  0  0  0
   71.9589   84.4280   88.4114 C   0  0  0  0  0  0  0  0  0  0  0  0
   72.3668   85.6724   87.9255 O   0  0  0  0  0  0  0  0  0  0  0  0
   70.6800   83.8775   88.1342 C   0  0  0  0  0  0  0  0  0  0  0  0
   70.2898   82.6997   88.8058 C   0  0  0  0  0  0  0  0  0  0  0  0
   69.7654   84.4446   87.1110 C   0  0  0  0  0  0  0  0  0  0  0  0
   68.7939   83.7540   86.6845 O   0  0  0  0  0  0  0  0  0  0  0  0
   70.0241   85.6897   86.5374 O   0  0  0  0  0  0  0  0  0  0  0  0
 20 21  1  0
 21 14  1  0
 14 15  2  0
 15 16  1  0
 16 17  2  0
 17 13  1  0
 13  7  1  0
  7  8  2  0
  8  9  1  0
  9 10  2  0
 10 11  1  0
 11  1  1  0
  1  2  2  0
  2  3  1  0
  3  4  2  0
  4  5  1  0
  5 22  1  0
 22 23  1  0
 23 24  1  0
 24 25  2  0
 25 26  1  0
 26 27  2  0
 27 28  1  0
 27 29  1  0
 29 31  1  0
 31 32  2  0
 31 33  1  0
 29 30  2  0
  5  6  2  0
 11 12  2  0
 17 18  1  0
 18 19  2  0
 19 14  1  0
 12  7  1  0
  6  1  1  0
 30 24  1  0
M  END
>  <Activity>  (61) 
-0.524576

>  <minimizedAffinity>  (61) 
-9.02993

>  <MorganFP>  (61) 
<rdkit.DataStructs.cDataStructs.ExplicitBitVect object at 0x7f21e41bda50>

$$$$
HIPS6990
     RDKit          3D

 33 36  0  0  0  0  0  0  0  0999 V2000
   67.3534   78.3477   87.0060 C   0  0  0  0  0  0  0  0  0  0  0  0
   67.6861   78.1860   85.6494 C   0  0  0  0  0  0  0  0  0  0  0  0
   67.7158   76.9136   85.0771 C   0  0  0  0  0  0  0  0  0  0  0  0
   67.4096   75.7915   85.8449 C   0  0  0  0  0  0  0  0  0  0  0  0
   67.0681   75.9301   87.1995 C   0  0  0  0  0  0  0  0  0  0  0  0
   67.0455   77.2114   87.7745 C   0  0  0  0  0  0  0  0  0  0  0  0
   67.6463   82.1135   87.4324 C   0  0  0  0  0  0  0  0  0  0  0  0
   67.3678   82.2473   88.7944 C   0  0  0  0  0  0  0  0  0  0  0  0
   67.0416   81.1273   89.5614 C   0  0  0  0  0  0  0  0  0  0  0  0
   67.0054   79.8616   88.9772 C   0  0  0  0  0  0  0  0  0  0  0  0
   67.3167   79.6996   87.6154 C   0  0  0  0  0  0  0  0  0  0  0  0
   67.6356   80.8336   86.8470 C   0  0  0  0  0  0  0  0  0  0  0  0
   67.9919   83.2578   86.6996 O   0  0  0  0  0  0  0  0  0  0  0  0
   71.2897   85.7243   87.6122 C   0  0  0  0  0  0  0  0  0  0  0  0
   69.9906   86.2655   87.6212 C   0  0  0  0  0  0  0  0  0  0  0  0
   68.8917   85.4571   87.3189 C   0  0  0  0  0  0  0  0  0  0  0  0
   69.0735   84.1020   86.9817 C   0  0  0  0  0  0  0  0  0  0  0  0
   70.3675   83.5665   86.9824 C   0  0  0  0  0  0  0  0  0  0  0  0
   71.4677   84.3739   87.2859 C   0  0  0  0  0  0  0  0  0  0  0  0
   72.3982   87.7134   88.6541 C   0  0  0  0  0  0  0  0  0  0  0  0
   72.4211   86.4867   87.9329 O   0  0  0  0  0  0  0  0  0  0  0  0
   66.8510   74.7026   88.0346 C   0  0  0  0  0  0  0  0  0  0  0  0
   66.8846   74.9784   89.4364 O   0  0  0  0  0  0  0  0  0  0  0  0
   67.8671   74.4965   90.3108 C   0  0  0  0  0  0  0  0  0  0  0  0
   68.2063   73.1381   90.3707 C   0  0  0  0  0  0  0  0  0  0  0  0
   69.1304   72.6911   91.3170 C   0  0  0  0  0  0  0  0  0  0  0  0
   69.7746   73.5941   92.1745 C   0  0  0  0  0  0  0  0  0  0  0  0
   70.6206   73.0680   93.1536 O   0  0  0  0  0  0  0  0  0  0  0  0
   69.5215   74.9851   92.0458 C   0  0  0  0  0  0  0  0  0  0  0  0
   68.5233   75.4111   91.1443 C   0  0  0  0  0  0  0  0  0  0  0  0
   70.3146   76.0161   92.7621 C   0  0  0  0  0  0  0  0  0  0  0  0
   70.0397   76.2966   93.9657 O   0  0  0  0  0  0  0  0  0  0  0  0
   71.2917   76.7538   92.0933 O   0  0  0  0  0  0  0  0  0  0  0  0
 20 21  1  0
 21 14  1  0
 14 15  2  0
 15 16  1  0
 16 17  2  0
 17 13  1  0
 13  7  1  0
  7  8  2  0
  8  9  1  0
  9 10  2  0
 10 11  1  0
 11  1  1  0
  1  2  2  0
  2  3  1  0
  3  4  2  0
  4  5  1  0
  5 22  1  0
 22 23  1  0
 23 24  1  0
 24 25  2  0
 25 26  1  0
 26 27  2  0
 27 28  1  0
 27 29  1  0
 29 31  1  0
 31 32  2  0
 31 33  1  0
 29 30  2  0
  5  6  2  0
 11 12  2  0
 17 18  1  0
 18 19  2  0
 19 14  1  0
 12  7  1  0
  6  1  1  0
 30 24  1  0
M  END
>  <Activity>  (62) 
-0.524576

>  <minimizedAffinity>  (62) 
-8.91486

>  <MorganFP>  (62) 
<rdkit.DataStructs.cDataStructs.ExplicitBitVect object at 0x7f21e41bdac0>

$$$$
HIPS6991
     RDKit          3D

 32 35  0  0  0  0  0  0  0  0999 V2000
   69.3662   78.2736   90.1875 C   0  0  0  0  0  0  0  0  0  0  0  0
   70.7180   78.4618   89.8625 C   0  0  0  0  0  0  0  0  0  0  0  0
   71.7114   77.7750   90.5626 C   0  0  0  0  0  0  0  0  0  0  0  0
   71.3660   76.8909   91.5873 C   0  0  0  0  0  0  0  0  0  0  0  0
   70.0161   76.6767   91.9176 C   0  0  0  0  0  0  0  0  0  0  0  0
   69.0206   77.3678   91.2035 C   0  0  0  0  0  0  0  0  0  0  0  0
   69.6464   75.7444   93.0115 C   0  0  0  0  0  0  0  0  0  0  0  0
   69.3835   76.2294   94.3049 C   0  0  0  0  0  0  0  0  0  0  0  0
   69.0286   75.3499   95.3307 C   0  0  0  0  0  0  0  0  0  0  0  0
   68.9449   73.9786   95.0820 C   0  0  0  0  0  0  0  0  0  0  0  0
   69.2273   73.4724   93.8093 C   0  0  0  0  0  0  0  0  0  0  0  0
   69.5574   74.3613   92.7701 C   0  0  0  0  0  0  0  0  0  0  0  0
   69.1303   72.0892   93.5973 O   0  0  0  0  0  0  0  0  0  0  0  0
   70.1412   71.2783   93.0603 C   0  0  0  0  0  0  0  0  0  0  0  0
   69.8282   70.4325   91.9892 C   0  0  0  0  0  0  0  0  0  0  0  0
   70.8063   69.6009   91.4348 C   0  0  0  0  0  0  0  0  0  0  0  0
   72.1037   69.5995   91.9576 C   0  0  0  0  0  0  0  0  0  0  0  0
   73.3300   68.5559   91.2622 Cl  0  0  0  0  0  0  0  0  0  0  0  0
   72.4197   70.4263   93.0406 C   0  0  0  0  0  0  0  0  0  0  0  0
   71.4428   71.2581   93.5960 C   0  0  0  0  0  0  0  0  0  0  0  0
   68.2907   79.0213   89.4430 C   0  0  0  0  0  0  0  0  0  0  0  0
   67.1781   78.1700   89.1629 O   0  0  0  0  0  0  0  0  0  0  0  0
   66.9219   74.8652   87.4112 C   0  0  0  0  0  0  0  0  0  0  0  0
   66.9418   75.8213   88.4437 C   0  0  0  0  0  0  0  0  0  0  0  0
   67.1404   77.1857   88.1612 C   0  0  0  0  0  0  0  0  0  0  0  0
   67.3040   77.5893   86.8345 C   0  0  0  0  0  0  0  0  0  0  0  0
   67.3025   76.6507   85.8028 C   0  0  0  0  0  0  0  0  0  0  0  0
   67.1377   75.2891   86.0773 C   0  0  0  0  0  0  0  0  0  0  0  0
   67.2305   74.3939   85.0096 O   0  0  0  0  0  0  0  0  0  0  0  0
   66.7041   73.0751   88.9576 O   0  0  0  0  0  0  0  0  0  0  0  0
   66.6395   73.4547   87.7570 C   0  0  0  0  0  0  0  0  0  0  0  0
   66.2434   72.5503   86.7760 O   0  0  0  0  0  0  0  0  0  0  0  0
 30 31  2  0
 31 32  1  0
 31 23  1  0
 23 24  2  0
 24 25  1  0
 25 22  1  0
 22 21  1  0
 21  1  1  0
  1  2  2  0
  2  3  1  0
  3  4  2  0
  4  5  1  0
  5  7  1  0
  7  8  2  0
  8  9  1  0
  9 10  2  0
 10 11  1  0
 11 13  1  0
 13 14  1  0
 14 15  2  0
 15 16  1  0
 16 17  2  0
 17 18  1  0
 17 19  1  0
 19 20  2  0
 11 12  2  0
  5  6  2  0
 25 26  2  0
 26 27  1  0
 27 28  2  0
 28 29  1  0
 28 23  1  0
  6  1  1  0
 12  7  1  0
 20 14  1  0
M  END
>  <Activity>  (63) 
-1.070214

>  <minimizedAffinity>  (63) 
-9.34276

>  <MorganFP>  (63) 
<rdkit.DataStructs.cDataStructs.ExplicitBitVect object at 0x7f21e41bdb30>

$$$$
HIPS6991
     RDKit          3D

 32 35  0  0  0  0  0  0  0  0999 V2000
   69.7814   78.5906   90.2865 C   0  0  0  0  0  0  0  0  0  0  0  0
   71.1343   78.5609   89.9159 C   0  0  0  0  0  0  0  0  0  0  0  0
   72.0131   77.6703   90.5349 C   0  0  0  0  0  0  0  0  0  0  0  0
   71.5503   76.7982   91.5229 C   0  0  0  0  0  0  0  0  0  0  0  0
   70.1949   76.8018   91.8972 C   0  0  0  0  0  0  0  0  0  0  0  0
   69.3143   77.6979   91.2646 C   0  0  0  0  0  0  0  0  0  0  0  0
   69.7019   75.8823   92.9527 C   0  0  0  0  0  0  0  0  0  0  0  0
   69.3794   76.3703   94.2315 C   0  0  0  0  0  0  0  0  0  0  0  0
   68.9086   75.5034   95.2206 C   0  0  0  0  0  0  0  0  0  0  0  0
   68.7669   74.1409   94.9504 C   0  0  0  0  0  0  0  0  0  0  0  0
   69.1062   73.6305   93.6934 C   0  0  0  0  0  0  0  0  0  0  0  0
   69.5537   74.5083   92.6893 C   0  0  0  0  0  0  0  0  0  0  0  0
   68.9481   72.2566   93.4587 O   0  0  0  0  0  0  0  0  0  0  0  0
   69.9557   71.3892   93.0113 C   0  0  0  0  0  0  0  0  0  0  0  0
   71.2046   71.4250   93.6435 C   0  0  0  0  0  0  0  0  0  0  0  0
   72.2375   70.5837   93.2179 C   0  0  0  0  0  0  0  0  0  0  0  0
   72.0324   69.7085   92.1463 C   0  0  0  0  0  0  0  0  0  0  0  0
   73.3284   68.6540   91.6127 Cl  0  0  0  0  0  0  0  0  0  0  0  0
   70.7944   69.6809   91.4960 C   0  0  0  0  0  0  0  0  0  0  0  0
   69.7608   70.5215   91.9202 C   0  0  0  0  0  0  0  0  0  0  0  0
   68.8311   79.5581   89.6300 C   0  0  0  0  0  0  0  0  0  0  0  0
   68.9980   80.8749   90.1584 O   0  0  0  0  0  0  0  0  0  0  0  0
   70.0265   83.7249   87.9504 C   0  0  0  0  0  0  0  0  0  0  0  0
   69.2377   82.7143   88.5309 C   0  0  0  0  0  0  0  0  0  0  0  0
   69.7480   81.9013   89.5602 C   0  0  0  0  0  0  0  0  0  0  0  0
   71.0501   82.1170   90.0159 C   0  0  0  0  0  0  0  0  0  0  0  0
   71.8485   83.1043   89.4387 C   0  0  0  0  0  0  0  0  0  0  0  0
   71.3607   83.8957   88.3937 C   0  0  0  0  0  0  0  0  0  0  0  0
   72.2381   84.8078   87.8035 O   0  0  0  0  0  0  0  0  0  0  0  0
   68.1784   84.8286   86.9457 O   0  0  0  0  0  0  0  0  0  0  0  0
   69.4174   84.5959   86.9213 C   0  0  0  0  0  0  0  0  0  0  0  0
   70.2084   85.2127   85.9565 O   0  0  0  0  0  0  0  0  0  0  0  0
 30 31  2  0
 31 32  1  0
 31 23  1  0
 23 24  2  0
 24 25  1  0
 25 22  1  0
 22 21  1  0
 21  1  1  0
  1  2  2  0
  2  3  1  0
  3  4  2  0
  4  5  1  0
  5  7  1  0
  7  8  2  0
  8  9  1  0
  9 10  2  0
 10 11  1  0
 11 13  1  0
 13 14  1  0
 14 15  2  0
 15 16  1  0
 16 17  2  0
 17 18  1  0
 17 19  1  0
 19 20  2  0
 11 12  2  0
  5  6  2  0
 25 26  2  0
 26 27  1  0
 27 28  2  0
 28 29  1  0
 28 23  1  0
  6  1  1  0
 12  7  1  0
 20 14  1  0
M  END
>  <Activity>  (64) 
-1.070214

>  <minimizedAffinity>  (64) 
-9.30366

>  <MorganFP>  (64) 
<rdkit.DataStructs.cDataStructs.ExplicitBitVect object at 0x7f21e41bdba0>

$$$$
HIPS6992
     RDKit          3D

 33 36  0  0  0  0  0  0  0  0999 V2000
   69.1091   79.8886   90.2322 C   0  0  0  0  0  0  0  0  0  0  0  0
   70.4984   79.6823   90.1989 C   0  0  0  0  0  0  0  0  0  0  0  0
   71.0232   78.3951   90.3218 C   0  0  0  0  0  0  0  0  0  0  0  0
   70.1706   77.3027   90.4876 C   0  0  0  0  0  0  0  0  0  0  0  0
   68.7800   77.4844   90.5265 C   0  0  0  0  0  0  0  0  0  0  0  0
   68.2539   78.7810   90.3722 C   0  0  0  0  0  0  0  0  0  0  0  0
   68.4383   83.4365   89.0520 C   0  0  0  0  0  0  0  0  0  0  0  0
   67.4423   83.8309   89.9513 C   0  0  0  0  0  0  0  0  0  0  0  0
   67.0115   82.9607   90.9548 C   0  0  0  0  0  0  0  0  0  0  0  0
   67.5618   81.6811   91.0579 C   0  0  0  0  0  0  0  0  0  0  0  0
   68.5543   81.2606   90.1560 C   0  0  0  0  0  0  0  0  0  0  0  0
   68.9889   82.1462   89.1532 C   0  0  0  0  0  0  0  0  0  0  0  0
   68.8167   84.3253   88.0358 O   0  0  0  0  0  0  0  0  0  0  0  0
   72.1768   86.8554   88.2180 C   0  0  0  0  0  0  0  0  0  0  0  0
   72.3459   85.5098   87.8676 C   0  0  0  0  0  0  0  0  0  0  0  0
   71.2374   84.6615   87.7867 C   0  0  0  0  0  0  0  0  0  0  0  0
   69.9476   85.1541   88.0575 C   0  0  0  0  0  0  0  0  0  0  0  0
   69.7877   86.4982   88.4146 C   0  0  0  0  0  0  0  0  0  0  0  0
   70.8948   87.3488   88.4871 C   0  0  0  0  0  0  0  0  0  0  0  0
   74.2356   88.4281   88.3909 N   0  0  0  0  0  0  0  0  0  0  0  0
   73.3179   87.7273   88.3136 C   0  0  0  0  0  0  0  0  0  0  0  0
   67.8964   76.2713   90.7021 C   0  0  0  0  0  0  0  0  0  0  0  0
   67.0302   76.3628   91.8352 O   0  0  0  0  0  0  0  0  0  0  0  0
   67.0904   75.5481   92.9780 C   0  0  0  0  0  0  0  0  0  0  0  0
   65.9877   75.5358   93.8335 C   0  0  0  0  0  0  0  0  0  0  0  0
   65.9910   74.7456   94.9814 C   0  0  0  0  0  0  0  0  0  0  0  0
   67.1088   73.9742   95.3143 C   0  0  0  0  0  0  0  0  0  0  0  0
   67.0278   73.1705   96.4534 O   0  0  0  0  0  0  0  0  0  0  0  0
   68.2546   74.0074   94.4809 C   0  0  0  0  0  0  0  0  0  0  0  0
   68.2165   74.7669   93.2974 C   0  0  0  0  0  0  0  0  0  0  0  0
   69.5094   73.3027   94.8219 C   0  0  0  0  0  0  0  0  0  0  0  0
   70.4544   73.2328   93.9914 O   0  0  0  0  0  0  0  0  0  0  0  0
   69.6285   72.6546   96.0483 O   0  0  0  0  0  0  0  0  0  0  0  0
 20 21  3  0
 21 14  1  0
 14 15  2  0
 15 16  1  0
 16 17  2  0
 17 13  1  0
 13  7  1  0
  7  8  2  0
  8  9  1  0
  9 10  2  0
 10 11  1  0
 11  1  1  0
  1  2  2  0
  2  3  1  0
  3  4  2  0
  4  5  1  0
  5 22  1  0
 22 23  1  0
 23 24  1  0
 24 25  2  0
 25 26  1  0
 26 27  2  0
 27 28  1  0
 27 29  1  0
 29 31  1  0
 31 32  2  0
 31 33  1  0
 29 30  2  0
  5  6  2  0
 11 12  2  0
 17 18  1  0
 18 19  2  0
 19 14  1  0
 12  7  1  0
  6  1  1  0
 30 24  1  0
M  END
>  <Activity>  (65) 
-0.960538

>  <minimizedAffinity>  (65) 
-9.02722

>  <MorganFP>  (65) 
<rdkit.DataStructs.cDataStructs.ExplicitBitVect object at 0x7f21e41bdc80>

$$$$
HIPS6992
     RDKit          3D

 33 36  0  0  0  0  0  0  0  0999 V2000
   67.7344   74.9972   89.4765 C   0  0  0  0  0  0  0  0  0  0  0  0
   67.0543   73.8786   88.9667 C   0  0  0  0  0  0  0  0  0  0  0  0
   67.3384   72.6003   89.4493 C   0  0  0  0  0  0  0  0  0  0  0  0
   68.3081   72.4229   90.4373 C   0  0  0  0  0  0  0  0  0  0  0  0
   69.0021   73.5246   90.9597 C   0  0  0  0  0  0  0  0  0  0  0  0
   68.6910   74.8153   90.4912 C   0  0  0  0  0  0  0  0  0  0  0  0
   67.4429   78.7747   89.2013 C   0  0  0  0  0  0  0  0  0  0  0  0
   67.0608   78.9141   87.8631 C   0  0  0  0  0  0  0  0  0  0  0  0
   66.8695   77.7867   87.0618 C   0  0  0  0  0  0  0  0  0  0  0  0
   67.0745   76.5091   87.5877 C   0  0  0  0  0  0  0  0  0  0  0  0
   67.4714   76.3478   88.9262 C   0  0  0  0  0  0  0  0  0  0  0  0
   67.6538   77.4882   89.7292 C   0  0  0  0  0  0  0  0  0  0  0  0
   67.6611   79.9321   89.9622 O   0  0  0  0  0  0  0  0  0  0  0  0
   71.1421   82.2858   89.7010 C   0  0  0  0  0  0  0  0  0  0  0  0
   69.9053   82.8444   89.3542 C   0  0  0  0  0  0  0  0  0  0  0  0
   68.7386   82.0800   89.4517 C   0  0  0  0  0  0  0  0  0  0  0  0
   68.8005   80.7470   89.8973 C   0  0  0  0  0  0  0  0  0  0  0  0
   70.0414   80.1935   90.2347 C   0  0  0  0  0  0  0  0  0  0  0  0
   71.2070   80.9601   90.1456 C   0  0  0  0  0  0  0  0  0  0  0  0
   73.3138   83.6948   89.5001 N   0  0  0  0  0  0  0  0  0  0  0  0
   72.3457   83.0670   89.5898 C   0  0  0  0  0  0  0  0  0  0  0  0
   70.0391   73.2843   92.0321 C   0  0  0  0  0  0  0  0  0  0  0  0
   69.9773   74.2321   93.1000 O   0  0  0  0  0  0  0  0  0  0  0  0
   68.8031   74.6841   93.7248 C   0  0  0  0  0  0  0  0  0  0  0  0
   68.1619   73.8234   94.6171 C   0  0  0  0  0  0  0  0  0  0  0  0
   66.9943   74.2190   95.2670 C   0  0  0  0  0  0  0  0  0  0  0  0
   66.4263   75.4717   95.0156 C   0  0  0  0  0  0  0  0  0  0  0  0
   65.2819   75.8225   95.7348 O   0  0  0  0  0  0  0  0  0  0  0  0
   67.0389   76.3422   94.0799 C   0  0  0  0  0  0  0  0  0  0  0  0
   68.2463   75.9517   93.4728 C   0  0  0  0  0  0  0  0  0  0  0  0
   66.4415   77.6361   93.6846 C   0  0  0  0  0  0  0  0  0  0  0  0
   65.2737   77.9426   94.0450 O   0  0  0  0  0  0  0  0  0  0  0  0
   67.1489   78.5006   92.8537 O   0  0  0  0  0  0  0  0  0  0  0  0
 20 21  3  0
 21 14  1  0
 14 15  2  0
 15 16  1  0
 16 17  2  0
 17 13  1  0
 13  7  1  0
  7  8  2  0
  8  9  1  0
  9 10  2  0
 10 11  1  0
 11  1  1  0
  1  2  2  0
  2  3  1  0
  3  4  2  0
  4  5  1  0
  5 22  1  0
 22 23  1  0
 23 24  1  0
 24 25  2  0
 25 26  1  0
 26 27  2  0
 27 28  1  0
 27 29  1  0
 29 31  1  0
 31 32  2  0
 31 33  1  0
 29 30  2  0
  5  6  2  0
 11 12  2  0
 17 18  1  0
 18 19  2  0
 19 14  1  0
 12  7  1  0
  6  1  1  0
 30 24  1  0
M  END
>  <Activity>  (66) 
-0.960538

>  <minimizedAffinity>  (66) 
-9.00685

>  <MorganFP>  (66) 
<rdkit.DataStructs.cDataStructs.ExplicitBitVect object at 0x7f21e41bdcf0>

$$$$
HIPS6994
     RDKit          3D

 32 35  0  0  0  0  0  0  0  0999 V2000
   67.5711   78.0109   88.7671 C   0  0  0  0  0  0  0  0  0  0  0  0
   66.8161   78.6020   87.7381 C   0  0  0  0  0  0  0  0  0  0  0  0
   66.8365   79.9859   87.5512 C   0  0  0  0  0  0  0  0  0  0  0  0
   67.6141   80.7953   88.3811 C   0  0  0  0  0  0  0  0  0  0  0  0
   68.3828   80.2247   89.4059 C   0  0  0  0  0  0  0  0  0  0  0  0
   68.3472   78.8344   89.6033 C   0  0  0  0  0  0  0  0  0  0  0  0
   68.1936   74.5665   90.2574 C   0  0  0  0  0  0  0  0  0  0  0  0
   67.5156   73.7548   89.3427 C   0  0  0  0  0  0  0  0  0  0  0  0
   66.8741   74.3190   88.2383 C   0  0  0  0  0  0  0  0  0  0  0  0
   66.8959   75.7021   88.0443 C   0  0  0  0  0  0  0  0  0  0  0  0
   67.5551   76.5392   88.9623 C   0  0  0  0  0  0  0  0  0  0  0  0
   68.1944   75.9613   90.0743 C   0  0  0  0  0  0  0  0  0  0  0  0
   68.8150   73.9641   91.3614 O   0  0  0  0  0  0  0  0  0  0  0  0
   66.8289   74.1439   96.7188 C   0  0  0  0  0  0  0  0  0  0  0  0
   67.3687   74.0678   95.3214 C   0  0  0  0  0  0  0  0  0  0  0  0
   68.7109   74.3847   95.0636 C   0  0  0  0  0  0  0  0  0  0  0  0
   69.2049   74.3495   93.7564 C   0  0  0  0  0  0  0  0  0  0  0  0
   68.3540   74.0224   92.6851 C   0  0  0  0  0  0  0  0  0  0  0  0
   67.0168   73.7031   92.9458 C   0  0  0  0  0  0  0  0  0  0  0  0
   66.5216   73.7377   94.2529 C   0  0  0  0  0  0  0  0  0  0  0  0
   69.2324   81.1030   90.2864 C   0  0  0  0  0  0  0  0  0  0  0  0
   70.5177   81.3154   89.7004 O   0  0  0  0  0  0  0  0  0  0  0  0
   70.9979   82.5430   89.2142 C   0  0  0  0  0  0  0  0  0  0  0  0
   72.3094   82.9059   89.5264 C   0  0  0  0  0  0  0  0  0  0  0  0
   72.8341   84.1187   89.0812 C   0  0  0  0  0  0  0  0  0  0  0  0
   72.0539   84.9930   88.3124 C   0  0  0  0  0  0  0  0  0  0  0  0
   72.6030   86.2025   87.8869 O   0  0  0  0  0  0  0  0  0  0  0  0
   70.7259   84.6429   87.9785 C   0  0  0  0  0  0  0  0  0  0  0  0
   70.2130   83.4109   88.4318 C   0  0  0  0  0  0  0  0  0  0  0  0
   69.8631   85.5408   87.1663 C   0  0  0  0  0  0  0  0  0  0  0  0
   69.7189   86.7501   87.4944 O   0  0  0  0  0  0  0  0  0  0  0  0
   69.2028   85.0682   86.0355 O   0  0  0  0  0  0  0  0  0  0  0  0
 14 15  1  0
 15 16  2  0
 16 17  1  0
 17 18  2  0
 18 13  1  0
 13  7  1  0
  7  8  2  0
  8  9  1  0
  9 10  2  0
 10 11  1  0
 11  1  1  0
  1  2  2  0
  2  3  1  0
  3  4  2  0
  4  5  1  0
  5 21  1  0
 21 22  1  0
 22 23  1  0
 23 24  2  0
 24 25  1  0
 25 26  2  0
 26 27  1  0
 26 28  1  0
 28 30  1  0
 30 31  2  0
 30 32  1  0
 28 29  2  0
  5  6  2  0
 11 12  2  0
 18 19  1  0
 19 20  2  0
 20 15  1  0
 12  7  1  0
  6  1  1  0
 29 23  1  0
M  END
>  <Activity>  (67) 
-1.38477

>  <minimizedAffinity>  (67) 
-9.53000

>  <MorganFP>  (67) 
<rdkit.DataStructs.cDataStructs.ExplicitBitVect object at 0x7f21e41bdf20>

$$$$
HIPS6994
     RDKit          3D

 32 35  0  0  0  0  0  0  0  0999 V2000
   68.5853   78.5968   89.1371 C   0  0  0  0  0  0  0  0  0  0  0  0
   67.7965   77.6844   88.4136 C   0  0  0  0  0  0  0  0  0  0  0  0
   66.7629   78.1391   87.5919 C   0  0  0  0  0  0  0  0  0  0  0  0
   66.5081   79.5066   87.4755 C   0  0  0  0  0  0  0  0  0  0  0  0
   67.2900   80.4336   88.1799 C   0  0  0  0  0  0  0  0  0  0  0  0
   68.3179   79.9732   89.0194 C   0  0  0  0  0  0  0  0  0  0  0  0
   70.6126   76.4316   91.5193 C   0  0  0  0  0  0  0  0  0  0  0  0
   71.7801   77.1915   91.6407 C   0  0  0  0  0  0  0  0  0  0  0  0
   71.9034   78.4086   90.9676 C   0  0  0  0  0  0  0  0  0  0  0  0
   70.8637   78.8720   90.1580 C   0  0  0  0  0  0  0  0  0  0  0  0
   69.6886   78.1145   90.0059 C   0  0  0  0  0  0  0  0  0  0  0  0
   69.5760   76.8874   90.6846 C   0  0  0  0  0  0  0  0  0  0  0  0
   70.5312   75.2081   92.2006 O   0  0  0  0  0  0  0  0  0  0  0  0
   66.3767   73.8166   95.8726 C   0  0  0  0  0  0  0  0  0  0  0  0
   67.4422   74.1902   94.8852 C   0  0  0  0  0  0  0  0  0  0  0  0
   67.6881   73.3771   93.7687 C   0  0  0  0  0  0  0  0  0  0  0  0
   68.7056   73.7053   92.8680 C   0  0  0  0  0  0  0  0  0  0  0  0
   69.5091   74.8387   93.0879 C   0  0  0  0  0  0  0  0  0  0  0  0
   69.2589   75.6499   94.2002 C   0  0  0  0  0  0  0  0  0  0  0  0
   68.2413   75.3228   95.1016 C   0  0  0  0  0  0  0  0  0  0  0  0
   67.0199   81.9083   88.0360 C   0  0  0  0  0  0  0  0  0  0  0  0
   67.8673   82.4834   87.0402 O   0  0  0  0  0  0  0  0  0  0  0  0
   68.9385   83.3578   87.2890 C   0  0  0  0  0  0  0  0  0  0  0  0
   68.9528   84.5857   86.6249 C   0  0  0  0  0  0  0  0  0  0  0  0
   69.9979   85.4871   86.8240 C   0  0  0  0  0  0  0  0  0  0  0  0
   71.0509   85.1755   87.6947 C   0  0  0  0  0  0  0  0  0  0  0  0
   72.0864   86.0936   87.8689 O   0  0  0  0  0  0  0  0  0  0  0  0
   71.0536   83.9411   88.3830 C   0  0  0  0  0  0  0  0  0  0  0  0
   69.9869   83.0439   88.1746 C   0  0  0  0  0  0  0  0  0  0  0  0
   72.1510   83.5698   89.3148 C   0  0  0  0  0  0  0  0  0  0  0  0
   73.3202   84.0023   89.1229 O   0  0  0  0  0  0  0  0  0  0  0  0
   71.9114   82.7441   90.4098 O   0  0  0  0  0  0  0  0  0  0  0  0
 14 15  1  0
 15 16  2  0
 16 17  1  0
 17 18  2  0
 18 13  1  0
 13  7  1  0
  7  8  2  0
  8  9  1  0
  9 10  2  0
 10 11  1  0
 11  1  1  0
  1  2  2  0
  2  3  1  0
  3  4  2  0
  4  5  1  0
  5 21  1  0
 21 22  1  0
 22 23  1  0
 23 24  2  0
 24 25  1  0
 25 26  2  0
 26 27  1  0
 26 28  1  0
 28 30  1  0
 30 31  2  0
 30 32  1  0
 28 29  2  0
  5  6  2  0
 11 12  2  0
 18 19  1  0
 19 20  2  0
 20 15  1  0
 12  7  1  0
  6  1  1  0
 29 23  1  0
M  END
>  <Activity>  (68) 
-1.38477

>  <minimizedAffinity>  (68) 
-9.38256

>  <MorganFP>  (68) 
<rdkit.DataStructs.cDataStructs.ExplicitBitVect object at 0x7f21e41bdf90>

$$$$
HIPS6994
     RDKit          3D

 32 35  0  0  0  0  0  0  0  0999 V2000
   70.0450   76.7236   91.9592 C   0  0  0  0  0  0  0  0  0  0  0  0
   71.4013   76.9405   91.6567 C   0  0  0  0  0  0  0  0  0  0  0  0
   71.7676   77.8487   90.6610 C   0  0  0  0  0  0  0  0  0  0  0  0
   70.7887   78.5562   89.9612 C   0  0  0  0  0  0  0  0  0  0  0  0
   69.4311   78.3626   90.2550 C   0  0  0  0  0  0  0  0  0  0  0  0
   69.0642   77.4358   91.2447 C   0  0  0  0  0  0  0  0  0  0  0  0
   69.1670   73.4765   93.7363 C   0  0  0  0  0  0  0  0  0  0  0  0
   68.9303   73.9396   95.0343 C   0  0  0  0  0  0  0  0  0  0  0  0
   69.0377   75.3002   95.3289 C   0  0  0  0  0  0  0  0  0  0  0  0
   69.3933   76.2093   94.3298 C   0  0  0  0  0  0  0  0  0  0  0  0
   69.6551   75.7630   93.0221 C   0  0  0  0  0  0  0  0  0  0  0  0
   69.5487   74.3895   92.7365 C   0  0  0  0  0  0  0  0  0  0  0  0
   69.0620   72.1009   93.4821 O   0  0  0  0  0  0  0  0  0  0  0  0
   73.1959   68.7413   91.4078 C   0  0  0  0  0  0  0  0  0  0  0  0
   72.1283   69.6510   91.9392 C   0  0  0  0  0  0  0  0  0  0  0  0
   72.3904   70.4827   93.0383 C   0  0  0  0  0  0  0  0  0  0  0  0
   71.3848   71.3036   93.5568 C   0  0  0  0  0  0  0  0  0  0  0  0
   70.0939   71.2830   92.9982 C   0  0  0  0  0  0  0  0  0  0  0  0
   69.8365   70.4553   91.8997 C   0  0  0  0  0  0  0  0  0  0  0  0
   70.8417   69.6340   91.3800 C   0  0  0  0  0  0  0  0  0  0  0  0
   68.3815   79.1422   89.5072 C   0  0  0  0  0  0  0  0  0  0  0  0
   67.2520   78.3184   89.2141 O   0  0  0  0  0  0  0  0  0  0  0  0
   67.2245   77.2816   88.2664 C   0  0  0  0  0  0  0  0  0  0  0  0
   67.4761   77.6042   86.9316 C   0  0  0  0  0  0  0  0  0  0  0  0
   67.4491   76.6174   85.9468 C   0  0  0  0  0  0  0  0  0  0  0  0
   67.1696   75.2853   86.2808 C   0  0  0  0  0  0  0  0  0  0  0  0
   67.1424   74.3208   85.2736 O   0  0  0  0  0  0  0  0  0  0  0  0
   66.9188   74.9347   87.6268 C   0  0  0  0  0  0  0  0  0  0  0  0
   66.9555   75.9433   88.6104 C   0  0  0  0  0  0  0  0  0  0  0  0
   66.6171   73.5343   88.0250 C   0  0  0  0  0  0  0  0  0  0  0  0
   66.9832   73.1021   89.1519 O   0  0  0  0  0  0  0  0  0  0  0  0
   65.9292   72.6793   87.1685 O   0  0  0  0  0  0  0  0  0  0  0  0
 14 15  1  0
 15 16  2  0
 16 17  1  0
 17 18  2  0
 18 13  1  0
 13  7  1  0
  7  8  2  0
  8  9  1  0
  9 10  2  0
 10 11  1  0
 11  1  1  0
  1  2  2  0
  2  3  1  0
  3  4  2  0
  4  5  1  0
  5 21  1  0
 21 22  1  0
 22 23  1  0
 23 24  2  0
 24 25  1  0
 25 26  2  0
 26 27  1  0
 26 28  1  0
 28 30  1  0
 30 31  2  0
 30 32  1  0
 28 29  2  0
  5  6  2  0
 11 12  2  0
 18 19  1  0
 19 20  2  0
 20 15  1  0
 12  7  1  0
  6  1  1  0
 29 23  1  0
M  END
>  <Activity>  (69) 
-1.38477

>  <minimizedAffinity>  (69) 
-9.36530

>  <MorganFP>  (69) 
<rdkit.DataStructs.cDataStructs.ExplicitBitVect object at 0x7f21e41be040>

$$$$
HIPS6999
     RDKit          3D

 33 36  0  0  0  0  0  0  0  0999 V2000
   70.2374   80.8560   89.8975 C   0  0  0  0  0  0  0  0  0  0  0  0
   68.8350   80.9597   89.9361 C   0  0  0  0  0  0  0  0  0  0  0  0
   68.0554   79.8669   90.3207 C   0  0  0  0  0  0  0  0  0  0  0  0
   68.6619   78.6576   90.6649 C   0  0  0  0  0  0  0  0  0  0  0  0
   70.0582   78.5290   90.6182 C   0  0  0  0  0  0  0  0  0  0  0  0
   70.8411   79.6345   90.2481 C   0  0  0  0  0  0  0  0  0  0  0  0
   71.3545   84.0581   88.1708 C   0  0  0  0  0  0  0  0  0  0  0  0
   72.6163   84.2403   88.7462 C   0  0  0  0  0  0  0  0  0  0  0  0
   73.1057   83.3291   89.6840 C   0  0  0  0  0  0  0  0  0  0  0  0
   72.3360   82.2260   90.0593 C   0  0  0  0  0  0  0  0  0  0  0  0
   71.0667   82.0189   89.4917 C   0  0  0  0  0  0  0  0  0  0  0  0
   70.5881   82.9348   88.5373 C   0  0  0  0  0  0  0  0  0  0  0  0
   70.9012   85.0141   87.2467 O   0  0  0  0  0  0  0  0  0  0  0  0
   69.6365   85.6768   87.2987 C   0  0  0  0  0  0  0  0  0  0  0  0
   69.1639   88.8791   92.1362 C   0  0  0  0  0  0  0  0  0  0  0  0
   69.2658   88.0646   90.8807 C   0  0  0  0  0  0  0  0  0  0  0  0
   69.9578   88.5650   89.7677 C   0  0  0  0  0  0  0  0  0  0  0  0
   70.0823   87.7929   88.6092 C   0  0  0  0  0  0  0  0  0  0  0  0
   69.5170   86.5089   88.5490 C   0  0  0  0  0  0  0  0  0  0  0  0
   68.8527   85.9970   89.6742 C   0  0  0  0  0  0  0  0  0  0  0  0
   68.7304   86.7687   90.8336 C   0  0  0  0  0  0  0  0  0  0  0  0
   70.7178   77.2252   90.9850 C   0  0  0  0  0  0  0  0  0  0  0  0
   70.1278   76.6688   92.1609 O   0  0  0  0  0  0  0  0  0  0  0  0
   69.2532   75.5698   92.1898 C   0  0  0  0  0  0  0  0  0  0  0  0
   69.0746   74.8398   91.0132 C   0  0  0  0  0  0  0  0  0  0  0  0
   68.2199   73.7381   90.9855 C   0  0  0  0  0  0  0  0  0  0  0  0
   67.5289   73.3413   92.1351 C   0  0  0  0  0  0  0  0  0  0  0  0
   66.7482   72.1858   92.0565 O   0  0  0  0  0  0  0  0  0  0  0  0
   67.6692   74.0912   93.3299 C   0  0  0  0  0  0  0  0  0  0  0  0
   68.5532   75.1855   93.3488 C   0  0  0  0  0  0  0  0  0  0  0  0
   66.8977   73.7924   94.5571 C   0  0  0  0  0  0  0  0  0  0  0  0
   67.4856   73.5369   95.6418 O   0  0  0  0  0  0  0  0  0  0  0  0
   65.5077   73.7293   94.5036 O   0  0  0  0  0  0  0  0  0  0  0  0
 15 16  1  0
 16 17  2  0
 17 18  1  0
 18 19  2  0
 19 14  1  0
 14 13  1  0
 13  7  1  0
  7  8  2  0
  8  9  1  0
  9 10  2  0
 10 11  1  0
 11  1  1  0
  1  2  2  0
  2  3  1  0
  3  4  2  0
  4  5  1  0
  5 22  1  0
 22 23  1  0
 23 24  1  0
 24 25  2  0
 25 26  1  0
 26 27  2  0
 27 28  1  0
 27 29  1  0
 29 31  1  0
 31 32  2  0
 31 33  1  0
 29 30  2  0
  5  6  2  0
 11 12  2  0
 19 20  1  0
 20 21  2  0
 21 16  1  0
 12  7  1  0
  6  1  1  0
 30 24  1  0
M  END
>  <Activity>  (70) 
-1.166813

>  <minimizedAffinity>  (70) 
-9.75755

>  <MorganFP>  (70) 
<rdkit.DataStructs.cDataStructs.ExplicitBitVect object at 0x7f21e41be200>

$$$$
HIPS6999
     RDKit          3D

 33 36  0  0  0  0  0  0  0  0999 V2000
   69.3061   78.2164   90.2115 C   0  0  0  0  0  0  0  0  0  0  0  0
   70.6986   78.4011   90.1366 C   0  0  0  0  0  0  0  0  0  0  0  0
   71.5532   77.6848   90.9772 C   0  0  0  0  0  0  0  0  0  0  0  0
   71.0314   76.7820   91.9054 C   0  0  0  0  0  0  0  0  0  0  0  0
   69.6447   76.5946   92.0063 C   0  0  0  0  0  0  0  0  0  0  0  0
   68.7883   77.3030   91.1480 C   0  0  0  0  0  0  0  0  0  0  0  0
   67.6037   81.1078   88.4158 C   0  0  0  0  0  0  0  0  0  0  0  0
   66.7057   80.4159   87.5965 C   0  0  0  0  0  0  0  0  0  0  0  0
   66.6473   79.0214   87.6285 C   0  0  0  0  0  0  0  0  0  0  0  0
   67.4898   78.3026   88.4793 C   0  0  0  0  0  0  0  0  0  0  0  0
   68.3975   78.9756   89.3154 C   0  0  0  0  0  0  0  0  0  0  0  0
   68.4391   80.3813   89.2863 C   0  0  0  0  0  0  0  0  0  0  0  0
   67.6357   82.5097   88.3313 O   0  0  0  0  0  0  0  0  0  0  0  0
   67.9316   83.2585   87.1509 C   0  0  0  0  0  0  0  0  0  0  0  0
   72.6213   86.6126   87.9484 C   0  0  0  0  0  0  0  0  0  0  0  0
   71.4115   85.7447   87.7669 C   0  0  0  0  0  0  0  0  0  0  0  0
   70.1255   86.3011   87.8367 C   0  0  0  0  0  0  0  0  0  0  0  0
   68.9985   85.4996   87.6340 C   0  0  0  0  0  0  0  0  0  0  0  0
   69.1428   84.1304   87.3575 C   0  0  0  0  0  0  0  0  0  0  0  0
   70.4306   83.5818   87.2563 C   0  0  0  0  0  0  0  0  0  0  0  0
   71.5576   84.3843   87.4568 C   0  0  0  0  0  0  0  0  0  0  0  0
   69.0761   75.6244   93.0087 C   0  0  0  0  0  0  0  0  0  0  0  0
   70.0480   74.6448   93.3777 O   0  0  0  0  0  0  0  0  0  0  0  0
   70.0174   73.2896   93.0088 C   0  0  0  0  0  0  0  0  0  0  0  0
   69.4467   72.9551   91.7793 C   0  0  0  0  0  0  0  0  0  0  0  0
   69.3916   71.6255   91.3618 C   0  0  0  0  0  0  0  0  0  0  0  0
   69.9095   70.6033   92.1637 C   0  0  0  0  0  0  0  0  0  0  0  0
   69.8891   69.3038   91.6521 O   0  0  0  0  0  0  0  0  0  0  0  0
   70.4604   70.9189   93.4311 C   0  0  0  0  0  0  0  0  0  0  0  0
   70.5307   72.2668   93.8280 C   0  0  0  0  0  0  0  0  0  0  0  0
   70.9383   69.8846   94.3756 C   0  0  0  0  0  0  0  0  0  0  0  0
   71.6057   68.8971   93.9667 O   0  0  0  0  0  0  0  0  0  0  0  0
   70.5959   69.9651   95.7230 O   0  0  0  0  0  0  0  0  0  0  0  0
 15 16  1  0
 16 17  2  0
 17 18  1  0
 18 19  2  0
 19 14  1  0
 14 13  1  0
 13  7  1  0
  7  8  2  0
  8  9  1  0
  9 10  2  0
 10 11  1  0
 11  1  1  0
  1  2  2  0
  2  3  1  0
  3  4  2  0
  4  5  1  0
  5 22  1  0
 22 23  1  0
 23 24  1  0
 24 25  2  0
 25 26  1  0
 26 27  2  0
 27 28  1  0
 27 29  1  0
 29 31  1  0
 31 32  2  0
 31 33  1  0
 29 30  2  0
  5  6  2  0
 11 12  2  0
 19 20  1  0
 20 21  2  0
 21 16  1  0
 12  7  1  0
  6  1  1  0
 30 24  1  0
M  END
>  <Activity>  (71) 
-1.166813

>  <minimizedAffinity>  (71) 
-9.66370

>  <MorganFP>  (71) 
<rdkit.DataStructs.cDataStructs.ExplicitBitVect object at 0x7f21e41be270>

$$$$
HIPS6999
     RDKit          3D

 33 36  0  0  0  0  0  0  0  0999 V2000
   69.0703   79.9943   90.2335 C   0  0  0  0  0  0  0  0  0  0  0  0
   70.4263   79.6221   90.1911 C   0  0  0  0  0  0  0  0  0  0  0  0
   70.7981   78.2855   90.3499 C   0  0  0  0  0  0  0  0  0  0  0  0
   69.8257   77.3058   90.5588 C   0  0  0  0  0  0  0  0  0  0  0  0
   68.4692   77.6584   90.6196 C   0  0  0  0  0  0  0  0  0  0  0  0
   68.0964   79.0007   90.4422 C   0  0  0  0  0  0  0  0  0  0  0  0
   68.5210   83.4174   88.6642 C   0  0  0  0  0  0  0  0  0  0  0  0
   67.8964   84.0924   89.7182 C   0  0  0  0  0  0  0  0  0  0  0  0
   67.6590   83.4452   90.9322 C   0  0  0  0  0  0  0  0  0  0  0  0
   68.0414   82.1131   91.1045 C   0  0  0  0  0  0  0  0  0  0  0  0
   68.6747   81.4151   90.0615 C   0  0  0  0  0  0  0  0  0  0  0  0
   68.9222   82.0799   88.8469 C   0  0  0  0  0  0  0  0  0  0  0  0
   68.7193   84.1085   87.4573 O   0  0  0  0  0  0  0  0  0  0  0  0
   68.6753   85.5282   87.3028 C   0  0  0  0  0  0  0  0  0  0  0  0
   73.7571   87.9252   88.8220 C   0  0  0  0  0  0  0  0  0  0  0  0
   72.4465   87.2965   88.4521 C   0  0  0  0  0  0  0  0  0  0  0  0
   71.2398   87.9303   88.7842 C   0  0  0  0  0  0  0  0  0  0  0  0
   70.0188   87.3621   88.4101 C   0  0  0  0  0  0  0  0  0  0  0  0
   69.9884   86.1524   87.6975 C   0  0  0  0  0  0  0  0  0  0  0  0
   71.1970   85.5361   87.3383 C   0  0  0  0  0  0  0  0  0  0  0  0
   72.4181   86.1059   87.7105 C   0  0  0  0  0  0  0  0  0  0  0  0
   67.4160   76.6059   90.8484 C   0  0  0  0  0  0  0  0  0  0  0  0
   66.8006   76.7704   92.1269 O   0  0  0  0  0  0  0  0  0  0  0  0
   66.9348   75.8900   93.2134 C   0  0  0  0  0  0  0  0  0  0  0  0
   65.8984   75.8345   94.1472 C   0  0  0  0  0  0  0  0  0  0  0  0
   65.9779   74.9768   95.2441 C   0  0  0  0  0  0  0  0  0  0  0  0
   67.0939   74.1539   95.4277 C   0  0  0  0  0  0  0  0  0  0  0  0
   67.0749   73.2658   96.5055 O   0  0  0  0  0  0  0  0  0  0  0  0
   68.1723   74.2220   94.5101 C   0  0  0  0  0  0  0  0  0  0  0  0
   68.0672   75.0744   93.3958 C   0  0  0  0  0  0  0  0  0  0  0  0
   69.4256   73.4559   94.6905 C   0  0  0  0  0  0  0  0  0  0  0  0
   70.3124   73.4507   93.7954 O   0  0  0  0  0  0  0  0  0  0  0  0
   69.6051   72.6796   95.8326 O   0  0  0  0  0  0  0  0  0  0  0  0
 15 16  1  0
 16 17  2  0
 17 18  1  0
 18 19  2  0
 19 14  1  0
 14 13  1  0
 13  7  1  0
  7  8  2  0
  8  9  1  0
  9 10  2  0
 10 11  1  0
 11  1  1  0
  1  2  2  0
  2  3  1  0
  3  4  2  0
  4  5  1  0
  5 22  1  0
 22 23  1  0
 23 24  1  0
 24 25  2  0
 25 26  1  0
 26 27  2  0
 27 28  1  0
 27 29  1  0
 29 31  1  0
 31 32  2  0
 31 33  1  0
 29 30  2  0
  5  6  2  0
 11 12  2  0
 19 20  1  0
 20 21  2  0
 21 16  1  0
 12  7  1  0
  6  1  1  0
 30 24  1  0
M  END
>  <Activity>  (72) 
-1.166813

>  <minimizedAffinity>  (72) 
-9.39930

>  <MorganFP>  (72) 
<rdkit.DataStructs.cDataStructs.ExplicitBitVect object at 0x7f21e41be2e0>

$$$$
HIPS7000
     RDKit          3D

 36 39  0  0  0  0  0  0  0  0999 V2000
   68.8663   73.7825   90.9540 C   0  0  0  0  0  0  0  0  0  0  0  0
   68.2112   72.6300   90.4981 C   0  0  0  0  0  0  0  0  0  0  0  0
   67.2822   72.7144   89.4585 C   0  0  0  0  0  0  0  0  0  0  0  0
   67.0177   73.9455   88.8526 C   0  0  0  0  0  0  0  0  0  0  0  0
   67.6508   75.1196   89.3084 C   0  0  0  0  0  0  0  0  0  0  0  0
   68.5451   75.0281   90.3924 C   0  0  0  0  0  0  0  0  0  0  0  0
   67.4376   76.4203   88.6135 C   0  0  0  0  0  0  0  0  0  0  0  0
   67.0585   76.4601   87.2599 C   0  0  0  0  0  0  0  0  0  0  0  0
   66.8945   77.6826   86.6044 C   0  0  0  0  0  0  0  0  0  0  0  0
   67.1062   78.8815   87.2876 C   0  0  0  0  0  0  0  0  0  0  0  0
   67.4775   78.8663   88.6437 C   0  0  0  0  0  0  0  0  0  0  0  0
   67.6430   77.6379   89.2924 C   0  0  0  0  0  0  0  0  0  0  0  0
   67.6699   80.0359   89.3979 O   0  0  0  0  0  0  0  0  0  0  0  0
   68.6872   80.2396   90.3770 C   0  0  0  0  0  0  0  0  0  0  0  0
   69.6512   81.2910   89.9046 C   0  0  0  0  0  0  0  0  0  0  0  0
   70.9733   81.2913   90.3736 C   0  0  0  0  0  0  0  0  0  0  0  0
   71.8825   82.2565   89.9265 C   0  0  0  0  0  0  0  0  0  0  0  0
   71.4934   83.2193   88.9790 C   0  0  0  0  0  0  0  0  0  0  0  0
   70.1654   83.2206   88.5168 C   0  0  0  0  0  0  0  0  0  0  0  0
   69.2547   82.2571   88.9674 C   0  0  0  0  0  0  0  0  0  0  0  0
   72.4585   84.2967   88.5452 C   0  0  0  0  0  0  0  0  0  0  0  0
   71.8346   85.5338   88.5166 F   0  0  0  0  0  0  0  0  0  0  0  0
   73.5176   84.3463   89.4357 F   0  0  0  0  0  0  0  0  0  0  0  0
   72.9470   84.0295   87.2780 F   0  0  0  0  0  0  0  0  0  0  0  0
   69.9977   73.6636   91.9447 C   0  0  0  0  0  0  0  0  0  0  0  0
   70.0564   74.8251   92.7795 O   0  0  0  0  0  0  0  0  0  0  0  0
   66.7889   75.7397   94.3575 C   0  0  0  0  0  0  0  0  0  0  0  0
   67.9592   75.0215   94.0618 C   0  0  0  0  0  0  0  0  0  0  0  0
   68.9429   75.5662   93.2169 C   0  0  0  0  0  0  0  0  0  0  0  0
   68.7948   76.8786   92.7569 C   0  0  0  0  0  0  0  0  0  0  0  0
   67.6523   77.6180   93.0788 C   0  0  0  0  0  0  0  0  0  0  0  0
   66.6429   77.0594   93.8696 C   0  0  0  0  0  0  0  0  0  0  0  0
   65.5287   77.8468   94.1721 O   0  0  0  0  0  0  0  0  0  0  0  0
   65.2306   75.6068   96.1449 O   0  0  0  0  0  0  0  0  0  0  0  0
   65.7229   75.0631   95.1171 C   0  0  0  0  0  0  0  0  0  0  0  0
   65.2066   73.8521   94.6609 O   0  0  0  0  0  0  0  0  0  0  0  0
 34 35  2  0
 35 36  1  0
 35 27  1  0
 27 28  2  0
 28 29  1  0
 29 26  1  0
 26 25  1  0
 25  1  1  0
  1  2  2  0
  2  3  1  0
  3  4  2  0
  4  5  1  0
  5  7  1  0
  7  8  2  0
  8  9  1  0
  9 10  2  0
 10 11  1  0
 11 13  1  0
 13 14  1  0
 14 15  1  0
 15 16  2  0
 16 17  1  0
 17 18  2  0
 18 21  1  0
 21 22  1  0
 21 23  1  0
 21 24  1  0
 18 19  1  0
 19 20  2  0
 11 12  2  0
  5  6  2  0
 29 30  2  0
 30 31  1  0
 31 32  2  0
 32 33  1  0
 32 27  1  0
  6  1  1  0
 12  7  1  0
 20 15  1  0
M  END
>  <Activity>  (73) 
-1.222361

>  <minimizedAffinity>  (73) 
-10.17618

>  <MorganFP>  (73) 
<rdkit.DataStructs.cDataStructs.ExplicitBitVect object at 0x7f21e41be350>

$$$$
HIPS7001
     RDKit          3D

 34 37  0  0  0  0  0  0  0  0999 V2000
   69.3502   78.1249   90.1706 C   0  0  0  0  0  0  0  0  0  0  0  0
   70.7389   78.3318   90.0963 C   0  0  0  0  0  0  0  0  0  0  0  0
   71.6034   77.6378   90.9464 C   0  0  0  0  0  0  0  0  0  0  0  0
   71.0945   76.7270   91.8746 C   0  0  0  0  0  0  0  0  0  0  0  0
   69.7122   76.5092   91.9660 C   0  0  0  0  0  0  0  0  0  0  0  0
   68.8446   77.2226   91.1231 C   0  0  0  0  0  0  0  0  0  0  0  0
   67.5639   80.9144   88.3067 C   0  0  0  0  0  0  0  0  0  0  0  0
   66.6775   80.1707   87.5045 C   0  0  0  0  0  0  0  0  0  0  0  0
   66.6689   78.7766   87.5731 C   0  0  0  0  0  0  0  0  0  0  0  0
   67.5376   78.1094   88.4384 C   0  0  0  0  0  0  0  0  0  0  0  0
   68.4298   78.8336   89.2479 C   0  0  0  0  0  0  0  0  0  0  0  0
   68.4350   80.2382   89.1704 C   0  0  0  0  0  0  0  0  0  0  0  0
   67.6102   82.3174   88.2846 O   0  0  0  0  0  0  0  0  0  0  0  0
   67.8507   83.1187   87.1278 C   0  0  0  0  0  0  0  0  0  0  0  0
   71.2159   85.7360   87.7952 C   0  0  0  0  0  0  0  0  0  0  0  0
   71.4163   84.3598   87.6286 C   0  0  0  0  0  0  0  0  0  0  0  0
   70.3253   83.5139   87.4089 C   0  0  0  0  0  0  0  0  0  0  0  0
   69.0228   84.0372   87.3504 C   0  0  0  0  0  0  0  0  0  0  0  0
   68.8260   85.4166   87.5318 C   0  0  0  0  0  0  0  0  0  0  0  0
   69.9184   86.2619   87.7490 C   0  0  0  0  0  0  0  0  0  0  0  0
   73.2444   87.3074   88.1951 N   0  0  0  0  0  0  0  0  0  0  0  0
   72.3404   86.6069   88.0171 C   0  0  0  0  0  0  0  0  0  0  0  0
   69.1738   75.5062   92.9521 C   0  0  0  0  0  0  0  0  0  0  0  0
   70.1712   74.5365   93.2779 O   0  0  0  0  0  0  0  0  0  0  0  0
   70.1147   73.1695   92.9554 C   0  0  0  0  0  0  0  0  0  0  0  0
   69.5587   72.8047   91.7280 C   0  0  0  0  0  0  0  0  0  0  0  0
   69.4684   71.4618   91.3619 C   0  0  0  0  0  0  0  0  0  0  0  0
   69.9331   70.4552   92.2148 C   0  0  0  0  0  0  0  0  0  0  0  0
   69.8761   69.1384   91.7535 O   0  0  0  0  0  0  0  0  0  0  0  0
   70.4698   70.8031   93.4805 C   0  0  0  0  0  0  0  0  0  0  0  0
   70.5853   72.1638   93.8195 C   0  0  0  0  0  0  0  0  0  0  0  0
   70.8771   69.7941   94.4868 C   0  0  0  0  0  0  0  0  0  0  0  0
   70.6676   69.9852   95.7152 O   0  0  0  0  0  0  0  0  0  0  0  0
   71.5643   68.6506   94.0849 O   0  0  0  0  0  0  0  0  0  0  0  0
 21 22  3  0
 22 15  1  0
 15 16  2  0
 16 17  1  0
 17 18  2  0
 18 14  1  0
 14 13  1  0
 13  7  1  0
  7  8  2  0
  8  9  1  0
  9 10  2  0
 10 11  1  0
 11  1  1  0
  1  2  2  0
  2  3  1  0
  3  4  2  0
  4  5  1  0
  5 23  1  0
 23 24  1  0
 24 25  1  0
 25 26  2  0
 26 27  1  0
 27 28  2  0
 28 29  1  0
 28 30  1  0
 30 32  1  0
 32 33  2  0
 32 34  1  0
 30 31  2  0
  5  6  2  0
 11 12  2  0
 18 19  1  0
 19 20  2  0
 20 15  1  0
 12  7  1  0
  6  1  1  0
 31 25  1  0
M  END
>  <Activity>  (74) 
-0.970519

>  <minimizedAffinity>  (74) 
-9.37397

>  <MorganFP>  (74) 
<rdkit.DataStructs.cDataStructs.ExplicitBitVect object at 0x7f21e41be4a0>

$$$$
HIPS7001
     RDKit          3D

 34 37  0  0  0  0  0  0  0  0999 V2000
   67.4353   76.7109   88.7253 C   0  0  0  0  0  0  0  0  0  0  0  0
   67.0458   76.8580   87.3824 C   0  0  0  0  0  0  0  0  0  0  0  0
   66.8628   78.1302   86.8348 C   0  0  0  0  0  0  0  0  0  0  0  0
   67.0712   79.2681   87.6169 C   0  0  0  0  0  0  0  0  0  0  0  0
   67.4568   79.1419   88.9593 C   0  0  0  0  0  0  0  0  0  0  0  0
   67.6214   77.8614   89.5120 C   0  0  0  0  0  0  0  0  0  0  0  0
   68.7487   73.9233   90.9503 C   0  0  0  0  0  0  0  0  0  0  0  0
   68.0998   72.8079   90.3871 C   0  0  0  0  0  0  0  0  0  0  0  0
   67.2434   72.9696   89.2968 C   0  0  0  0  0  0  0  0  0  0  0  0
   67.0252   74.2376   88.7556 C   0  0  0  0  0  0  0  0  0  0  0  0
   67.6639   75.3638   89.3030 C   0  0  0  0  0  0  0  0  0  0  0  0
   68.5226   75.1932   90.4041 C   0  0  0  0  0  0  0  0  0  0  0  0
   69.6259   73.8184   92.0414 O   0  0  0  0  0  0  0  0  0  0  0  0
   69.2720   74.0215   93.4094 C   0  0  0  0  0  0  0  0  0  0  0  0
   66.3398   77.1690   93.7497 C   0  0  0  0  0  0  0  0  0  0  0  0
   65.9429   75.8271   93.8113 C   0  0  0  0  0  0  0  0  0  0  0  0
   66.8947   74.8089   93.7045 C   0  0  0  0  0  0  0  0  0  0  0  0
   68.2538   75.1232   93.5382 C   0  0  0  0  0  0  0  0  0  0  0  0
   68.6448   76.4707   93.4633 C   0  0  0  0  0  0  0  0  0  0  0  0
   67.6922   77.4883   93.5728 C   0  0  0  0  0  0  0  0  0  0  0  0
   64.5715   79.0596   93.9568 N   0  0  0  0  0  0  0  0  0  0  0  0
   65.3596   78.2169   93.8642 C   0  0  0  0  0  0  0  0  0  0  0  0
   67.7046   80.3746   89.7883 C   0  0  0  0  0  0  0  0  0  0  0  0
   68.0455   81.4822   88.9526 O   0  0  0  0  0  0  0  0  0  0  0  0
   69.2894   82.1366   88.9345 C   0  0  0  0  0  0  0  0  0  0  0  0
   70.2687   81.7151   89.8355 C   0  0  0  0  0  0  0  0  0  0  0  0
   71.5171   82.3364   89.8675 C   0  0  0  0  0  0  0  0  0  0  0  0
   71.8133   83.3916   88.9983 C   0  0  0  0  0  0  0  0  0  0  0  0
   73.1058   83.9188   89.0367 O   0  0  0  0  0  0  0  0  0  0  0  0
   70.8203   83.8572   88.0992 C   0  0  0  0  0  0  0  0  0  0  0  0
   69.5786   83.1969   88.0560 C   0  0  0  0  0  0  0  0  0  0  0  0
   71.0145   85.0406   87.2283 C   0  0  0  0  0  0  0  0  0  0  0  0
   71.8307   85.9482   87.5436 O   0  0  0  0  0  0  0  0  0  0  0  0
   70.2377   85.1942   86.0819 O   0  0  0  0  0  0  0  0  0  0  0  0
 21 22  3  0
 22 15  1  0
 15 16  2  0
 16 17  1  0
 17 18  2  0
 18 14  1  0
 14 13  1  0
 13  7  1  0
  7  8  2  0
  8  9  1  0
  9 10  2  0
 10 11  1  0
 11  1  1  0
  1  2  2  0
  2  3  1  0
  3  4  2  0
  4  5  1  0
  5 23  1  0
 23 24  1  0
 24 25  1  0
 25 26  2  0
 26 27  1  0
 27 28  2  0
 28 29  1  0
 28 30  1  0
 30 32  1  0
 32 33  2  0
 32 34  1  0
 30 31  2  0
  5  6  2  0
 11 12  2  0
 18 19  1  0
 19 20  2  0
 20 15  1  0
 12  7  1  0
  6  1  1  0
 31 25  1  0
M  END
>  <Activity>  (75) 
-0.970519

>  <minimizedAffinity>  (75) 
-9.22818

>  <MorganFP>  (75) 
<rdkit.DataStructs.cDataStructs.ExplicitBitVect object at 0x7f21e41be510>

$$$$
HIPS7001
     RDKit          3D

 34 37  0  0  0  0  0  0  0  0999 V2000
   70.1731   80.9422   89.8783 C   0  0  0  0  0  0  0  0  0  0  0  0
   68.7863   81.1038   90.0439 C   0  0  0  0  0  0  0  0  0  0  0  0
   67.9982   80.0382   90.4856 C   0  0  0  0  0  0  0  0  0  0  0  0
   68.5837   78.8033   90.7722 C   0  0  0  0  0  0  0  0  0  0  0  0
   69.9648   78.6215   90.6103 C   0  0  0  0  0  0  0  0  0  0  0  0
   70.7513   79.6891   90.1478 C   0  0  0  0  0  0  0  0  0  0  0  0
   71.4045   83.9892   87.9688 C   0  0  0  0  0  0  0  0  0  0  0  0
   72.6331   84.2266   88.6141 C   0  0  0  0  0  0  0  0  0  0  0  0
   73.0483   83.4013   89.6604 C   0  0  0  0  0  0  0  0  0  0  0  0
   72.2498   82.3335   90.0736 C   0  0  0  0  0  0  0  0  0  0  0  0
   71.0201   82.0794   89.4420 C   0  0  0  0  0  0  0  0  0  0  0  0
   70.6068   82.9179   88.3908 C   0  0  0  0  0  0  0  0  0  0  0  0
   70.9411   84.7816   86.9065 O   0  0  0  0  0  0  0  0  0  0  0  0
   70.0804   85.9134   87.0335 C   0  0  0  0  0  0  0  0  0  0  0  0
   67.4843   85.4475   90.4487 C   0  0  0  0  0  0  0  0  0  0  0  0
   68.6666   86.1904   90.5590 C   0  0  0  0  0  0  0  0  0  0  0  0
   69.5046   86.3433   89.4506 C   0  0  0  0  0  0  0  0  0  0  0  0
   69.1662   85.7569   88.2196 C   0  0  0  0  0  0  0  0  0  0  0  0
   67.9859   85.0014   88.1180 C   0  0  0  0  0  0  0  0  0  0  0  0
   67.1473   84.8513   89.2267 C   0  0  0  0  0  0  0  0  0  0  0  0
   65.9250   85.1715   92.5069 N   0  0  0  0  0  0  0  0  0  0  0  0
   66.6197   85.2943   91.5894 C   0  0  0  0  0  0  0  0  0  0  0  0
   70.5919   77.2940   90.9463 C   0  0  0  0  0  0  0  0  0  0  0  0
   69.9996   76.7421   92.1236 O   0  0  0  0  0  0  0  0  0  0  0  0
   69.1755   75.6041   92.1642 C   0  0  0  0  0  0  0  0  0  0  0  0
   69.0394   74.8474   90.9992 C   0  0  0  0  0  0  0  0  0  0  0  0
   68.2260   73.7144   90.9808 C   0  0  0  0  0  0  0  0  0  0  0  0
   67.5324   73.3133   92.1274 C   0  0  0  0  0  0  0  0  0  0  0  0
   66.7937   72.1303   92.0567 O   0  0  0  0  0  0  0  0  0  0  0  0
   67.6302   74.0881   93.3112 C   0  0  0  0  0  0  0  0  0  0  0  0
   68.4819   75.2080   93.3226 C   0  0  0  0  0  0  0  0  0  0  0  0
   66.8399   73.7973   94.5308 C   0  0  0  0  0  0  0  0  0  0  0  0
   65.5855   73.9234   94.5335 O   0  0  0  0  0  0  0  0  0  0  0  0
   67.4900   73.4490   95.7129 O   0  0  0  0  0  0  0  0  0  0  0  0
 21 22  3  0
 22 15  1  0
 15 16  2  0
 16 17  1  0
 17 18  2  0
 18 14  1  0
 14 13  1  0
 13  7  1  0
  7  8  2  0
  8  9  1  0
  9 10  2  0
 10 11  1  0
 11  1  1  0
  1  2  2  0
  2  3  1  0
  3  4  2  0
  4  5  1  0
  5 23  1  0
 23 24  1  0
 24 25  1  0
 25 26  2  0
 26 27  1  0
 27 28  2  0
 28 29  1  0
 28 30  1  0
 30 32  1  0
 32 33  2  0
 32 34  1  0
 30 31  2  0
  5  6  2  0
 11 12  2  0
 18 19  1  0
 19 20  2  0
 20 15  1  0
 12  7  1  0
  6  1  1  0
 31 25  1  0
M  END
>  <Activity>  (76) 
-0.970519

>  <minimizedAffinity>  (76) 
-9.15125

>  <MorganFP>  (76) 
<rdkit.DataStructs.cDataStructs.ExplicitBitVect object at 0x7f21e41be580>

$$$$
HIPS7002
     RDKit          3D

 37 40  0  0  0  0  0  0  0  0999 V2000
   66.9449   75.1216   88.9622 C   0  0  0  0  0  0  0  0  0  0  0  0
   66.3983   74.2921   87.9714 C   0  0  0  0  0  0  0  0  0  0  0  0
   66.6593   72.9206   87.9806 C   0  0  0  0  0  0  0  0  0  0  0  0
   67.4606   72.3640   88.9804 C   0  0  0  0  0  0  0  0  0  0  0  0
   68.0046   73.1764   89.9910 C   0  0  0  0  0  0  0  0  0  0  0  0
   67.7355   74.5570   89.9757 C   0  0  0  0  0  0  0  0  0  0  0  0
   68.8574   72.5887   91.0538 C   0  0  0  0  0  0  0  0  0  0  0  0
   69.3301   71.2699   90.9412 C   0  0  0  0  0  0  0  0  0  0  0  0
   70.1257   70.7164   91.9462 C   0  0  0  0  0  0  0  0  0  0  0  0
   70.4529   71.4665   93.0773 C   0  0  0  0  0  0  0  0  0  0  0  0
   69.9810   72.7856   93.2129 C   0  0  0  0  0  0  0  0  0  0  0  0
   69.1952   73.3391   92.1947 C   0  0  0  0  0  0  0  0  0  0  0  0
   70.2621   73.5779   94.3378 O   0  0  0  0  0  0  0  0  0  0  0  0
   69.3015   74.0109   95.3021 C   0  0  0  0  0  0  0  0  0  0  0  0
   68.3752   75.0427   94.7133 C   0  0  0  0  0  0  0  0  0  0  0  0
   66.9908   74.8175   94.6734 C   0  0  0  0  0  0  0  0  0  0  0  0
   66.1348   75.7818   94.1338 C   0  0  0  0  0  0  0  0  0  0  0  0
   66.6424   76.9872   93.6338 C   0  0  0  0  0  0  0  0  0  0  0  0
   68.0308   77.2192   93.6858 C   0  0  0  0  0  0  0  0  0  0  0  0
   68.8872   76.2560   94.2280 C   0  0  0  0  0  0  0  0  0  0  0  0
   65.7352   77.9185   93.1012 O   0  0  0  0  0  0  0  0  0  0  0  0
   65.2757   79.0933   93.7668 C   0  0  0  0  0  0  0  0  0  0  0  0
   66.2789   80.0457   93.8013 F   0  0  0  0  0  0  0  0  0  0  0  0
   64.1630   79.6030   93.1213 F   0  0  0  0  0  0  0  0  0  0  0  0
   64.9270   78.7659   95.0629 F   0  0  0  0  0  0  0  0  0  0  0  0
   66.6889   76.6056   88.9490 C   0  0  0  0  0  0  0  0  0  0  0  0
   67.2503   77.2236   90.1081 O   0  0  0  0  0  0  0  0  0  0  0  0
   70.8323   78.3231   90.2808 C   0  0  0  0  0  0  0  0  0  0  0  0
   69.7000   77.4862   90.2540 C   0  0  0  0  0  0  0  0  0  0  0  0
   68.4054   78.0234   90.1242 C   0  0  0  0  0  0  0  0  0  0  0  0
   68.2499   79.4060   90.0054 C   0  0  0  0  0  0  0  0  0  0  0  0
   69.3607   80.2485   90.0310 C   0  0  0  0  0  0  0  0  0  0  0  0
   70.6515   79.7208   90.1702 C   0  0  0  0  0  0  0  0  0  0  0  0
   71.7449   80.5870   90.1984 O   0  0  0  0  0  0  0  0  0  0  0  0
   73.0270   77.7856   89.4944 O   0  0  0  0  0  0  0  0  0  0  0  0
   72.1804   77.7152   90.4262 C   0  0  0  0  0  0  0  0  0  0  0  0
   72.5252   77.0536   91.6030 O   0  0  0  0  0  0  0  0  0  0  0  0
 35 36  2  0
 36 37  1  0
 36 28  1  0
 28 29  2  0
 29 30  1  0
 30 27  1  0
 27 26  1  0
 26  1  1  0
  1  2  2  0
  2  3  1  0
  3  4  2  0
  4  5  1  0
  5  7  1  0
  7  8  2  0
  8  9  1  0
  9 10  2  0
 10 11  1  0
 11 13  1  0
 13 14  1  0
 14 15  1  0
 15 16  2  0
 16 17  1  0
 17 18  2  0
 18 21  1  0
 21 22  1  0
 22 23  1  0
 22 24  1  0
 22 25  1  0
 18 19  1  0
 19 20  2  0
 11 12  2  0
  5  6  2  0
 30 31  2  0
 31 32  1  0
 32 33  2  0
 33 34  1  0
 33 28  1  0
  6  1  1  0
 12  7  1  0
 20 15  1  0
M  END
>  <Activity>  (77) 
-1.326906

>  <minimizedAffinity>  (77) 
-9.53655

>  <MorganFP>  (77) 
<rdkit.DataStructs.cDataStructs.ExplicitBitVect object at 0x7f21e41be5f0>

$$$$
HIPS7002
     RDKit          3D

 37 40  0  0  0  0  0  0  0  0999 V2000
   67.3907   75.3721   89.0841 C   0  0  0  0  0  0  0  0  0  0  0  0
   66.6395   74.6003   88.1850 C   0  0  0  0  0  0  0  0  0  0  0  0
   66.6491   73.2072   88.2765 C   0  0  0  0  0  0  0  0  0  0  0  0
   67.4010   72.5728   89.2683 C   0  0  0  0  0  0  0  0  0  0  0  0
   68.1478   73.3295   90.1885 C   0  0  0  0  0  0  0  0  0  0  0  0
   68.1317   74.7327   90.0907 C   0  0  0  0  0  0  0  0  0  0  0  0
   68.9488   72.6588   91.2425 C   0  0  0  0  0  0  0  0  0  0  0  0
   69.3529   71.3215   91.0887 C   0  0  0  0  0  0  0  0  0  0  0  0
   70.0996   70.6902   92.0853 C   0  0  0  0  0  0  0  0  0  0  0  0
   70.4455   71.3803   93.2486 C   0  0  0  0  0  0  0  0  0  0  0  0
   70.0418   72.7170   93.4253 C   0  0  0  0  0  0  0  0  0  0  0  0
   69.3051   73.3483   92.4158 C   0  0  0  0  0  0  0  0  0  0  0  0
   70.3440   73.4519   94.5832 O   0  0  0  0  0  0  0  0  0  0  0  0
   69.3828   73.9899   95.4925 C   0  0  0  0  0  0  0  0  0  0  0  0
   68.5463   75.0507   94.8260 C   0  0  0  0  0  0  0  0  0  0  0  0
   69.1471   76.2008   94.2919 C   0  0  0  0  0  0  0  0  0  0  0  0
   68.3673   77.1782   93.6668 C   0  0  0  0  0  0  0  0  0  0  0  0
   66.9803   77.0218   93.5566 C   0  0  0  0  0  0  0  0  0  0  0  0
   66.3784   75.8610   94.0808 C   0  0  0  0  0  0  0  0  0  0  0  0
   67.1584   74.8819   94.7037 C   0  0  0  0  0  0  0  0  0  0  0  0
   66.2471   78.0374   92.9203 O   0  0  0  0  0  0  0  0  0  0  0  0
   65.7342   79.2054   93.5582 C   0  0  0  0  0  0  0  0  0  0  0  0
   64.8607   78.8515   94.5713 F   0  0  0  0  0  0  0  0  0  0  0  0
   66.7717   79.9627   94.0727 F   0  0  0  0  0  0  0  0  0  0  0  0
   65.0516   79.9618   92.6251 F   0  0  0  0  0  0  0  0  0  0  0  0
   67.4061   76.8745   88.9804 C   0  0  0  0  0  0  0  0  0  0  0  0
   67.9724   77.4545   90.1567 O   0  0  0  0  0  0  0  0  0  0  0  0
   69.4984   80.8808   90.1893 C   0  0  0  0  0  0  0  0  0  0  0  0
   68.5297   79.8586   90.1841 C   0  0  0  0  0  0  0  0  0  0  0  0
   68.9078   78.5027   90.1769 C   0  0  0  0  0  0  0  0  0  0  0  0
   70.2647   78.1733   90.1907 C   0  0  0  0  0  0  0  0  0  0  0  0
   71.2363   79.1734   90.1951 C   0  0  0  0  0  0  0  0  0  0  0  0
   70.8667   80.5252   90.1920 C   0  0  0  0  0  0  0  0  0  0  0  0
   71.8594   81.5055   90.1908 O   0  0  0  0  0  0  0  0  0  0  0  0
   68.2558   82.7289   89.3151 O   0  0  0  0  0  0  0  0  0  0  0  0
   69.0561   82.2993   90.1898 C   0  0  0  0  0  0  0  0  0  0  0  0
   69.5268   83.1776   91.1636 O   0  0  0  0  0  0  0  0  0  0  0  0
 35 36  2  0
 36 37  1  0
 36 28  1  0
 28 29  2  0
 29 30  1  0
 30 27  1  0
 27 26  1  0
 26  1  1  0
  1  2  2  0
  2  3  1  0
  3  4  2  0
  4  5  1  0
  5  7  1  0
  7  8  2  0
  8  9  1  0
  9 10  2  0
 10 11  1  0
 11 13  1  0
 13 14  1  0
 14 15  1  0
 15 16  2  0
 16 17  1  0
 17 18  2  0
 18 21  1  0
 21 22  1  0
 22 23  1  0
 22 24  1  0
 22 25  1  0
 18 19  1  0
 19 20  2  0
 11 12  2  0
  5  6  2  0
 30 31  2  0
 31 32  1  0
 32 33  2  0
 33 34  1  0
 33 28  1  0
  6  1  1  0
 12  7  1  0
 20 15  1  0
M  END
>  <Activity>  (78) 
-1.326906

>  <minimizedAffinity>  (78) 
-9.52587

>  <MorganFP>  (78) 
<rdkit.DataStructs.cDataStructs.ExplicitBitVect object at 0x7f21e41be660>

$$$$
HIPS7002
     RDKit          3D

 37 40  0  0  0  0  0  0  0  0999 V2000
   68.2165   79.0608   89.1116 C   0  0  0  0  0  0  0  0  0  0  0  0
   67.3230   79.3532   88.0701 C   0  0  0  0  0  0  0  0  0  0  0  0
   66.5933   78.3299   87.4622 C   0  0  0  0  0  0  0  0  0  0  0  0
   66.7426   77.0090   87.8917 C   0  0  0  0  0  0  0  0  0  0  0  0
   67.6212   76.6981   88.9445 C   0  0  0  0  0  0  0  0  0  0  0  0
   68.3516   77.7349   89.5529 C   0  0  0  0  0  0  0  0  0  0  0  0
   67.7833   75.2958   89.4024 C   0  0  0  0  0  0  0  0  0  0  0  0
   67.0329   74.2625   88.8154 C   0  0  0  0  0  0  0  0  0  0  0  0
   67.1812   72.9451   89.2533 C   0  0  0  0  0  0  0  0  0  0  0  0
   68.0720   72.6430   90.2850 C   0  0  0  0  0  0  0  0  0  0  0  0
   68.8253   73.6653   90.8920 C   0  0  0  0  0  0  0  0  0  0  0  0
   68.6818   74.9823   90.4384 C   0  0  0  0  0  0  0  0  0  0  0  0
   69.7201   73.4217   91.9466 O   0  0  0  0  0  0  0  0  0  0  0  0
   69.4239   73.5869   93.3340 C   0  0  0  0  0  0  0  0  0  0  0  0
   68.4020   74.6744   93.5403 C   0  0  0  0  0  0  0  0  0  0  0  0
   67.0370   74.3619   93.6300 C   0  0  0  0  0  0  0  0  0  0  0  0
   66.0936   75.3737   93.8301 C   0  0  0  0  0  0  0  0  0  0  0  0
   66.4949   76.7097   93.9521 C   0  0  0  0  0  0  0  0  0  0  0  0
   67.8663   77.0222   93.8754 C   0  0  0  0  0  0  0  0  0  0  0  0
   68.8105   76.0100   93.6780 C   0  0  0  0  0  0  0  0  0  0  0  0
   65.5027   77.6845   94.1498 O   0  0  0  0  0  0  0  0  0  0  0  0
   65.4699   78.9648   93.5219 C   0  0  0  0  0  0  0  0  0  0  0  0
   66.1884   79.8814   94.2691 F   0  0  0  0  0  0  0  0  0  0  0  0
   65.9941   78.8830   92.2440 F   0  0  0  0  0  0  0  0  0  0  0  0
   64.1577   79.3887   93.4381 F   0  0  0  0  0  0  0  0  0  0  0  0
   69.0258   80.1535   89.7590 C   0  0  0  0  0  0  0  0  0  0  0  0
   68.4150   81.4269   89.5442 O   0  0  0  0  0  0  0  0  0  0  0  0
   70.6532   83.9739   87.9402 C   0  0  0  0  0  0  0  0  0  0  0  0
   70.2045   82.9580   88.8061 C   0  0  0  0  0  0  0  0  0  0  0  0
   68.9048   82.4299   88.6907 C   0  0  0  0  0  0  0  0  0  0  0  0
   68.0585   82.9142   87.6912 C   0  0  0  0  0  0  0  0  0  0  0  0
   68.4871   83.9205   86.8263 C   0  0  0  0  0  0  0  0  0  0  0  0
   69.7764   84.4576   86.9423 C   0  0  0  0  0  0  0  0  0  0  0  0
   70.1776   85.4675   86.0673 O   0  0  0  0  0  0  0  0  0  0  0  0
   72.9493   83.7953   88.5883 O   0  0  0  0  0  0  0  0  0  0  0  0
   72.0304   84.5081   88.1009 C   0  0  0  0  0  0  0  0  0  0  0  0
   72.3228   85.8141   87.7133 O   0  0  0  0  0  0  0  0  0  0  0  0
 35 36  2  0
 36 37  1  0
 36 28  1  0
 28 29  2  0
 29 30  1  0
 30 27  1  0
 27 26  1  0
 26  1  1  0
  1  2  2  0
  2  3  1  0
  3  4  2  0
  4  5  1  0
  5  7  1  0
  7  8  2  0
  8  9  1  0
  9 10  2  0
 10 11  1  0
 11 13  1  0
 13 14  1  0
 14 15  1  0
 15 16  2  0
 16 17  1  0
 17 18  2  0
 18 21  1  0
 21 22  1  0
 22 23  1  0
 22 24  1  0
 22 25  1  0
 18 19  1  0
 19 20  2  0
 11 12  2  0
  5  6  2  0
 30 31  2  0
 31 32  1  0
 32 33  2  0
 33 34  1  0
 33 28  1  0
  6  1  1  0
 12  7  1  0
 20 15  1  0
M  END
>  <Activity>  (79) 
-1.326906

>  <minimizedAffinity>  (79) 
-9.45111

>  <MorganFP>  (79) 
<rdkit.DataStructs.cDataStructs.ExplicitBitVect object at 0x7f21e41be6d0>

$$$$
HIPS7005
     RDKit          3D

 32 35  0  0  0  0  0  0  0  0999 V2000
   68.4891   79.1714   89.2778 C   0  0  0  0  0  0  0  0  0  0  0  0
   67.6308   79.7455   88.3276 C   0  0  0  0  0  0  0  0  0  0  0  0
   66.7125   78.9522   87.6379 C   0  0  0  0  0  0  0  0  0  0  0  0
   66.6421   77.5804   87.8881 C   0  0  0  0  0  0  0  0  0  0  0  0
   67.4880   76.9866   88.8420 C   0  0  0  0  0  0  0  0  0  0  0  0
   68.4051   77.7946   89.5399 C   0  0  0  0  0  0  0  0  0  0  0  0
   67.4262   75.5268   89.0999 C   0  0  0  0  0  0  0  0  0  0  0  0
   66.8241   74.6627   88.1681 C   0  0  0  0  0  0  0  0  0  0  0  0
   66.7808   73.2884   88.4053 C   0  0  0  0  0  0  0  0  0  0  0  0
   67.3427   72.7588   89.5686 C   0  0  0  0  0  0  0  0  0  0  0  0
   67.9579   73.6059   90.5063 C   0  0  0  0  0  0  0  0  0  0  0  0
   67.9817   74.9852   90.2737 C   0  0  0  0  0  0  0  0  0  0  0  0
   68.5105   73.1140   91.6978 O   0  0  0  0  0  0  0  0  0  0  0  0
   68.0953   73.4705   92.9892 C   0  0  0  0  0  0  0  0  0  0  0  0
   69.0083   73.9083   93.9658 C   0  0  0  0  0  0  0  0  0  0  0  0
   68.5567   74.2705   95.2378 C   0  0  0  0  0  0  0  0  0  0  0  0
   67.1899   74.2160   95.5408 C   0  0  0  0  0  0  0  0  0  0  0  0
   66.7271   74.5790   96.8029 O   0  0  0  0  0  0  0  0  0  0  0  0
   66.2799   73.7950   94.5665 C   0  0  0  0  0  0  0  0  0  0  0  0
   66.7300   73.4298   93.2954 C   0  0  0  0  0  0  0  0  0  0  0  0
   69.4834   80.0325   90.0116 C   0  0  0  0  0  0  0  0  0  0  0  0
   69.1604   81.4158   89.8653 O   0  0  0  0  0  0  0  0  0  0  0  0
   70.3753   84.4436   88.0991 C   0  0  0  0  0  0  0  0  0  0  0  0
   69.5452   83.4121   88.5798 C   0  0  0  0  0  0  0  0  0  0  0  0
   70.0440   82.4155   89.4277 C   0  0  0  0  0  0  0  0  0  0  0  0
   71.3966   82.4519   89.8079 C   0  0  0  0  0  0  0  0  0  0  0  0
   72.2322   83.4643   89.3378 C   0  0  0  0  0  0  0  0  0  0  0  0
   71.7350   84.4616   88.4902 C   0  0  0  0  0  0  0  0  0  0  0  0
   72.5939   85.4671   88.0459 O   0  0  0  0  0  0  0  0  0  0  0  0
   69.7163   86.6796   87.5914 O   0  0  0  0  0  0  0  0  0  0  0  0
   69.8046   85.4824   87.2019 C   0  0  0  0  0  0  0  0  0  0  0  0
   69.3611   85.1573   85.9237 O   0  0  0  0  0  0  0  0  0  0  0  0
 30 31  2  0
 31 32  1  0
 31 23  1  0
 23 24  2  0
 24 25  1  0
 25 22  1  0
 22 21  1  0
 21  1  1  0
  1  2  2  0
  2  3  1  0
  3  4  2  0
  4  5  1  0
  5  7  1  0
  7  8  2  0
  8  9  1  0
  9 10  2  0
 10 11  1  0
 11 13  1  0
 13 14  1  0
 14 15  2  0
 15 16  1  0
 16 17  2  0
 17 18  1  0
 17 19  1  0
 19 20  2  0
 11 12  2  0
  5  6  2  0
 25 26  2  0
 26 27  1  0
 27 28  2  0
 28 29  1  0
 28 23  1  0
  6  1  1  0
 12  7  1  0
 20 14  1  0
M  END
>  <Activity>  (80) 
-0.73298

>  <minimizedAffinity>  (80) 
-9.44186

>  <MorganFP>  (80) 
<rdkit.DataStructs.cDataStructs.ExplicitBitVect object at 0x7f21e41be740>

$$$$
HIPS7005
     RDKit          3D

 32 35  0  0  0  0  0  0  0  0999 V2000
   69.8206   78.7190   90.3328 C   0  0  0  0  0  0  0  0  0  0  0  0
   71.2157   78.5841   90.2667 C   0  0  0  0  0  0  0  0  0  0  0  0
   71.8502   77.5126   90.8974 C   0  0  0  0  0  0  0  0  0  0  0  0
   71.1004   76.5671   91.5998 C   0  0  0  0  0  0  0  0  0  0  0  0
   69.7003   76.6798   91.6717 C   0  0  0  0  0  0  0  0  0  0  0  0
   69.0670   77.7581   91.0257 C   0  0  0  0  0  0  0  0  0  0  0  0
   68.9017   75.6853   92.4296 C   0  0  0  0  0  0  0  0  0  0  0  0
   67.5332   75.9027   92.6693 C   0  0  0  0  0  0  0  0  0  0  0  0
   66.7804   74.9589   93.3689 C   0  0  0  0  0  0  0  0  0  0  0  0
   67.3799   73.7857   93.8311 C   0  0  0  0  0  0  0  0  0  0  0  0
   68.7441   73.5465   93.5920 C   0  0  0  0  0  0  0  0  0  0  0  0
   69.4994   74.5045   92.9072 C   0  0  0  0  0  0  0  0  0  0  0  0
   69.3869   72.3921   94.0624 O   0  0  0  0  0  0  0  0  0  0  0  0
   70.1344   71.5050   93.2742 C   0  0  0  0  0  0  0  0  0  0  0  0
   71.4836   71.2221   93.5549 C   0  0  0  0  0  0  0  0  0  0  0  0
   72.1933   70.3206   92.7571 C   0  0  0  0  0  0  0  0  0  0  0  0
   71.5593   69.6808   91.6840 C   0  0  0  0  0  0  0  0  0  0  0  0
   72.2543   68.7770   90.8848 O   0  0  0  0  0  0  0  0  0  0  0  0
   70.2145   69.9502   91.4128 C   0  0  0  0  0  0  0  0  0  0  0  0
   69.5043   70.8532   92.2075 C   0  0  0  0  0  0  0  0  0  0  0  0
   69.1441   79.8829   89.6572 C   0  0  0  0  0  0  0  0  0  0  0  0
   69.5061   81.1131   90.2852 O   0  0  0  0  0  0  0  0  0  0  0  0
   70.3579   84.0262   88.1517 C   0  0  0  0  0  0  0  0  0  0  0  0
   69.6478   82.9859   88.7823 C   0  0  0  0  0  0  0  0  0  0  0  0
   70.2744   82.1311   89.6976 C   0  0  0  0  0  0  0  0  0  0  0  0
   71.6351   82.3214   89.9936 C   0  0  0  0  0  0  0  0  0  0  0  0
   72.3529   83.3443   89.3752 C   0  0  0  0  0  0  0  0  0  0  0  0
   71.7279   84.2001   88.4600 C   0  0  0  0  0  0  0  0  0  0  0  0
   72.4707   85.2209   87.8666 O   0  0  0  0  0  0  0  0  0  0  0  0
   68.5254   85.3968   87.4774 O   0  0  0  0  0  0  0  0  0  0  0  0
   69.6537   84.9115   87.1874 C   0  0  0  0  0  0  0  0  0  0  0  0
   70.2217   85.2212   85.9555 O   0  0  0  0  0  0  0  0  0  0  0  0
 30 31  2  0
 31 32  1  0
 31 23  1  0
 23 24  2  0
 24 25  1  0
 25 22  1  0
 22 21  1  0
 21  1  1  0
  1  2  2  0
  2  3  1  0
  3  4  2  0
  4  5  1  0
  5  7  1  0
  7  8  2  0
  8  9  1  0
  9 10  2  0
 10 11  1  0
 11 13  1  0
 13 14  1  0
 14 15  2  0
 15 16  1  0
 16 17  2  0
 17 18  1  0
 17 19  1  0
 19 20  2  0
 11 12  2  0
  5  6  2  0
 25 26  2  0
 26 27  1  0
 27 28  2  0
 28 29  1  0
 28 23  1  0
  6  1  1  0
 12  7  1  0
 20 14  1  0
M  END
>  <Activity>  (81) 
-0.73298

>  <minimizedAffinity>  (81) 
-9.17187

>  <MorganFP>  (81) 
<rdkit.DataStructs.cDataStructs.ExplicitBitVect object at 0x7f21e41be820>

$$$$
HIPS7006
     RDKit          3D

 33 36  0  0  0  0  0  0  0  0999 V2000
   69.6616   76.4581   91.8580 C   0  0  0  0  0  0  0  0  0  0  0  0
   71.0410   76.7004   91.8175 C   0  0  0  0  0  0  0  0  0  0  0  0
   71.5627   77.6731   90.9638 C   0  0  0  0  0  0  0  0  0  0  0  0
   70.7094   78.4076   90.1363 C   0  0  0  0  0  0  0  0  0  0  0  0
   69.3182   78.1804   90.1534 C   0  0  0  0  0  0  0  0  0  0  0  0
   68.8034   77.2042   91.0295 C   0  0  0  0  0  0  0  0  0  0  0  0
   68.4121   78.9558   89.2563 C   0  0  0  0  0  0  0  0  0  0  0  0
   67.5290   78.2968   88.3830 C   0  0  0  0  0  0  0  0  0  0  0  0
   66.6716   79.0251   87.5568 C   0  0  0  0  0  0  0  0  0  0  0  0
   66.6726   80.4161   87.5977 C   0  0  0  0  0  0  0  0  0  0  0  0
   67.5378   81.1018   88.4558 C   0  0  0  0  0  0  0  0  0  0  0  0
   68.4094   80.3647   89.2810 C   0  0  0  0  0  0  0  0  0  0  0  0
   67.4859   82.5099   88.4662 O   0  0  0  0  0  0  0  0  0  0  0  0
   67.5945   83.3520   87.3184 C   0  0  0  0  0  0  0  0  0  0  0  0
   68.8650   84.1505   87.3721 C   0  0  0  0  0  0  0  0  0  0  0  0
   70.0988   83.5032   87.2069 C   0  0  0  0  0  0  0  0  0  0  0  0
   71.2886   84.2290   87.2800 C   0  0  0  0  0  0  0  0  0  0  0  0
   71.2602   85.6052   87.5229 C   0  0  0  0  0  0  0  0  0  0  0  0
   72.4526   86.3134   87.6075 O   0  0  0  0  0  0  0  0  0  0  0  0
   70.0295   86.2594   87.6775 C   0  0  0  0  0  0  0  0  0  0  0  0
   68.8380   85.5368   87.5966 C   0  0  0  0  0  0  0  0  0  0  0  0
   69.1127   75.4619   92.8458 C   0  0  0  0  0  0  0  0  0  0  0  0
   70.0993   74.5187   93.2612 O   0  0  0  0  0  0  0  0  0  0  0  0
   70.5074   70.7993   93.5954 C   0  0  0  0  0  0  0  0  0  0  0  0
   70.5497   72.1752   93.9052 C   0  0  0  0  0  0  0  0  0  0  0  0
   70.0678   73.1398   92.9986 C   0  0  0  0  0  0  0  0  0  0  0  0
   69.5298   72.7193   91.7834 C   0  0  0  0  0  0  0  0  0  0  0  0
   69.4675   71.3630   91.4678 C   0  0  0  0  0  0  0  0  0  0  0  0
   69.9539   70.3988   92.3601 C   0  0  0  0  0  0  0  0  0  0  0  0
   69.8788   69.0468   92.0129 O   0  0  0  0  0  0  0  0  0  0  0  0
   70.2529   68.9372   95.0606 O   0  0  0  0  0  0  0  0  0  0  0  0
   71.0248   69.8059   94.5718 C   0  0  0  0  0  0  0  0  0  0  0  0
   72.3602   69.8195   94.9615 O   0  0  0  0  0  0  0  0  0  0  0  0
 31 32  2  0
 32 33  1  0
 32 24  1  0
 24 25  2  0
 25 26  1  0
 26 23  1  0
 23 22  1  0
 22  1  1  0
  1  2  2  0
  2  3  1  0
  3  4  2  0
  4  5  1  0
  5  7  1  0
  7  8  2  0
  8  9  1  0
  9 10  2  0
 10 11  1  0
 11 13  1  0
 13 14  1  0
 14 15  1  0
 15 16  2  0
 16 17  1  0
 17 18  2  0
 18 19  1  0
 18 20  1  0
 20 21  2  0
 11 12  2  0
  5  6  2  0
 26 27  2  0
 27 28  1  0
 28 29  2  0
 29 30  1  0
 29 24  1  0
  6  1  1  0
 12  7  1  0
 21 15  1  0
M  END
>  <Activity>  (82) 
-1.116919

>  <minimizedAffinity>  (82) 
-9.54171

>  <MorganFP>  (82) 
<rdkit.DataStructs.cDataStructs.ExplicitBitVect object at 0x7f21e41be890>

$$$$
HIPS7006
     RDKit          3D

 33 36  0  0  0  0  0  0  0  0999 V2000
   70.1182   78.4674   90.7012 C   0  0  0  0  0  0  0  0  0  0  0  0
   68.7192   78.5411   90.7040 C   0  0  0  0  0  0  0  0  0  0  0  0
   68.0727   79.7146   90.3137 C   0  0  0  0  0  0  0  0  0  0  0  0
   68.8207   80.8287   89.9244 C   0  0  0  0  0  0  0  0  0  0  0  0
   70.2298   80.7833   89.9175 C   0  0  0  0  0  0  0  0  0  0  0  0
   70.8695   79.5880   90.3015 C   0  0  0  0  0  0  0  0  0  0  0  0
   71.0251   81.9806   89.5165 C   0  0  0  0  0  0  0  0  0  0  0  0
   72.2952   82.2183   90.0705 C   0  0  0  0  0  0  0  0  0  0  0  0
   73.0432   83.3307   89.6813 C   0  0  0  0  0  0  0  0  0  0  0  0
   72.5434   84.2127   88.7280 C   0  0  0  0  0  0  0  0  0  0  0  0
   71.2843   84.0043   88.1569 C   0  0  0  0  0  0  0  0  0  0  0  0
   70.5271   82.8867   88.5591 C   0  0  0  0  0  0  0  0  0  0  0  0
   70.8345   84.9212   87.1862 O   0  0  0  0  0  0  0  0  0  0  0  0
   69.5966   85.6316   87.2274 C   0  0  0  0  0  0  0  0  0  0  0  0
   69.5221   86.4840   88.4614 C   0  0  0  0  0  0  0  0  0  0  0  0
   68.8643   85.9984   89.6015 C   0  0  0  0  0  0  0  0  0  0  0  0
   68.7654   86.7900   90.7466 C   0  0  0  0  0  0  0  0  0  0  0  0
   69.3168   88.0742   90.7645 C   0  0  0  0  0  0  0  0  0  0  0  0
   69.1989   88.8574   91.9061 O   0  0  0  0  0  0  0  0  0  0  0  0
   69.9854   88.5606   89.6318 C   0  0  0  0  0  0  0  0  0  0  0  0
   70.0926   87.7672   88.4883 C   0  0  0  0  0  0  0  0  0  0  0  0
   70.7926   77.1655   91.0470 C   0  0  0  0  0  0  0  0  0  0  0  0
   70.2442   76.5729   92.2234 O   0  0  0  0  0  0  0  0  0  0  0  0
   67.6762   74.0735   93.3504 C   0  0  0  0  0  0  0  0  0  0  0  0
   68.5531   75.1788   93.3661 C   0  0  0  0  0  0  0  0  0  0  0  0
   69.3514   75.4895   92.2479 C   0  0  0  0  0  0  0  0  0  0  0  0
   69.2581   74.6953   91.1062 C   0  0  0  0  0  0  0  0  0  0  0  0
   68.3864   73.6081   91.0689 C   0  0  0  0  0  0  0  0  0  0  0  0
   67.5968   73.2872   92.1807 C   0  0  0  0  0  0  0  0  0  0  0  0
   66.7343   72.1893   92.1122 O   0  0  0  0  0  0  0  0  0  0  0  0
   67.4002   73.4946   95.6455 O   0  0  0  0  0  0  0  0  0  0  0  0
   66.8479   73.7704   94.5462 C   0  0  0  0  0  0  0  0  0  0  0  0
   65.4588   73.7841   94.4723 O   0  0  0  0  0  0  0  0  0  0  0  0
 31 32  2  0
 32 33  1  0
 32 24  1  0
 24 25  2  0
 25 26  1  0
 26 23  1  0
 23 22  1  0
 22  1  1  0
  1  2  2  0
  2  3  1  0
  3  4  2  0
  4  5  1  0
  5  7  1  0
  7  8  2  0
  8  9  1  0
  9 10  2  0
 10 11  1  0
 11 13  1  0
 13 14  1  0
 14 15  1  0
 15 16  2  0
 16 17  1  0
 17 18  2  0
 18 19  1  0
 18 20  1  0
 20 21  2  0
 11 12  2  0
  5  6  2  0
 26 27  2  0
 27 28  1  0
 28 29  2  0
 29 30  1  0
 29 24  1  0
  6  1  1  0
 12  7  1  0
 21 15  1  0
M  END
>  <Activity>  (83) 
-1.116919

>  <minimizedAffinity>  (83) 
-9.54027

>  <MorganFP>  (83) 
<rdkit.DataStructs.cDataStructs.ExplicitBitVect object at 0x7f21e41be900>

$$$$
HIPS7011
     RDKit          3D

 32 35  0  0  0  0  0  0  0  0999 V2000
   67.1471   74.9098   88.4815 C   0  0  0  0  0  0  0  0  0  0  0  0
   66.8724   74.8533   87.1066 C   0  0  0  0  0  0  0  0  0  0  0  0
   67.0169   75.9956   86.3157 C   0  0  0  0  0  0  0  0  0  0  0  0
   67.4469   77.1972   86.8864 C   0  0  0  0  0  0  0  0  0  0  0  0
   67.7480   77.2662   88.2582 C   0  0  0  0  0  0  0  0  0  0  0  0
   67.5942   76.1134   89.0484 C   0  0  0  0  0  0  0  0  0  0  0  0
   68.2275   78.5327   88.8659 C   0  0  0  0  0  0  0  0  0  0  0  0
   69.4085   78.5576   89.6186 C   0  0  0  0  0  0  0  0  0  0  0  0
   69.8423   79.7526   90.1916 C   0  0  0  0  0  0  0  0  0  0  0  0
   69.1288   80.9092   90.0295 N   0  0  0  0  0  0  0  0  0  0  0  0
   67.9640   80.9059   89.3004 C   0  0  0  0  0  0  0  0  0  0  0  0
   67.2889   81.9630   89.1554 O   0  0  0  0  0  0  0  0  0  0  0  0
   67.5057   79.7247   88.7058 C   0  0  0  0  0  0  0  0  0  0  0  0
   69.6091   82.1333   90.6918 C   0  0  0  0  0  0  0  0  0  0  0  0
   70.7645   82.7220   89.9261 C   0  0  0  0  0  0  0  0  0  0  0  0
   72.0803   82.5536   90.3904 C   0  0  0  0  0  0  0  0  0  0  0  0
   73.1515   83.1266   89.6973 C   0  0  0  0  0  0  0  0  0  0  0  0
   72.9165   83.8752   88.5411 C   0  0  0  0  0  0  0  0  0  0  0  0
   71.6099   84.0578   88.0792 C   0  0  0  0  0  0  0  0  0  0  0  0
   70.5357   83.4887   88.7709 C   0  0  0  0  0  0  0  0  0  0  0  0
   67.0004   73.6942   89.3479 C   0  0  0  0  0  0  0  0  0  0  0  0
   68.2461   73.4288   89.9948 O   0  0  0  0  0  0  0  0  0  0  0  0
   67.6363   73.4960   93.6939 C   0  0  0  0  0  0  0  0  0  0  0  0
   67.3988   73.5645   92.3060 C   0  0  0  0  0  0  0  0  0  0  0  0
   68.4402   73.3526   91.3822 C   0  0  0  0  0  0  0  0  0  0  0  0
   69.7304   73.1019   91.8550 C   0  0  0  0  0  0  0  0  0  0  0  0
   69.9806   73.0267   93.2248 C   0  0  0  0  0  0  0  0  0  0  0  0
   68.9450   73.2184   94.1497 C   0  0  0  0  0  0  0  0  0  0  0  0
   69.2241   73.1407   95.5135 O   0  0  0  0  0  0  0  0  0  0  0  0
   65.5285   74.4454   94.2925 O   0  0  0  0  0  0  0  0  0  0  0  0
   66.5170   73.7420   94.6424 C   0  0  0  0  0  0  0  0  0  0  0  0
   66.5435   73.2111   95.9297 O   0  0  0  0  0  0  0  0  0  0  0  0
 30 31  2  0
 31 32  1  0
 31 23  1  0
 23 24  2  0
 24 25  1  0
 25 22  1  0
 22 21  1  0
 21  1  1  0
  1  2  2  0
  2  3  1  0
  3  4  2  0
  4  5  1  0
  5  7  1  0
  7  8  1  0
  8  9  2  0
  9 10  1  0
 10 14  1  0
 14 15  1  0
 15 16  2  0
 16 17  1  0
 17 18  2  0
 18 19  1  0
 19 20  2  0
 10 11  1  0
 11 12  2  0
 11 13  1  0
  5  6  2  0
 25 26  2  0
 26 27  1  0
 27 28  2  0
 28 29  1  0
 28 23  1  0
  6  1  1  0
 13  7  2  0
 20 15  1  0
M  END
>  <Activity>  (84) 
-0.078672

>  <minimizedAffinity>  (84) 
-9.32823

>  <MorganFP>  (84) 
<rdkit.DataStructs.cDataStructs.ExplicitBitVect object at 0x7f21e41bea50>

$$$$
HIPS7011
     RDKit          3D

 32 35  0  0  0  0  0  0  0  0999 V2000
   67.1384   78.6835   91.4271 C   0  0  0  0  0  0  0  0  0  0  0  0
   66.5827   79.2797   92.5694 C   0  0  0  0  0  0  0  0  0  0  0  0
   66.7268   80.6526   92.7835 C   0  0  0  0  0  0  0  0  0  0  0  0
   67.4141   81.4414   91.8563 C   0  0  0  0  0  0  0  0  0  0  0  0
   67.9580   80.8643   90.6951 C   0  0  0  0  0  0  0  0  0  0  0  0
   67.8137   79.4808   90.4900 C   0  0  0  0  0  0  0  0  0  0  0  0
   68.6685   81.6999   89.6950 C   0  0  0  0  0  0  0  0  0  0  0  0
   70.0156   82.0367   89.8783 C   0  0  0  0  0  0  0  0  0  0  0  0
   70.6681   82.8303   88.9354 C   0  0  0  0  0  0  0  0  0  0  0  0
   70.0098   83.2884   87.8263 N   0  0  0  0  0  0  0  0  0  0  0  0
   68.6861   82.9753   87.6302 C   0  0  0  0  0  0  0  0  0  0  0  0
   68.0634   83.4034   86.6187 O   0  0  0  0  0  0  0  0  0  0  0  0
   68.0049   82.1742   88.5538 C   0  0  0  0  0  0  0  0  0  0  0  0
   70.7342   84.1581   86.8848 C   0  0  0  0  0  0  0  0  0  0  0  0
   70.9611   85.5152   87.4968 C   0  0  0  0  0  0  0  0  0  0  0  0
   72.2660   85.9557   87.7772 C   0  0  0  0  0  0  0  0  0  0  0  0
   72.4762   87.2027   88.3748 C   0  0  0  0  0  0  0  0  0  0  0  0
   71.3869   88.0147   88.7010 C   0  0  0  0  0  0  0  0  0  0  0  0
   70.0853   87.5791   88.4367 C   0  0  0  0  0  0  0  0  0  0  0  0
   69.8706   86.3316   87.8417 C   0  0  0  0  0  0  0  0  0  0  0  0
   66.9931   77.2115   91.1773 C   0  0  0  0  0  0  0  0  0  0  0  0
   68.0295   76.5157   91.8718 O   0  0  0  0  0  0  0  0  0  0  0  0
   68.6210   73.9763   94.5665 C   0  0  0  0  0  0  0  0  0  0  0  0
   68.8530   74.8217   93.4626 C   0  0  0  0  0  0  0  0  0  0  0  0
   67.8415   75.6730   92.9776 C   0  0  0  0  0  0  0  0  0  0  0  0
   66.5837   75.6517   93.5845 C   0  0  0  0  0  0  0  0  0  0  0  0
   66.3398   74.8244   94.6802 C   0  0  0  0  0  0  0  0  0  0  0  0
   67.3475   73.9880   95.1796 C   0  0  0  0  0  0  0  0  0  0  0  0
   67.0752   73.1687   96.2744 O   0  0  0  0  0  0  0  0  0  0  0  0
   70.7201   72.8649   94.3203 O   0  0  0  0  0  0  0  0  0  0  0  0
   69.7063   73.0770   95.0424 C   0  0  0  0  0  0  0  0  0  0  0  0
   69.6196   72.4492   96.2826 O   0  0  0  0  0  0  0  0  0  0  0  0
 30 31  2  0
 31 32  1  0
 31 23  1  0
 23 24  2  0
 24 25  1  0
 25 22  1  0
 22 21  1  0
 21  1  1  0
  1  2  2  0
  2  3  1  0
  3  4  2  0
  4  5  1  0
  5  7  1  0
  7  8  1  0
  8  9  2  0
  9 10  1  0
 10 14  1  0
 14 15  1  0
 15 16  2  0
 16 17  1  0
 17 18  2  0
 18 19  1  0
 19 20  2  0
 10 11  1  0
 11 12  2  0
 11 13  1  0
  5  6  2  0
 25 26  2  0
 26 27  1  0
 27 28  2  0
 28 29  1  0
 28 23  1  0
  6  1  1  0
 13  7  2  0
 20 15  1  0
M  END
>  <Activity>  (85) 
-0.078672

>  <minimizedAffinity>  (85) 
-8.99037

>  <MorganFP>  (85) 
<rdkit.DataStructs.cDataStructs.ExplicitBitVect object at 0x7f21e41beac0>

$$$$
HIPS7014
     RDKit          3D

 32 35  0  0  0  0  0  0  0  0999 V2000
   68.3326   75.7392   90.1742 C   0  0  0  0  0  0  0  0  0  0  0  0
   67.5558   75.1122   89.1856 C   0  0  0  0  0  0  0  0  0  0  0  0
   67.4028   73.7192   89.1722 C   0  0  0  0  0  0  0  0  0  0  0  0
   68.0081   72.9462   90.1723 C   0  0  0  0  0  0  0  0  0  0  0  0
   68.7929   73.5503   91.1692 C   0  0  0  0  0  0  0  0  0  0  0  0
   68.9515   74.9480   91.1586 C   0  0  0  0  0  0  0  0  0  0  0  0
   69.6371   79.2509   90.2077 C   0  0  0  0  0  0  0  0  0  0  0  0
   69.7387   77.8666   90.1984 C   0  0  0  0  0  0  0  0  0  0  0  0
   68.4907   77.2158   90.1810 C   0  0  0  0  0  0  0  0  0  0  0  0
   67.4136   78.1046   90.1639 C   0  0  0  0  0  0  0  0  0  0  0  0
   68.0132   79.6750   90.1631 S   0  0  0  0  0  0  0  0  0  0  0  0
   70.3479   81.5300   89.7045 N   0  0  0  0  0  0  0  0  0  0  0  0
   70.7851   80.2143   90.1652 C   0  0  0  0  0  0  0  0  0  0  0  0
   69.4447   72.7247   92.2177 C   0  0  0  0  0  0  0  0  0  0  0  0
   69.9156   73.2431   93.4263 C   0  0  0  0  0  0  0  0  0  0  0  0
   70.5662   71.9855   94.3328 S   0  0  0  0  0  0  0  0  0  0  0  0
   70.2762   70.7766   93.2044 C   0  0  0  0  0  0  0  0  0  0  0  0
   69.6427   71.3356   92.1026 C   0  0  0  0  0  0  0  0  0  0  0  0
   70.5484   69.3210   93.4113 C   0  0  0  0  0  0  0  0  0  0  0  0
   70.4013   68.9843   94.8223 N   0  0  0  0  0  0  0  0  0  0  0  0
   66.5368   73.0696   88.1319 C   0  0  0  0  0  0  0  0  0  0  0  0
   67.1638   71.8713   87.6836 O   0  0  0  0  0  0  0  0  0  0  0  0
   66.9748   71.2993   86.4170 C   0  0  0  0  0  0  0  0  0  0  0  0
   67.9587   70.4372   85.9291 C   0  0  0  0  0  0  0  0  0  0  0  0
   67.8215   69.8433   84.6749 C   0  0  0  0  0  0  0  0  0  0  0  0
   66.6938   70.1024   83.8845 C   0  0  0  0  0  0  0  0  0  0  0  0
   66.5832   69.4960   82.6327 O   0  0  0  0  0  0  0  0  0  0  0  0
   65.6844   70.9714   84.3602 C   0  0  0  0  0  0  0  0  0  0  0  0
   65.8381   71.5632   85.6293 C   0  0  0  0  0  0  0  0  0  0  0  0
   64.4710   71.2771   83.5586 C   0  0  0  0  0  0  0  0  0  0  0  0
   63.3214   70.9937   83.9902 O   0  0  0  0  0  0  0  0  0  0  0  0
   64.5919   71.8856   82.3113 O   0  0  0  0  0  0  0  0  0  0  0  0
 12 13  1  0
 13  7  1  0
  7  8  2  0
  8  9  1  0
  9  1  1  0
  1  2  2  0
  2  3  1  0
  3 21  1  0
 21 22  1  0
 22 23  1  0
 23 24  2  0
 24 25  1  0
 25 26  2  0
 26 27  1  0
 26 28  1  0
 28 30  1  0
 30 31  2  0
 30 32  1  0
 28 29  2  0
  3  4  2  0
  4  5  1  0
  5 14  1  0
 14 15  2  0
 15 16  1  0
 16 17  1  0
 17 19  1  0
 19 20  1  0
 17 18  2  0
  5  6  2  0
  9 10  2  0
 10 11  1  0
 11  7  1  0
  6  1  1  0
 29 23  1  0
 18 14  1  0
M  END
>  <Activity>  (86) 
0.257233

>  <minimizedAffinity>  (86) 
-8.66930

>  <MorganFP>  (86) 
<rdkit.DataStructs.cDataStructs.ExplicitBitVect object at 0x7f21e41beb30>

$$$$
HIPS7014
     RDKit          3D

 32 35  0  0  0  0  0  0  0  0999 V2000
   68.7914   73.8758   91.1036 C   0  0  0  0  0  0  0  0  0  0  0  0
   67.9688   73.2721   90.1378 C   0  0  0  0  0  0  0  0  0  0  0  0
   67.3688   74.0379   89.1291 C   0  0  0  0  0  0  0  0  0  0  0  0
   67.6149   75.4162   89.0668 C   0  0  0  0  0  0  0  0  0  0  0  0
   68.4308   76.0430   90.0238 C   0  0  0  0  0  0  0  0  0  0  0  0
   69.0115   75.2635   91.0406 C   0  0  0  0  0  0  0  0  0  0  0  0
   70.3771   71.1556   93.1337 C   0  0  0  0  0  0  0  0  0  0  0  0
   69.8146   71.7169   91.9955 C   0  0  0  0  0  0  0  0  0  0  0  0
   69.4228   73.0575   92.1700 C   0  0  0  0  0  0  0  0  0  0  0  0
   69.6963   73.5421   93.4509 C   0  0  0  0  0  0  0  0  0  0  0  0
   70.4214   72.3173   94.3451 S   0  0  0  0  0  0  0  0  0  0  0  0
   70.2863   69.0172   94.3048 N   0  0  0  0  0  0  0  0  0  0  0  0
   70.9435   69.7715   93.2402 C   0  0  0  0  0  0  0  0  0  0  0  0
   68.6757   77.5066   89.9619 C   0  0  0  0  0  0  0  0  0  0  0  0
   67.6654   78.4503   89.7620 C   0  0  0  0  0  0  0  0  0  0  0  0
   68.3538   79.9841   89.7713 S   0  0  0  0  0  0  0  0  0  0  0  0
   69.9354   79.4740   90.0108 C   0  0  0  0  0  0  0  0  0  0  0  0
   69.9488   78.0892   90.1097 C   0  0  0  0  0  0  0  0  0  0  0  0
   71.1118   80.3761   90.2059 C   0  0  0  0  0  0  0  0  0  0  0  0
   70.7423   81.7498   89.8859 N   0  0  0  0  0  0  0  0  0  0  0  0
   66.5250   73.3704   88.0821 C   0  0  0  0  0  0  0  0  0  0  0  0
   67.0975   72.1070   87.7559 O   0  0  0  0  0  0  0  0  0  0  0  0
   66.9422   71.4568   86.5228 C   0  0  0  0  0  0  0  0  0  0  0  0
   67.9332   70.5592   86.1211 C   0  0  0  0  0  0  0  0  0  0  0  0
   67.8291   69.8876   84.9034 C   0  0  0  0  0  0  0  0  0  0  0  0
   66.7280   70.1031   84.0638 C   0  0  0  0  0  0  0  0  0  0  0  0
   66.6504   69.4190   82.8502 O   0  0  0  0  0  0  0  0  0  0  0  0
   65.7120   71.0070   84.4522 C   0  0  0  0  0  0  0  0  0  0  0  0
   65.8320   71.6773   85.6854 C   0  0  0  0  0  0  0  0  0  0  0  0
   64.5260   71.2687   83.5959 C   0  0  0  0  0  0  0  0  0  0  0  0
   63.3610   71.0269   84.0116 O   0  0  0  0  0  0  0  0  0  0  0  0
   64.6901   71.7889   82.3140 O   0  0  0  0  0  0  0  0  0  0  0  0
 12 13  1  0
 13  7  1  0
  7  8  2  0
  8  9  1  0
  9  1  1  0
  1  2  2  0
  2  3  1  0
  3 21  1  0
 21 22  1  0
 22 23  1  0
 23 24  2  0
 24 25  1  0
 25 26  2  0
 26 27  1  0
 26 28  1  0
 28 30  1  0
 30 31  2  0
 30 32  1  0
 28 29  2  0
  3  4  2  0
  4  5  1  0
  5 14  1  0
 14 15  2  0
 15 16  1  0
 16 17  1  0
 17 19  1  0
 19 20  1  0
 17 18  2  0
  5  6  2  0
  9 10  2  0
 10 11  1  0
 11  7  1  0
  6  1  1  0
 29 23  1  0
 18 14  1  0
M  END
>  <Activity>  (87) 
0.257233

>  <minimizedAffinity>  (87) 
-8.49326

>  <MorganFP>  (87) 
<rdkit.DataStructs.cDataStructs.ExplicitBitVect object at 0x7f21e41beba0>

$$$$
HIPS7014
     RDKit          3D

 32 35  0  0  0  0  0  0  0  0999 V2000
   67.1899   72.5663   87.8300 C   0  0  0  0  0  0  0  0  0  0  0  0
   66.7411   73.8894   87.6826 C   0  0  0  0  0  0  0  0  0  0  0  0
   66.8904   74.8160   88.7233 C   0  0  0  0  0  0  0  0  0  0  0  0
   67.5197   74.4257   89.9132 C   0  0  0  0  0  0  0  0  0  0  0  0
   67.9733   73.1069   90.0855 C   0  0  0  0  0  0  0  0  0  0  0  0
   67.8000   72.1839   89.0382 C   0  0  0  0  0  0  0  0  0  0  0  0
   66.1806   70.7409   84.7180 C   0  0  0  0  0  0  0  0  0  0  0  0
   66.1716   71.7930   85.6235 C   0  0  0  0  0  0  0  0  0  0  0  0
   67.0270   71.5900   86.7228 C   0  0  0  0  0  0  0  0  0  0  0  0
   67.7138   70.3756   86.6611 C   0  0  0  0  0  0  0  0  0  0  0  0
   67.2637   69.5750   85.2533 S   0  0  0  0  0  0  0  0  0  0  0  0
   64.0980   71.2859   83.5698 N   0  0  0  0  0  0  0  0  0  0  0  0
   65.4245   70.6914   83.4243 C   0  0  0  0  0  0  0  0  0  0  0  0
   68.6256   72.6947   91.3545 C   0  0  0  0  0  0  0  0  0  0  0  0
   69.3563   71.5129   91.4983 C   0  0  0  0  0  0  0  0  0  0  0  0
   69.9367   71.4287   93.0739 S   0  0  0  0  0  0  0  0  0  0  0  0
   69.2592   72.8733   93.5965 C   0  0  0  0  0  0  0  0  0  0  0  0
   68.5820   73.4595   92.5357 C   0  0  0  0  0  0  0  0  0  0  0  0
   69.4593   73.4799   94.9484 C   0  0  0  0  0  0  0  0  0  0  0  0
   69.8379   74.8814   94.8125 N   0  0  0  0  0  0  0  0  0  0  0  0
   66.4411   76.2359   88.5338 C   0  0  0  0  0  0  0  0  0  0  0  0
   66.7646   76.9881   89.6999 O   0  0  0  0  0  0  0  0  0  0  0  0
   67.9570   77.7045   89.8800 C   0  0  0  0  0  0  0  0  0  0  0  0
   68.0168   79.0158   89.4042 C   0  0  0  0  0  0  0  0  0  0  0  0
   69.1788   79.7717   89.5554 C   0  0  0  0  0  0  0  0  0  0  0  0
   70.3048   79.2271   90.1872 C   0  0  0  0  0  0  0  0  0  0  0  0
   71.4549   80.0054   90.3232 O   0  0  0  0  0  0  0  0  0  0  0  0
   70.2651   77.9013   90.6779 C   0  0  0  0  0  0  0  0  0  0  0  0
   69.0837   77.1510   90.5174 C   0  0  0  0  0  0  0  0  0  0  0  0
   71.4334   77.2801   91.3544 C   0  0  0  0  0  0  0  0  0  0  0  0
   72.5727   77.2866   90.8156 O   0  0  0  0  0  0  0  0  0  0  0  0
   71.2809   76.6793   92.6020 O   0  0  0  0  0  0  0  0  0  0  0  0
 12 13  1  0
 13  7  1  0
  7  8  2  0
  8  9  1  0
  9  1  1  0
  1  2  2  0
  2  3  1  0
  3 21  1  0
 21 22  1  0
 22 23  1  0
 23 24  2  0
 24 25  1  0
 25 26  2  0
 26 27  1  0
 26 28  1  0
 28 30  1  0
 30 31  2  0
 30 32  1  0
 28 29  2  0
  3  4  2  0
  4  5  1  0
  5 14  1  0
 14 15  2  0
 15 16  1  0
 16 17  1  0
 17 19  1  0
 19 20  1  0
 17 18  2  0
  5  6  2  0
  9 10  2  0
 10 11  1  0
 11  7  1  0
  6  1  1  0
 29 23  1  0
 18 14  1  0
M  END
>  <Activity>  (88) 
0.257233

>  <minimizedAffinity>  (88) 
-8.27249

>  <MorganFP>  (88) 
<rdkit.DataStructs.cDataStructs.ExplicitBitVect object at 0x7f21e41bec10>

$$$$
