HIPS7000
     RDKit          3D

 36 39  0  0  0  0  0  0  0  0999 V2000
   68.1417   74.9743   94.6861 C   0  0  0  0  0  0  0  0  0  0  0  0
   66.9119   74.3485   94.9374 C   0  0  0  0  0  0  0  0  0  0  0  0
   65.7168   74.9809   94.5905 C   0  0  0  0  0  0  0  0  0  0  0  0
   65.7379   76.2407   93.9881 C   0  0  0  0  0  0  0  0  0  0  0  0
   66.9611   76.8805   93.7178 C   0  0  0  0  0  0  0  0  0  0  0  0
   68.1611   76.2331   94.0633 C   0  0  0  0  0  0  0  0  0  0  0  0
   66.9837   78.2232   93.0846 C   0  0  0  0  0  0  0  0  0  0  0  0
   66.5263   79.3530   93.7847 C   0  0  0  0  0  0  0  0  0  0  0  0
   66.5588   80.6147   93.1871 C   0  0  0  0  0  0  0  0  0  0  0  0
   67.0533   80.7646   91.8899 C   0  0  0  0  0  0  0  0  0  0  0  0
   67.5180   79.6560   91.1748 C   0  0  0  0  0  0  0  0  0  0  0  0
   67.4676   78.3822   91.7734 C   0  0  0  0  0  0  0  0  0  0  0  0
   68.0220   79.8637   89.8802 O   0  0  0  0  0  0  0  0  0  0  0  0
   67.7686   81.0137   89.0711 C   0  0  0  0  0  0  0  0  0  0  0  0
   69.0135   81.8488   88.9210 C   0  0  0  0  0  0  0  0  0  0  0  0
   69.1061   82.7943   87.8890 C   0  0  0  0  0  0  0  0  0  0  0  0
   70.2546   83.5788   87.7503 C   0  0  0  0  0  0  0  0  0  0  0  0
   71.3259   83.4391   88.6495 C   0  0  0  0  0  0  0  0  0  0  0  0
   71.2463   82.4629   89.6575 C   0  0  0  0  0  0  0  0  0  0  0  0
   70.0986   81.6770   89.7940 C   0  0  0  0  0  0  0  0  0  0  0  0
   72.5829   84.2533   88.4745 C   0  0  0  0  0  0  0  0  0  0  0  0
   73.5276   83.9065   89.4248 F   0  0  0  0  0  0  0  0  0  0  0  0
   73.1316   84.0399   87.2216 F   0  0  0  0  0  0  0  0  0  0  0  0
   72.2786   85.5948   88.6105 F   0  0  0  0  0  0  0  0  0  0  0  0
   69.4261   74.2931   95.0796 C   0  0  0  0  0  0  0  0  0  0  0  0
   70.1650   73.8992   93.9224 O   0  0  0  0  0  0  0  0  0  0  0  0
   70.5330   70.2044   93.4011 C   0  0  0  0  0  0  0  0  0  0  0  0
   70.5970   71.4707   94.0117 C   0  0  0  0  0  0  0  0  0  0  0  0
   70.1434   72.6211   93.3395 C   0  0  0  0  0  0  0  0  0  0  0  0
   69.6440   72.4979   92.0413 C   0  0  0  0  0  0  0  0  0  0  0  0
   69.5980   71.2524   91.4145 C   0  0  0  0  0  0  0  0  0  0  0  0
   70.0540   70.1054   92.0721 C   0  0  0  0  0  0  0  0  0  0  0  0
   70.0489   68.9027   91.3623 O   0  0  0  0  0  0  0  0  0  0  0  0
   71.9199   68.3222   93.8232 O   0  0  0  0  0  0  0  0  0  0  0  0
   70.9333   69.0174   94.1883 C   0  0  0  0  0  0  0  0  0  0  0  0
   70.2697   68.6930   95.3679 O   0  0  0  0  0  0  0  0  0  0  0  0
 34 35  2  0
 35 36  1  0
 35 27  1  0
 27 28  2  0
 28 29  1  0
 29 26  1  0
 26 25  1  0
 25  1  1  0
  1  2  2  0
  2  3  1  0
  3  4  2  0
  4  5  1  0
  5  7  1  0
  7  8  2  0
  8  9  1  0
  9 10  2  0
 10 11  1  0
 11 13  1  0
 13 14  1  0
 14 15  1  0
 15 16  2  0
 16 17  1  0
 17 18  2  0
 18 21  1  0
 21 22  1  0
 21 23  1  0
 21 24  1  0
 18 19  1  0
 19 20  2  0
 11 12  2  0
  5  6  2  0
 29 30  2  0
 30 31  1  0
 31 32  2  0
 32 33  1  0
 32 27  1  0
  6  1  1  0
 12  7  1  0
 20 15  1  0
M  END
>  <Activity>  (1) 
3.5

>  <minimizedAffinity>  (1) 
-9.58379

>  <MorganFP>  (1) 
<rdkit.DataStructs.cDataStructs.ExplicitBitVect object at 0x7f0ecf5dbac0>

$$$$
HIPS7006
     RDKit          3D

 33 36  0  0  0  0  0  0  0  0999 V2000
   69.7773   76.5866   91.9254 C   0  0  0  0  0  0  0  0  0  0  0  0
   71.1525   76.8427   91.8448 C   0  0  0  0  0  0  0  0  0  0  0  0
   71.6409   77.7508   90.9040 C   0  0  0  0  0  0  0  0  0  0  0  0
   70.7616   78.4203   90.0480 C   0  0  0  0  0  0  0  0  0  0  0  0
   69.3783   78.1563   90.0924 C   0  0  0  0  0  0  0  0  0  0  0  0
   68.9067   77.1972   91.0090 C   0  0  0  0  0  0  0  0  0  0  0  0
   68.4232   78.9188   89.2357 C   0  0  0  0  0  0  0  0  0  0  0  0
   67.5253   78.2491   88.3831 C   0  0  0  0  0  0  0  0  0  0  0  0
   66.6651   78.9699   87.5519 C   0  0  0  0  0  0  0  0  0  0  0  0
   66.6710   80.3651   87.5745 C   0  0  0  0  0  0  0  0  0  0  0  0
   67.5258   81.0563   88.4378 C   0  0  0  0  0  0  0  0  0  0  0  0
   68.4162   80.3301   89.2495 C   0  0  0  0  0  0  0  0  0  0  0  0
   67.4512   82.4582   88.4670 O   0  0  0  0  0  0  0  0  0  0  0  0
   67.5571   83.3088   87.3235 C   0  0  0  0  0  0  0  0  0  0  0  0
   68.8358   84.1035   87.3377 C   0  0  0  0  0  0  0  0  0  0  0  0
   68.8087   85.4850   87.5878 C   0  0  0  0  0  0  0  0  0  0  0  0
   70.0017   86.2099   87.6725 C   0  0  0  0  0  0  0  0  0  0  0  0
   71.2338   85.5595   87.5191 C   0  0  0  0  0  0  0  0  0  0  0  0
   72.4283   86.2719   87.5953 O   0  0  0  0  0  0  0  0  0  0  0  0
   71.2657   84.1819   87.2805 C   0  0  0  0  0  0  0  0  0  0  0  0
   70.0744   83.4556   87.1929 C   0  0  0  0  0  0  0  0  0  0  0  0
   69.2182   75.7280   93.0319 C   0  0  0  0  0  0  0  0  0  0  0  0
   70.1296   74.6924   93.4122 O   0  0  0  0  0  0  0  0  0  0  0  0
   70.3508   70.9460   93.5729 C   0  0  0  0  0  0  0  0  0  0  0  0
   70.3623   72.2945   93.9779 C   0  0  0  0  0  0  0  0  0  0  0  0
   70.0186   73.3275   93.0854 C   0  0  0  0  0  0  0  0  0  0  0  0
   69.5763   72.9940   91.8045 C   0  0  0  0  0  0  0  0  0  0  0  0
   69.4637   71.6587   91.4188 C   0  0  0  0  0  0  0  0  0  0  0  0
   69.8247   70.6278   92.2931 C   0  0  0  0  0  0  0  0  0  0  0  0
   69.6168   69.3164   91.8603 O   0  0  0  0  0  0  0  0  0  0  0  0
   72.1575   70.1092   94.9064 O   0  0  0  0  0  0  0  0  0  0  0  0
   70.9896   69.9420   94.4665 C   0  0  0  0  0  0  0  0  0  0  0  0
   70.2617   68.8374   94.9041 O   0  0  0  0  0  0  0  0  0  0  0  0
 31 32  2  0
 32 33  1  0
 32 24  1  0
 24 25  2  0
 25 26  1  0
 26 23  1  0
 23 22  1  0
 22  1  1  0
  1  2  2  0
  2  3  1  0
  3  4  2  0
  4  5  1  0
  5  7  1  0
  7  8  2  0
  8  9  1  0
  9 10  2  0
 10 11  1  0
 11 13  1  0
 13 14  1  0
 14 15  1  0
 15 16  2  0
 16 17  1  0
 17 18  2  0
 18 19  1  0
 18 20  1  0
 20 21  2  0
 11 12  2  0
  5  6  2  0
 26 27  2  0
 27 28  1  0
 28 29  2  0
 29 30  1  0
 29 24  1  0
  6  1  1  0
 12  7  1  0
 21 15  1  0
M  END
>  <Activity>  (2) 
6.5

>  <minimizedAffinity>  (2) 
-9.52259

>  <MorganFP>  (2) 
<rdkit.DataStructs.cDataStructs.ExplicitBitVect object at 0x7f0ecbbbca00>

$$$$
HIPS7006
     RDKit          3D

 33 36  0  0  0  0  0  0  0  0999 V2000
   68.0882   79.4354   89.3812 C   0  0  0  0  0  0  0  0  0  0  0  0
   67.3256   79.8562   88.2836 C   0  0  0  0  0  0  0  0  0  0  0  0
   66.6983   78.9150   87.4658 C   0  0  0  0  0  0  0  0  0  0  0  0
   66.8142   77.5501   87.7448 C   0  0  0  0  0  0  0  0  0  0  0  0
   67.5996   77.1040   88.8261 C   0  0  0  0  0  0  0  0  0  0  0  0
   68.2711   78.0624   89.6089 C   0  0  0  0  0  0  0  0  0  0  0  0
   67.6699   75.6552   89.1776 C   0  0  0  0  0  0  0  0  0  0  0  0
   66.9291   74.7003   88.4557 C   0  0  0  0  0  0  0  0  0  0  0  0
   66.9657   73.3522   88.8184 C   0  0  0  0  0  0  0  0  0  0  0  0
   67.7567   72.9333   89.8889 C   0  0  0  0  0  0  0  0  0  0  0  0
   68.5314   73.8538   90.6003 C   0  0  0  0  0  0  0  0  0  0  0  0
   68.4672   75.2165   90.2565 C   0  0  0  0  0  0  0  0  0  0  0  0
   69.3569   73.3741   91.6300 O   0  0  0  0  0  0  0  0  0  0  0  0
   68.9120   72.5926   92.7406 C   0  0  0  0  0  0  0  0  0  0  0  0
   67.9996   73.3787   93.6442 C   0  0  0  0  0  0  0  0  0  0  0  0
   68.5328   74.2889   94.5710 C   0  0  0  0  0  0  0  0  0  0  0  0
   67.6832   75.0715   95.3597 C   0  0  0  0  0  0  0  0  0  0  0  0
   66.2928   74.9600   95.2219 C   0  0  0  0  0  0  0  0  0  0  0  0
   65.4367   75.7297   96.0060 O   0  0  0  0  0  0  0  0  0  0  0  0
   65.7578   74.0624   94.2925 C   0  0  0  0  0  0  0  0  0  0  0  0
   66.6050   73.2773   93.5050 C   0  0  0  0  0  0  0  0  0  0  0  0
   68.6448   80.4379   90.3608 C   0  0  0  0  0  0  0  0  0  0  0  0
   70.0145   80.7461   90.0842 O   0  0  0  0  0  0  0  0  0  0  0  0
   70.3210   83.8475   87.9872 C   0  0  0  0  0  0  0  0  0  0  0  0
   69.7560   82.7220   88.6167 C   0  0  0  0  0  0  0  0  0  0  0  0
   70.4994   81.9430   89.5236 C   0  0  0  0  0  0  0  0  0  0  0  0
   71.7896   82.3511   89.8647 C   0  0  0  0  0  0  0  0  0  0  0  0
   72.3293   83.5189   89.3265 C   0  0  0  0  0  0  0  0  0  0  0  0
   71.6045   84.2856   88.4076 C   0  0  0  0  0  0  0  0  0  0  0  0
   72.1835   85.4779   87.9680 O   0  0  0  0  0  0  0  0  0  0  0  0
   68.3474   84.2792   86.6982 O   0  0  0  0  0  0  0  0  0  0  0  0
   69.5865   84.4503   86.8418 C   0  0  0  0  0  0  0  0  0  0  0  0
   70.2523   85.2946   85.9555 O   0  0  0  0  0  0  0  0  0  0  0  0
 31 32  2  0
 32 33  1  0
 32 24  1  0
 24 25  2  0
 25 26  1  0
 26 23  1  0
 23 22  1  0
 22  1  1  0
  1  2  2  0
  2  3  1  0
  3  4  2  0
  4  5  1  0
  5  7  1  0
  7  8  2  0
  8  9  1  0
  9 10  2  0
 10 11  1  0
 11 13  1  0
 13 14  1  0
 14 15  1  0
 15 16  2  0
 16 17  1  0
 17 18  2  0
 18 19  1  0
 18 20  1  0
 20 21  2  0
 11 12  2  0
  5  6  2  0
 26 27  2  0
 27 28  1  0
 28 29  2  0
 29 30  1  0
 29 24  1  0
  6  1  1  0
 12  7  1  0
 21 15  1  0
M  END
>  <Activity>  (3) 
6.5

>  <minimizedAffinity>  (3) 
-9.45150

>  <MorganFP>  (3) 
<rdkit.DataStructs.cDataStructs.ExplicitBitVect object at 0x7f0ecbbbca60>

$$$$
HIPS6981
     RDKit          3D

 32 35  0  0  0  0  0  0  0  0999 V2000
   68.7602   79.0178   89.5718 C   0  0  0  0  0  0  0  0  0  0  0  0
   67.8169   79.6964   88.7817 C   0  0  0  0  0  0  0  0  0  0  0  0
   66.7612   78.9971   88.1926 C   0  0  0  0  0  0  0  0  0  0  0  0
   66.6414   77.6177   88.3824 C   0  0  0  0  0  0  0  0  0  0  0  0
   67.5616   76.9319   89.1912 C   0  0  0  0  0  0  0  0  0  0  0  0
   68.6097   77.6393   89.7985 C   0  0  0  0  0  0  0  0  0  0  0  0
   67.4684   75.4687   89.3436 C   0  0  0  0  0  0  0  0  0  0  0  0
   66.9007   74.6780   88.3325 C   0  0  0  0  0  0  0  0  0  0  0  0
   66.8409   73.2884   88.4801 C   0  0  0  0  0  0  0  0  0  0  0  0
   67.3163   72.6839   89.6498 C   0  0  0  0  0  0  0  0  0  0  0  0
   67.8334   73.4674   90.6847 C   0  0  0  0  0  0  0  0  0  0  0  0
   67.9387   74.8578   90.5148 C   0  0  0  0  0  0  0  0  0  0  0  0
   68.2523   72.8487   91.8687 O   0  0  0  0  0  0  0  0  0  0  0  0
   67.8819   73.2704   93.1554 C   0  0  0  0  0  0  0  0  0  0  0  0
   68.8403   73.6059   94.1320 C   0  0  0  0  0  0  0  0  0  0  0  0
   68.4331   74.0614   95.3897 C   0  0  0  0  0  0  0  0  0  0  0  0
   67.0724   74.1926   95.6825 C   0  0  0  0  0  0  0  0  0  0  0  0
   66.6826   74.6534   96.8977 F   0  0  0  0  0  0  0  0  0  0  0  0
   66.1159   73.8621   94.7183 C   0  0  0  0  0  0  0  0  0  0  0  0
   66.5209   73.4034   93.4600 C   0  0  0  0  0  0  0  0  0  0  0  0
   69.9825   79.7294   90.0896 C   0  0  0  0  0  0  0  0  0  0  0  0
   69.7150   81.1272   90.2278 O   0  0  0  0  0  0  0  0  0  0  0  0
   70.3456   83.9294   87.8787 C   0  0  0  0  0  0  0  0  0  0  0  0
   69.7332   82.8535   88.5467 C   0  0  0  0  0  0  0  0  0  0  0  0
   70.4068   82.1443   89.5464 C   0  0  0  0  0  0  0  0  0  0  0  0
   71.7370   82.4760   89.8459 C   0  0  0  0  0  0  0  0  0  0  0  0
   72.3567   83.5410   89.1954 C   0  0  0  0  0  0  0  0  0  0  0  0
   71.6683   84.2948   88.2375 C   0  0  0  0  0  0  0  0  0  0  0  0
   72.3188   85.4059   87.6985 O   0  0  0  0  0  0  0  0  0  0  0  0
   68.3288   84.4981   86.7368 O   0  0  0  0  0  0  0  0  0  0  0  0
   69.5797   84.6218   86.8173 C   0  0  0  0  0  0  0  0  0  0  0  0
   70.2414   85.4611   85.9228 O   0  0  0  0  0  0  0  0  0  0  0  0
 30 31  2  0
 31 32  1  0
 31 23  1  0
 23 24  2  0
 24 25  1  0
 25 22  1  0
 22 21  1  0
 21  1  1  0
  1  2  2  0
  2  3  1  0
  3  4  2  0
  4  5  1  0
  5  7  1  0
  7  8  2  0
  8  9  1  0
  9 10  2  0
 10 11  1  0
 11 13  1  0
 13 14  1  0
 14 15  2  0
 15 16  1  0
 16 17  2  0
 17 18  1  0
 17 19  1  0
 19 20  2  0
 11 12  2  0
  5  6  2  0
 25 26  2  0
 26 27  1  0
 27 28  2  0
 28 29  1  0
 28 23  1  0
  6  1  1  0
 12  7  1  0
 20 14  1  0
M  END
>  <Activity>  (4) 
8.4

>  <minimizedAffinity>  (4) 
-9.82957

>  <MorganFP>  (4) 
<rdkit.DataStructs.cDataStructs.ExplicitBitVect object at 0x7f0ecbb7b040>

$$$$
HIPS6981
     RDKit          3D

 32 35  0  0  0  0  0  0  0  0999 V2000
   66.7583   79.3480   88.0253 C   0  0  0  0  0  0  0  0  0  0  0  0
   66.2421   78.2889   87.2596 C   0  0  0  0  0  0  0  0  0  0  0  0
   66.7538   76.9983   87.4112 C   0  0  0  0  0  0  0  0  0  0  0  0
   67.7856   76.7556   88.3221 C   0  0  0  0  0  0  0  0  0  0  0  0
   68.2922   77.7995   89.1125 C   0  0  0  0  0  0  0  0  0  0  0  0
   67.7632   79.0912   88.9734 C   0  0  0  0  0  0  0  0  0  0  0  0
   69.4192   77.5547   90.0306 C   0  0  0  0  0  0  0  0  0  0  0  0
   70.5684   78.3590   89.9842 C   0  0  0  0  0  0  0  0  0  0  0  0
   71.6201   78.1306   90.8776 C   0  0  0  0  0  0  0  0  0  0  0  0
   71.5450   77.0792   91.7988 C   0  0  0  0  0  0  0  0  0  0  0  0
   70.4284   76.2394   91.8160 C   0  0  0  0  0  0  0  0  0  0  0  0
   69.3518   76.5003   90.9523 C   0  0  0  0  0  0  0  0  0  0  0  0
   70.3971   75.1599   92.7070 O   0  0  0  0  0  0  0  0  0  0  0  0
   69.2600   74.7618   93.4276 C   0  0  0  0  0  0  0  0  0  0  0  0
   68.8568   75.4235   94.6043 C   0  0  0  0  0  0  0  0  0  0  0  0
   67.6952   75.0245   95.2726 C   0  0  0  0  0  0  0  0  0  0  0  0
   66.9240   73.9709   94.7728 C   0  0  0  0  0  0  0  0  0  0  0  0
   65.7873   73.6002   95.4143 F   0  0  0  0  0  0  0  0  0  0  0  0
   67.3176   73.3102   93.6056 C   0  0  0  0  0  0  0  0  0  0  0  0
   68.4811   73.7059   92.9366 C   0  0  0  0  0  0  0  0  0  0  0  0
   66.3211   80.7662   87.7680 C   0  0  0  0  0  0  0  0  0  0  0  0
   67.1169   81.6722   88.5363 O   0  0  0  0  0  0  0  0  0  0  0  0
   70.1146   83.7469   87.8451 C   0  0  0  0  0  0  0  0  0  0  0  0
   69.2465   82.7921   88.4051 C   0  0  0  0  0  0  0  0  0  0  0  0
   67.9139   82.6949   87.9921 C   0  0  0  0  0  0  0  0  0  0  0  0
   67.4206   83.6050   87.0445 C   0  0  0  0  0  0  0  0  0  0  0  0
   68.2685   84.5546   86.4781 C   0  0  0  0  0  0  0  0  0  0  0  0
   69.6190   84.6178   86.8413 C   0  0  0  0  0  0  0  0  0  0  0  0
   70.4298   85.5288   86.1624 O   0  0  0  0  0  0  0  0  0  0  0  0
   72.4334   84.2667   87.6268 O   0  0  0  0  0  0  0  0  0  0  0  0
   71.5071   83.8056   88.3451 C   0  0  0  0  0  0  0  0  0  0  0  0
   71.7932   83.3914   89.6446 O   0  0  0  0  0  0  0  0  0  0  0  0
 30 31  2  0
 31 32  1  0
 31 23  1  0
 23 24  2  0
 24 25  1  0
 25 22  1  0
 22 21  1  0
 21  1  1  0
  1  2  2  0
  2  3  1  0
  3  4  2  0
  4  5  1  0
  5  7  1  0
  7  8  2  0
  8  9  1  0
  9 10  2  0
 10 11  1  0
 11 13  1  0
 13 14  1  0
 14 15  2  0
 15 16  1  0
 16 17  2  0
 17 18  1  0
 17 19  1  0
 19 20  2  0
 11 12  2  0
  5  6  2  0
 25 26  2  0
 26 27  1  0
 27 28  2  0
 28 29  1  0
 28 23  1  0
  6  1  1  0
 12  7  1  0
 20 14  1  0
M  END
>  <Activity>  (5) 
8.4

>  <minimizedAffinity>  (5) 
-9.58051

>  <MorganFP>  (5) 
<rdkit.DataStructs.cDataStructs.ExplicitBitVect object at 0x7f0ecbb7b0a0>

$$$$
HIPS6981
     RDKit          3D

 32 35  0  0  0  0  0  0  0  0999 V2000
   67.1299   79.7282   87.9836 C   0  0  0  0  0  0  0  0  0  0  0  0
   66.4332   78.7071   87.3153 C   0  0  0  0  0  0  0  0  0  0  0  0
   66.7465   77.3679   87.5584 C   0  0  0  0  0  0  0  0  0  0  0  0
   67.7584   77.0378   88.4641 C   0  0  0  0  0  0  0  0  0  0  0  0
   68.4441   78.0473   89.1584 C   0  0  0  0  0  0  0  0  0  0  0  0
   68.1142   79.3911   88.9280 C   0  0  0  0  0  0  0  0  0  0  0  0
   69.5499   77.7009   90.0694 C   0  0  0  0  0  0  0  0  0  0  0  0
   70.7407   78.4438   90.0652 C   0  0  0  0  0  0  0  0  0  0  0  0
   71.7724   78.1189   90.9521 C   0  0  0  0  0  0  0  0  0  0  0  0
   71.6349   77.0321   91.8237 C   0  0  0  0  0  0  0  0  0  0  0  0
   70.4751   76.2534   91.7972 C   0  0  0  0  0  0  0  0  0  0  0  0
   69.4200   76.6107   90.9414 C   0  0  0  0  0  0  0  0  0  0  0  0
   70.3799   75.1376   92.6375 O   0  0  0  0  0  0  0  0  0  0  0  0
   69.2112   74.7544   93.3143 C   0  0  0  0  0  0  0  0  0  0  0  0
   68.4275   73.6650   92.8856 C   0  0  0  0  0  0  0  0  0  0  0  0
   67.2922   73.2875   93.6092 C   0  0  0  0  0  0  0  0  0  0  0  0
   66.9326   73.9851   94.7660 C   0  0  0  0  0  0  0  0  0  0  0  0
   65.8410   73.6027   95.4755 F   0  0  0  0  0  0  0  0  0  0  0  0
   67.7056   75.0666   95.1978 C   0  0  0  0  0  0  0  0  0  0  0  0
   68.8406   75.4481   94.4738 C   0  0  0  0  0  0  0  0  0  0  0  0
   66.9061   81.1735   87.6235 C   0  0  0  0  0  0  0  0  0  0  0  0
   67.5636   82.0220   88.5680 O   0  0  0  0  0  0  0  0  0  0  0  0
   71.1237   82.9378   89.0735 C   0  0  0  0  0  0  0  0  0  0  0  0
   69.8368   82.4046   89.2699 C   0  0  0  0  0  0  0  0  0  0  0  0
   68.8069   82.6432   88.3542 C   0  0  0  0  0  0  0  0  0  0  0  0
   69.0479   83.4772   87.2517 C   0  0  0  0  0  0  0  0  0  0  0  0
   70.3180   84.0106   87.0415 C   0  0  0  0  0  0  0  0  0  0  0  0
   71.3698   83.7260   87.9203 C   0  0  0  0  0  0  0  0  0  0  0  0
   72.6359   84.2145   87.5939 O   0  0  0  0  0  0  0  0  0  0  0  0
   71.8805   82.0189   91.1417 O   0  0  0  0  0  0  0  0  0  0  0  0
   72.1597   82.6606   90.0944 C   0  0  0  0  0  0  0  0  0  0  0  0
   73.4735   83.0709   89.8754 O   0  0  0  0  0  0  0  0  0  0  0  0
 30 31  2  0
 31 32  1  0
 31 23  1  0
 23 24  2  0
 24 25  1  0
 25 22  1  0
 22 21  1  0
 21  1  1  0
  1  2  2  0
  2  3  1  0
  3  4  2  0
  4  5  1  0
  5  7  1  0
  7  8  2  0
  8  9  1  0
  9 10  2  0
 10 11  1  0
 11 13  1  0
 13 14  1  0
 14 15  2  0
 15 16  1  0
 16 17  2  0
 17 18  1  0
 17 19  1  0
 19 20  2  0
 11 12  2  0
  5  6  2  0
 25 26  2  0
 26 27  1  0
 27 28  2  0
 28 29  1  0
 28 23  1  0
  6  1  1  0
 12  7  1  0
 20 14  1  0
M  END
>  <Activity>  (6) 
8.4

>  <minimizedAffinity>  (6) 
-9.57877

>  <MorganFP>  (6) 
<rdkit.DataStructs.cDataStructs.ExplicitBitVect object at 0x7f0ecbb7b5e0>

$$$$
HIPS6981
     RDKit          3D

 32 35  0  0  0  0  0  0  0  0999 V2000
   68.0023   79.6312   89.4626 C   0  0  0  0  0  0  0  0  0  0  0  0
   67.4392   79.9551   88.2166 C   0  0  0  0  0  0  0  0  0  0  0  0
   66.9715   78.9447   87.3734 C   0  0  0  0  0  0  0  0  0  0  0  0
   67.0665   77.6060   87.7635 C   0  0  0  0  0  0  0  0  0  0  0  0
   67.6025   77.2702   89.0170 C   0  0  0  0  0  0  0  0  0  0  0  0
   68.0531   78.2877   89.8710 C   0  0  0  0  0  0  0  0  0  0  0  0
   67.7555   75.8559   89.4031 C   0  0  0  0  0  0  0  0  0  0  0  0
   68.6549   75.4828   90.4139 C   0  0  0  0  0  0  0  0  0  0  0  0
   68.7722   74.1399   90.7868 C   0  0  0  0  0  0  0  0  0  0  0  0
   68.0180   73.1592   90.1316 C   0  0  0  0  0  0  0  0  0  0  0  0
   67.1604   73.5144   89.0873 C   0  0  0  0  0  0  0  0  0  0  0  0
   67.0064   74.8686   88.7474 C   0  0  0  0  0  0  0  0  0  0  0  0
   66.4570   72.5126   88.4078 O   0  0  0  0  0  0  0  0  0  0  0  0
   66.9140   71.8766   87.2427 C   0  0  0  0  0  0  0  0  0  0  0  0
   66.6794   72.4142   85.9618 C   0  0  0  0  0  0  0  0  0  0  0  0
   67.1856   71.7736   84.8267 C   0  0  0  0  0  0  0  0  0  0  0  0
   67.9333   70.5996   84.9575 C   0  0  0  0  0  0  0  0  0  0  0  0
   68.4388   69.9923   83.8544 F   0  0  0  0  0  0  0  0  0  0  0  0
   68.1706   70.0607   86.2252 C   0  0  0  0  0  0  0  0  0  0  0  0
   67.6627   70.6984   87.3624 C   0  0  0  0  0  0  0  0  0  0  0  0
   68.6435   80.6943   90.3155 C   0  0  0  0  0  0  0  0  0  0  0  0
   70.0317   80.8105   89.9937 O   0  0  0  0  0  0  0  0  0  0  0  0
   70.4329   83.9315   88.0272 C   0  0  0  0  0  0  0  0  0  0  0  0
   69.9142   82.7285   88.5397 C   0  0  0  0  0  0  0  0  0  0  0  0
   70.6352   81.9644   89.4629 C   0  0  0  0  0  0  0  0  0  0  0  0
   71.9228   82.3767   89.8387 C   0  0  0  0  0  0  0  0  0  0  0  0
   72.4496   83.5675   89.3424 C   0  0  0  0  0  0  0  0  0  0  0  0
   71.7089   84.3690   88.4657 C   0  0  0  0  0  0  0  0  0  0  0  0
   72.2600   85.5941   88.0866 O   0  0  0  0  0  0  0  0  0  0  0  0
   68.3698   84.7468   87.1478 O   0  0  0  0  0  0  0  0  0  0  0  0
   69.6227   84.6782   87.0380 C   0  0  0  0  0  0  0  0  0  0  0  0
   70.2547   85.3562   85.9972 O   0  0  0  0  0  0  0  0  0  0  0  0
 30 31  2  0
 31 32  1  0
 31 23  1  0
 23 24  2  0
 24 25  1  0
 25 22  1  0
 22 21  1  0
 21  1  1  0
  1  2  2  0
  2  3  1  0
  3  4  2  0
  4  5  1  0
  5  7  1  0
  7  8  2  0
  8  9  1  0
  9 10  2  0
 10 11  1  0
 11 13  1  0
 13 14  1  0
 14 15  2  0
 15 16  1  0
 16 17  2  0
 17 18  1  0
 17 19  1  0
 19 20  2  0
 11 12  2  0
  5  6  2  0
 25 26  2  0
 26 27  1  0
 27 28  2  0
 28 29  1  0
 28 23  1  0
  6  1  1  0
 12  7  1  0
 20 14  1  0
M  END
>  <Activity>  (7) 
8.4

>  <minimizedAffinity>  (7) 
-9.29032

>  <MorganFP>  (7) 
<rdkit.DataStructs.cDataStructs.ExplicitBitVect object at 0x7f0ecbb7b880>

$$$$
HIPS6981
     RDKit          3D

 32 35  0  0  0  0  0  0  0  0999 V2000
   66.9745   79.2739   87.8204 C   0  0  0  0  0  0  0  0  0  0  0  0
   66.3265   78.1954   87.1946 C   0  0  0  0  0  0  0  0  0  0  0  0
   66.6623   76.8825   87.5328 C   0  0  0  0  0  0  0  0  0  0  0  0
   67.6484   76.6358   88.4920 C   0  0  0  0  0  0  0  0  0  0  0  0
   68.2846   77.7041   89.1441 C   0  0  0  0  0  0  0  0  0  0  0  0
   67.9318   79.0219   88.8176 C   0  0  0  0  0  0  0  0  0  0  0  0
   69.3647   77.4440   90.1128 C   0  0  0  0  0  0  0  0  0  0  0  0
   70.5669   78.1660   90.0561 C   0  0  0  0  0  0  0  0  0  0  0  0
   71.5737   77.9257   90.9968 C   0  0  0  0  0  0  0  0  0  0  0  0
   71.4002   76.9419   91.9775 C   0  0  0  0  0  0  0  0  0  0  0  0
   70.2290   76.1804   92.0084 C   0  0  0  0  0  0  0  0  0  0  0  0
   69.1986   76.4567   91.0945 C   0  0  0  0  0  0  0  0  0  0  0  0
   70.0979   75.1638   92.9621 O   0  0  0  0  0  0  0  0  0  0  0  0
   69.8788   73.8122   92.6524 C   0  0  0  0  0  0  0  0  0  0  0  0
   69.3401   73.4115   91.4138 C   0  0  0  0  0  0  0  0  0  0  0  0
   69.1744   72.0535   91.1254 C   0  0  0  0  0  0  0  0  0  0  0  0
   69.5488   71.0856   92.0621 C   0  0  0  0  0  0  0  0  0  0  0  0
   69.4040   69.7686   91.7698 F   0  0  0  0  0  0  0  0  0  0  0  0
   70.0844   71.4757   93.2928 C   0  0  0  0  0  0  0  0  0  0  0  0
   70.2487   72.8342   93.5850 C   0  0  0  0  0  0  0  0  0  0  0  0
   66.7300   80.6876   87.3618 C   0  0  0  0  0  0  0  0  0  0  0  0
   67.3440   81.6098   88.2656 O   0  0  0  0  0  0  0  0  0  0  0  0
   70.2688   83.8578   87.8650 C   0  0  0  0  0  0  0  0  0  0  0  0
   69.4376   82.8026   88.2829 C   0  0  0  0  0  0  0  0  0  0  0  0
   68.1022   82.7275   87.8742 C   0  0  0  0  0  0  0  0  0  0  0  0
   67.5682   83.7545   87.0809 C   0  0  0  0  0  0  0  0  0  0  0  0
   68.3792   84.8049   86.6560 C   0  0  0  0  0  0  0  0  0  0  0  0
   69.7326   84.8546   87.0101 C   0  0  0  0  0  0  0  0  0  0  0  0
   70.5059   85.8826   86.4686 O   0  0  0  0  0  0  0  0  0  0  0  0
   72.5984   84.3155   87.6241 O   0  0  0  0  0  0  0  0  0  0  0  0
   71.6664   83.8837   88.3532 C   0  0  0  0  0  0  0  0  0  0  0  0
   71.9524   83.4712   89.6533 O   0  0  0  0  0  0  0  0  0  0  0  0
 30 31  2  0
 31 32  1  0
 31 23  1  0
 23 24  2  0
 24 25  1  0
 25 22  1  0
 22 21  1  0
 21  1  1  0
  1  2  2  0
  2  3  1  0
  3  4  2  0
  4  5  1  0
  5  7  1  0
  7  8  2  0
  8  9  1  0
  9 10  2  0
 10 11  1  0
 11 13  1  0
 13 14  1  0
 14 15  2  0
 15 16  1  0
 16 17  2  0
 17 18  1  0
 17 19  1  0
 19 20  2  0
 11 12  2  0
  5  6  2  0
 25 26  2  0
 26 27  1  0
 27 28  2  0
 28 29  1  0
 28 23  1  0
  6  1  1  0
 12  7  1  0
 20 14  1  0
M  END
>  <Activity>  (8) 
8.4

>  <minimizedAffinity>  (8) 
-9.16109

>  <MorganFP>  (8) 
<rdkit.DataStructs.cDataStructs.ExplicitBitVect object at 0x7f0ecbb7b580>

$$$$
HIPS6981
     RDKit          3D

 32 35  0  0  0  0  0  0  0  0999 V2000
   67.2902   80.4916   88.8018 C   0  0  0  0  0  0  0  0  0  0  0  0
   66.6496   79.7545   87.7915 C   0  0  0  0  0  0  0  0  0  0  0  0
   67.0121   78.4268   87.5538 C   0  0  0  0  0  0  0  0  0  0  0  0
   68.0177   77.8271   88.3169 C   0  0  0  0  0  0  0  0  0  0  0  0
   68.6472   78.5438   89.3470 C   0  0  0  0  0  0  0  0  0  0  0  0
   68.2678   79.8708   89.5977 C   0  0  0  0  0  0  0  0  0  0  0  0
   69.7472   77.9299   90.1125 C   0  0  0  0  0  0  0  0  0  0  0  0
   71.0673   78.3801   89.9557 C   0  0  0  0  0  0  0  0  0  0  0  0
   72.0977   77.8048   90.7065 C   0  0  0  0  0  0  0  0  0  0  0  0
   71.8221   76.7563   91.5922 C   0  0  0  0  0  0  0  0  0  0  0  0
   70.5198   76.2649   91.7148 C   0  0  0  0  0  0  0  0  0  0  0  0
   69.4782   76.8764   90.9977 C   0  0  0  0  0  0  0  0  0  0  0  0
   70.2745   75.1793   92.5642 O   0  0  0  0  0  0  0  0  0  0  0  0
   69.0089   74.8386   93.0671 C   0  0  0  0  0  0  0  0  0  0  0  0
   68.3941   75.5792   94.0958 C   0  0  0  0  0  0  0  0  0  0  0  0
   67.1149   75.2344   94.5427 C   0  0  0  0  0  0  0  0  0  0  0  0
   66.4363   74.1566   93.9662 C   0  0  0  0  0  0  0  0  0  0  0  0
   65.1873   73.8379   94.3900 F   0  0  0  0  0  0  0  0  0  0  0  0
   67.0398   73.4176   92.9447 C   0  0  0  0  0  0  0  0  0  0  0  0
   68.3210   73.7591   92.4977 C   0  0  0  0  0  0  0  0  0  0  0  0
   67.0153   81.9629   88.9709 C   0  0  0  0  0  0  0  0  0  0  0  0
   67.9373   82.5302   89.9050 O   0  0  0  0  0  0  0  0  0  0  0  0
   70.8338   84.2918   88.3967 C   0  0  0  0  0  0  0  0  0  0  0  0
   69.5222   83.8694   88.6800 C   0  0  0  0  0  0  0  0  0  0  0  0
   69.2732   82.8564   89.6115 C   0  0  0  0  0  0  0  0  0  0  0  0
   70.3551   82.2113   90.2300 C   0  0  0  0  0  0  0  0  0  0  0  0
   71.6602   82.6200   89.9624 C   0  0  0  0  0  0  0  0  0  0  0  0
   71.9142   83.6747   89.0777 C   0  0  0  0  0  0  0  0  0  0  0  0
   73.2378   84.0934   88.9329 O   0  0  0  0  0  0  0  0  0  0  0  0
   71.9168   86.2322   87.5269 O   0  0  0  0  0  0  0  0  0  0  0  0
   71.0236   85.3556   87.3844 C   0  0  0  0  0  0  0  0  0  0  0  0
   70.2379   85.3628   86.2333 O   0  0  0  0  0  0  0  0  0  0  0  0
 30 31  2  0
 31 32  1  0
 31 23  1  0
 23 24  2  0
 24 25  1  0
 25 22  1  0
 22 21  1  0
 21  1  1  0
  1  2  2  0
  2  3  1  0
  3  4  2  0
  4  5  1  0
  5  7  1  0
  7  8  2  0
  8  9  1  0
  9 10  2  0
 10 11  1  0
 11 13  1  0
 13 14  1  0
 14 15  2  0
 15 16  1  0
 16 17  2  0
 17 18  1  0
 17 19  1  0
 19 20  2  0
 11 12  2  0
  5  6  2  0
 25 26  2  0
 26 27  1  0
 27 28  2  0
 28 29  1  0
 28 23  1  0
  6  1  1  0
 12  7  1  0
 20 14  1  0
M  END
>  <Activity>  (9) 
8.4

>  <minimizedAffinity>  (9) 
-9.08261

>  <MorganFP>  (9) 
<rdkit.DataStructs.cDataStructs.ExplicitBitVect object at 0x7f0ecbb7b6a0>

$$$$
HIPS6981
     RDKit          3D

 32 35  0  0  0  0  0  0  0  0999 V2000
   67.2104   75.5557   88.5549 C   0  0  0  0  0  0  0  0  0  0  0  0
   67.0821   75.4151   87.1626 C   0  0  0  0  0  0  0  0  0  0  0  0
   66.9141   76.5425   86.3555 C   0  0  0  0  0  0  0  0  0  0  0  0
   66.8679   77.8156   86.9301 C   0  0  0  0  0  0  0  0  0  0  0  0
   67.0216   77.9724   88.3169 C   0  0  0  0  0  0  0  0  0  0  0  0
   67.2104   76.8406   89.1237 C   0  0  0  0  0  0  0  0  0  0  0  0
   66.9146   79.3094   88.9282 C   0  0  0  0  0  0  0  0  0  0  0  0
   65.9740   79.5616   89.9389 C   0  0  0  0  0  0  0  0  0  0  0  0
   65.9000   80.8285   90.5271 C   0  0  0  0  0  0  0  0  0  0  0  0
   66.7404   81.8583   90.0879 C   0  0  0  0  0  0  0  0  0  0  0  0
   67.6424   81.6318   89.0451 C   0  0  0  0  0  0  0  0  0  0  0  0
   67.7504   80.3462   88.4894 C   0  0  0  0  0  0  0  0  0  0  0  0
   68.4347   82.6895   88.5829 O   0  0  0  0  0  0  0  0  0  0  0  0
   69.7972   82.8468   88.8825 C   0  0  0  0  0  0  0  0  0  0  0  0
   70.6117   83.7579   88.1816 C   0  0  0  0  0  0  0  0  0  0  0  0
   71.9550   83.9168   88.5357 C   0  0  0  0  0  0  0  0  0  0  0  0
   72.4953   83.1771   89.5918 C   0  0  0  0  0  0  0  0  0  0  0  0
   73.7943   83.3490   89.9441 F   0  0  0  0  0  0  0  0  0  0  0  0
   71.6930   82.2717   90.2920 C   0  0  0  0  0  0  0  0  0  0  0  0
   70.3492   82.1088   89.9378 C   0  0  0  0  0  0  0  0  0  0  0  0
   67.2431   74.3444   89.4494 C   0  0  0  0  0  0  0  0  0  0  0  0
   68.5077   74.2568   90.1109 O   0  0  0  0  0  0  0  0  0  0  0  0
   68.3755   74.9287   93.7577 C   0  0  0  0  0  0  0  0  0  0  0  0
   68.0797   74.4305   92.4758 C   0  0  0  0  0  0  0  0  0  0  0  0
   68.8024   74.8464   91.3530 C   0  0  0  0  0  0  0  0  0  0  0  0
   69.8008   75.8212   91.5015 C   0  0  0  0  0  0  0  0  0  0  0  0
   70.1079   76.3224   92.7649 C   0  0  0  0  0  0  0  0  0  0  0  0
   69.4308   75.8654   93.9017 C   0  0  0  0  0  0  0  0  0  0  0  0
   69.8575   76.3393   95.1433 O   0  0  0  0  0  0  0  0  0  0  0  0
   66.5016   75.0634   95.2291 O   0  0  0  0  0  0  0  0  0  0  0  0
   67.5558   74.4589   94.8978 C   0  0  0  0  0  0  0  0  0  0  0  0
   67.9256   73.3048   95.5861 O   0  0  0  0  0  0  0  0  0  0  0  0
 30 31  2  0
 31 32  1  0
 31 23  1  0
 23 24  2  0
 24 25  1  0
 25 22  1  0
 22 21  1  0
 21  1  1  0
  1  2  2  0
  2  3  1  0
  3  4  2  0
  4  5  1  0
  5  7  1  0
  7  8  2  0
  8  9  1  0
  9 10  2  0
 10 11  1  0
 11 13  1  0
 13 14  1  0
 14 15  2  0
 15 16  1  0
 16 17  2  0
 17 18  1  0
 17 19  1  0
 19 20  2  0
 11 12  2  0
  5  6  2  0
 25 26  2  0
 26 27  1  0
 27 28  2  0
 28 29  1  0
 28 23  1  0
  6  1  1  0
 12  7  1  0
 20 14  1  0
M  END
>  <Activity>  (10) 
8.4

>  <minimizedAffinity>  (10) 
-8.97020

>  <MorganFP>  (10) 
<rdkit.DataStructs.cDataStructs.ExplicitBitVect object at 0x7f0ecbb7b7c0>

$$$$
HIPS6981
     RDKit          3D

 32 35  0  0  0  0  0  0  0  0999 V2000
   67.5883   80.8860   88.8725 C   0  0  0  0  0  0  0  0  0  0  0  0
   66.6591   80.1304   88.1374 C   0  0  0  0  0  0  0  0  0  0  0  0
   66.7563   78.7376   88.1040 C   0  0  0  0  0  0  0  0  0  0  0  0
   67.7818   78.0894   88.7979 C   0  0  0  0  0  0  0  0  0  0  0  0
   68.7008   78.8305   89.5578 C   0  0  0  0  0  0  0  0  0  0  0  0
   68.5895   80.2280   89.6065 C   0  0  0  0  0  0  0  0  0  0  0  0
   69.8159   78.1511   90.2417 C   0  0  0  0  0  0  0  0  0  0  0  0
   71.1458   78.4142   89.8782 C   0  0  0  0  0  0  0  0  0  0  0  0
   72.1949   77.7805   90.5521 C   0  0  0  0  0  0  0  0  0  0  0  0
   71.9225   76.8573   91.5686 C   0  0  0  0  0  0  0  0  0  0  0  0
   70.6008   76.5482   91.9004 C   0  0  0  0  0  0  0  0  0  0  0  0
   69.5493   77.2220   91.2574 C   0  0  0  0  0  0  0  0  0  0  0  0
   70.3491   75.5813   92.8811 O   0  0  0  0  0  0  0  0  0  0  0  0
   69.0689   75.1222   93.2290 C   0  0  0  0  0  0  0  0  0  0  0  0
   68.4166   74.1124   92.4945 C   0  0  0  0  0  0  0  0  0  0  0  0
   67.1588   73.6519   92.8956 C   0  0  0  0  0  0  0  0  0  0  0  0
   66.5447   74.1866   94.0320 C   0  0  0  0  0  0  0  0  0  0  0  0
   65.3327   73.7228   94.4282 F   0  0  0  0  0  0  0  0  0  0  0  0
   67.1861   75.1884   94.7660 C   0  0  0  0  0  0  0  0  0  0  0  0
   68.4436   75.6528   94.3650 C   0  0  0  0  0  0  0  0  0  0  0  0
   67.5855   82.3904   88.7979 C   0  0  0  0  0  0  0  0  0  0  0  0
   68.3436   82.8271   87.6670 O   0  0  0  0  0  0  0  0  0  0  0  0
   70.0936   85.9930   88.4933 C   0  0  0  0  0  0  0  0  0  0  0  0
   69.0955   85.0122   88.3501 C   0  0  0  0  0  0  0  0  0  0  0  0
   69.3619   83.7958   87.7134 C   0  0  0  0  0  0  0  0  0  0  0  0
   70.6312   83.5756   87.1569 C   0  0  0  0  0  0  0  0  0  0  0  0
   71.6317   84.5360   87.2930 C   0  0  0  0  0  0  0  0  0  0  0  0
   71.3905   85.7300   87.9827 C   0  0  0  0  0  0  0  0  0  0  0  0
   72.4658   86.6014   88.1636 O   0  0  0  0  0  0  0  0  0  0  0  0
   69.1479   87.2678   90.2752 O   0  0  0  0  0  0  0  0  0  0  0  0
   69.7346   87.2652   89.1606 C   0  0  0  0  0  0  0  0  0  0  0  0
   70.0919   88.4781   88.5747 O   0  0  0  0  0  0  0  0  0  0  0  0
 30 31  2  0
 31 32  1  0
 31 23  1  0
 23 24  2  0
 24 25  1  0
 25 22  1  0
 22 21  1  0
 21  1  1  0
  1  2  2  0
  2  3  1  0
  3  4  2  0
  4  5  1  0
  5  7  1  0
  7  8  2  0
  8  9  1  0
  9 10  2  0
 10 11  1  0
 11 13  1  0
 13 14  1  0
 14 15  2  0
 15 16  1  0
 16 17  2  0
 17 18  1  0
 17 19  1  0
 19 20  2  0
 11 12  2  0
  5  6  2  0
 25 26  2  0
 26 27  1  0
 27 28  2  0
 28 29  1  0
 28 23  1  0
  6  1  1  0
 12  7  1  0
 20 14  1  0
M  END
>  <Activity>  (11) 
8.4

>  <minimizedAffinity>  (11) 
-8.94404

>  <MorganFP>  (11) 
<rdkit.DataStructs.cDataStructs.ExplicitBitVect object at 0x7f0ecbb7b520>

$$$$
HIPS6984
     RDKit          3D

 31 34  0  0  0  0  0  0  0  0999 V2000
   68.1133   79.3386   89.4867 C   0  0  0  0  0  0  0  0  0  0  0  0
   67.5006   79.7647   88.3010 C   0  0  0  0  0  0  0  0  0  0  0  0
   66.9417   78.8160   87.4799 C   0  0  0  0  0  0  0  0  0  0  0  0
   66.9629   77.4714   87.7804 C   0  0  0  0  0  0  0  0  0  0  0  0
   67.5767   77.0914   88.9588 C   0  0  0  0  0  0  0  0  0  0  0  0
   68.1515   78.0162   89.8125 C   0  0  0  0  0  0  0  0  0  0  0  0
   67.5975   75.6645   89.2759 C   0  0  0  0  0  0  0  0  0  0  0  0
   66.9622   74.7914   88.4228 C   0  0  0  0  0  0  0  0  0  0  0  0
   66.9525   73.4151   88.6789 C   0  0  0  0  0  0  0  0  0  0  0  0
   67.5903   72.9198   89.8064 C   0  0  0  0  0  0  0  0  0  0  0  0
   68.2315   73.7756   90.6712 C   0  0  0  0  0  0  0  0  0  0  0  0
   68.2196   75.1494   90.3812 C   0  0  0  0  0  0  0  0  0  0  0  0
   68.8852   73.3828   91.7999 O   0  0  0  0  0  0  0  0  0  0  0  0
   68.4579   73.4084   93.1302 C   0  0  0  0  0  0  0  0  0  0  0  0
   66.9784   73.1462   93.1613 C   0  0  0  0  0  0  0  0  0  0  0  0
   66.2082   73.9841   94.1233 C   0  0  0  0  0  0  0  0  0  0  0  0
   67.0362   74.0829   95.3913 C   0  0  0  0  0  0  0  0  0  0  0  0
   68.2165   74.9668   95.0934 C   0  0  0  0  0  0  0  0  0  0  0  0
   68.9338   74.6138   93.8303 C   0  0  0  0  0  0  0  0  0  0  0  0
   68.7413   80.3460   90.3517 C   0  0  0  0  0  0  0  0  0  0  0  0
   69.9475   80.8468   90.0236 O   0  0  0  0  0  0  0  0  0  0  0  0
   70.3761   83.9975   88.1139 C   0  0  0  0  0  0  0  0  0  0  0  0
   69.8024   82.8454   88.6263 C   0  0  0  0  0  0  0  0  0  0  0  0
   70.4436   81.9817   89.4898 C   0  0  0  0  0  0  0  0  0  0  0  0
   71.7685   82.3602   89.8305 C   0  0  0  0  0  0  0  0  0  0  0  0
   72.3267   83.4988   89.3205 C   0  0  0  0  0  0  0  0  0  0  0  0
   71.6586   84.3386   88.4604 C   0  0  0  0  0  0  0  0  0  0  0  0
   72.2872   85.4779   87.9812 O   0  0  0  0  0  0  0  0  0  0  0  0
   68.5297   85.3071   87.5803 O   0  0  0  0  0  0  0  0  0  0  0  0
   69.6467   84.8696   87.2046 C   0  0  0  0  0  0  0  0  0  0  0  0
   70.1117   85.2356   85.9681 O   0  0  0  0  0  0  0  0  0  0  0  0
 29 30  2  0
 30 31  1  0
 30 22  1  0
 22 23  2  0
 23 24  1  0
 24 21  1  0
 21 20  1  0
 20  1  1  0
  1  2  2  0
  2  3  1  0
  3  4  2  0
  4  5  1  0
  5  7  1  0
  7  8  2  0
  8  9  1  0
  9 10  2  0
 10 11  1  0
 11 13  1  0
 13 14  1  0
 14 15  1  0
 15 16  1  0
 16 17  1  0
 17 18  1  0
 18 19  1  0
 11 12  2  0
  5  6  2  0
 24 25  2  0
 25 26  1  0
 26 27  2  0
 27 28  1  0
 27 22  1  0
  6  1  1  0
 12  7  1  0
 19 14  1  0
M  END
>  <Activity>  (12) 
10.3

>  <minimizedAffinity>  (12) 
-9.38206

>  <MorganFP>  (12) 
<rdkit.DataStructs.cDataStructs.ExplicitBitVect object at 0x7f0ecbb7b820>

$$$$
HIPS6984
     RDKit          3D

 31 34  0  0  0  0  0  0  0  0999 V2000
   69.6606   76.7659   91.9507 C   0  0  0  0  0  0  0  0  0  0  0  0
   71.0516   76.8222   91.7929 C   0  0  0  0  0  0  0  0  0  0  0  0
   71.5655   77.6773   90.8488 C   0  0  0  0  0  0  0  0  0  0  0  0
   70.7663   78.4747   90.0589 C   0  0  0  0  0  0  0  0  0  0  0  0
   69.3994   78.3903   90.2448 C   0  0  0  0  0  0  0  0  0  0  0  0
   68.8428   77.5413   91.1849 C   0  0  0  0  0  0  0  0  0  0  0  0
   68.5535   79.2376   89.4062 C   0  0  0  0  0  0  0  0  0  0  0  0
   67.6374   78.6351   88.5745 C   0  0  0  0  0  0  0  0  0  0  0  0
   66.8022   79.3997   87.7512 C   0  0  0  0  0  0  0  0  0  0  0  0
   66.8953   80.7832   87.7702 C   0  0  0  0  0  0  0  0  0  0  0  0
   67.8039   81.4047   88.5947 C   0  0  0  0  0  0  0  0  0  0  0  0
   68.6246   80.6046   89.4058 C   0  0  0  0  0  0  0  0  0  0  0  0
   67.9660   82.7542   88.6833 O   0  0  0  0  0  0  0  0  0  0  0  0
   68.4779   83.6526   87.7431 C   0  0  0  0  0  0  0  0  0  0  0  0
   69.8005   83.1314   87.2558 C   0  0  0  0  0  0  0  0  0  0  0  0
   70.8624   84.1630   87.0855 C   0  0  0  0  0  0  0  0  0  0  0  0
   70.2029   85.3854   86.4741 C   0  0  0  0  0  0  0  0  0  0  0  0
   69.3372   86.0103   87.5338 C   0  0  0  0  0  0  0  0  0  0  0  0
   68.4538   85.0369   88.2457 C   0  0  0  0  0  0  0  0  0  0  0  0
   69.1048   75.8290   92.9359 C   0  0  0  0  0  0  0  0  0  0  0  0
   69.8183   74.7474   93.3027 O   0  0  0  0  0  0  0  0  0  0  0  0
   70.3744   71.0817   93.4056 C   0  0  0  0  0  0  0  0  0  0  0  0
   70.3556   72.4137   93.7855 C   0  0  0  0  0  0  0  0  0  0  0  0
   69.8659   73.4345   92.9976 C   0  0  0  0  0  0  0  0  0  0  0  0
   69.3670   73.0207   91.7347 C   0  0  0  0  0  0  0  0  0  0  0  0
   69.3893   71.7042   91.3681 C   0  0  0  0  0  0  0  0  0  0  0  0
   69.8856   70.7105   92.1790 C   0  0  0  0  0  0  0  0  0  0  0  0
   69.8770   69.3945   91.7419 O   0  0  0  0  0  0  0  0  0  0  0  0
   70.5760   70.0822   95.4960 O   0  0  0  0  0  0  0  0  0  0  0  0
   70.9059   70.0490   94.2833 C   0  0  0  0  0  0  0  0  0  0  0  0
   71.7421   69.0491   93.8588 O   0  0  0  0  0  0  0  0  0  0  0  0
 29 30  2  0
 30 31  1  0
 30 22  1  0
 22 23  2  0
 23 24  1  0
 24 21  1  0
 21 20  1  0
 20  1  1  0
  1  2  2  0
  2  3  1  0
  3  4  2  0
  4  5  1  0
  5  7  1  0
  7  8  2  0
  8  9  1  0
  9 10  2  0
 10 11  1  0
 11 13  1  0
 13 14  1  0
 14 15  1  0
 15 16  1  0
 16 17  1  0
 17 18  1  0
 18 19  1  0
 11 12  2  0
  5  6  2  0
 24 25  2  0
 25 26  1  0
 26 27  2  0
 27 28  1  0
 27 22  1  0
  6  1  1  0
 12  7  1  0
 19 14  1  0
M  END
>  <Activity>  (13) 
10.3

>  <minimizedAffinity>  (13) 
-9.23529

>  <MorganFP>  (13) 
<rdkit.DataStructs.cDataStructs.ExplicitBitVect object at 0x7f0ecbb7b3a0>

$$$$
HIPS6984
     RDKit          3D

 31 34  0  0  0  0  0  0  0  0999 V2000
   67.1616   79.8855   88.1873 C   0  0  0  0  0  0  0  0  0  0  0  0
   66.5499   78.9164   87.3814 C   0  0  0  0  0  0  0  0  0  0  0  0
   66.9533   77.6102   87.5144 C   0  0  0  0  0  0  0  0  0  0  0  0
   67.9304   77.2242   88.4060 C   0  0  0  0  0  0  0  0  0  0  0  0
   68.5096   78.2096   89.1828 C   0  0  0  0  0  0  0  0  0  0  0  0
   68.1314   79.5365   89.0785 C   0  0  0  0  0  0  0  0  0  0  0  0
   69.5456   77.7978   90.1284 C   0  0  0  0  0  0  0  0  0  0  0  0
   70.8242   78.2754   89.9529 C   0  0  0  0  0  0  0  0  0  0  0  0
   71.8536   77.9132   90.8299 C   0  0  0  0  0  0  0  0  0  0  0  0
   71.5863   77.0617   91.8914 C   0  0  0  0  0  0  0  0  0  0  0  0
   70.3150   76.5738   92.0845 C   0  0  0  0  0  0  0  0  0  0  0  0
   69.3089   76.9593   91.1842 C   0  0  0  0  0  0  0  0  0  0  0  0
   69.9573   75.7362   93.0974 O   0  0  0  0  0  0  0  0  0  0  0  0
   69.3820   74.4639   93.0386 C   0  0  0  0  0  0  0  0  0  0  0  0
   69.7734   73.8229   91.7369 C   0  0  0  0  0  0  0  0  0  0  0  0
   68.6876   73.0639   91.0546 C   0  0  0  0  0  0  0  0  0  0  0  0
   67.9285   72.3077   92.1294 C   0  0  0  0  0  0  0  0  0  0  0  0
   67.1438   73.3160   92.9235 C   0  0  0  0  0  0  0  0  0  0  0  0
   67.9438   74.5032   93.3538 C   0  0  0  0  0  0  0  0  0  0  0  0
   66.7570   81.2882   88.0254 C   0  0  0  0  0  0  0  0  0  0  0  0
   67.4851   82.1050   87.2405 O   0  0  0  0  0  0  0  0  0  0  0  0
   70.5920   83.8489   88.2715 C   0  0  0  0  0  0  0  0  0  0  0  0
   69.6107   82.8770   88.1643 C   0  0  0  0  0  0  0  0  0  0  0  0
   68.4771   83.0065   87.3892 C   0  0  0  0  0  0  0  0  0  0  0  0
   68.3773   84.2360   86.6868 C   0  0  0  0  0  0  0  0  0  0  0  0
   69.3503   85.1893   86.7981 C   0  0  0  0  0  0  0  0  0  0  0  0
   70.4693   85.0277   87.5812 C   0  0  0  0  0  0  0  0  0  0  0  0
   71.4170   86.0379   87.6475 O   0  0  0  0  0  0  0  0  0  0  0  0
   71.5947   83.1860   90.2626 O   0  0  0  0  0  0  0  0  0  0  0  0
   71.7673   83.6526   89.1081 C   0  0  0  0  0  0  0  0  0  0  0  0
   73.0435   83.9486   88.7048 O   0  0  0  0  0  0  0  0  0  0  0  0
 29 30  2  0
 30 31  1  0
 30 22  1  0
 22 23  2  0
 23 24  1  0
 24 21  1  0
 21 20  1  0
 20  1  1  0
  1  2  2  0
  2  3  1  0
  3  4  2  0
  4  5  1  0
  5  7  1  0
  7  8  2  0
  8  9  1  0
  9 10  2  0
 10 11  1  0
 11 13  1  0
 13 14  1  0
 14 15  1  0
 15 16  1  0
 16 17  1  0
 17 18  1  0
 18 19  1  0
 11 12  2  0
  5  6  2  0
 24 25  2  0
 25 26  1  0
 26 27  2  0
 27 28  1  0
 27 22  1  0
  6  1  1  0
 12  7  1  0
 19 14  1  0
M  END
>  <Activity>  (14) 
10.3

>  <minimizedAffinity>  (14) 
-9.16177

>  <MorganFP>  (14) 
<rdkit.DataStructs.cDataStructs.ExplicitBitVect object at 0x7f0ecbb7b640>

$$$$
HIPS6984
     RDKit          3D

 31 34  0  0  0  0  0  0  0  0999 V2000
   67.1286   79.8290   88.3728 C   0  0  0  0  0  0  0  0  0  0  0  0
   66.4809   78.8854   87.5649 C   0  0  0  0  0  0  0  0  0  0  0  0
   66.8889   77.5759   87.6387 C   0  0  0  0  0  0  0  0  0  0  0  0
   67.9046   77.1627   88.4732 C   0  0  0  0  0  0  0  0  0  0  0  0
   68.5185   78.1236   89.2540 C   0  0  0  0  0  0  0  0  0  0  0  0
   68.1369   79.4528   89.2085 C   0  0  0  0  0  0  0  0  0  0  0  0
   69.5953   77.6830   90.1390 C   0  0  0  0  0  0  0  0  0  0  0  0
   70.8340   78.2684   90.0103 C   0  0  0  0  0  0  0  0  0  0  0  0
   71.8997   77.8842   90.8329 C   0  0  0  0  0  0  0  0  0  0  0  0
   71.7096   76.9008   91.7920 C   0  0  0  0  0  0  0  0  0  0  0  0
   70.4792   76.3037   91.9371 C   0  0  0  0  0  0  0  0  0  0  0  0
   69.4347   76.7152   91.0937 C   0  0  0  0  0  0  0  0  0  0  0  0
   70.1972   75.3330   92.8501 O   0  0  0  0  0  0  0  0  0  0  0  0
   69.4403   74.1672   92.7043 C   0  0  0  0  0  0  0  0  0  0  0  0
   69.8575   73.1913   93.7684 C   0  0  0  0  0  0  0  0  0  0  0  0
   69.9710   71.7754   93.3179 C   0  0  0  0  0  0  0  0  0  0  0  0
   68.7990   71.5064   92.3921 C   0  0  0  0  0  0  0  0  0  0  0  0
   69.0521   72.2553   91.1122 C   0  0  0  0  0  0  0  0  0  0  0  0
   69.4550   73.6806   91.3141 C   0  0  0  0  0  0  0  0  0  0  0  0
   66.7182   81.2358   88.2733 C   0  0  0  0  0  0  0  0  0  0  0  0
   67.4558   82.1889   88.8741 O   0  0  0  0  0  0  0  0  0  0  0  0
   70.4292   84.1904   87.9201 C   0  0  0  0  0  0  0  0  0  0  0  0
   69.1253   83.7250   87.9681 C   0  0  0  0  0  0  0  0  0  0  0  0
   68.7037   82.6915   88.7785 C   0  0  0  0  0  0  0  0  0  0  0  0
   69.7215   82.1179   89.5846 C   0  0  0  0  0  0  0  0  0  0  0  0
   71.0055   82.5835   89.5310 C   0  0  0  0  0  0  0  0  0  0  0  0
   71.3924   83.6171   88.7104 C   0  0  0  0  0  0  0  0  0  0  0  0
   72.7137   84.0380   88.7072 O   0  0  0  0  0  0  0  0  0  0  0  0
   71.5783   86.1694   87.5050 O   0  0  0  0  0  0  0  0  0  0  0  0
   70.8126   85.2864   87.0419 C   0  0  0  0  0  0  0  0  0  0  0  0
   70.3846   85.4047   85.7450 O   0  0  0  0  0  0  0  0  0  0  0  0
 29 30  2  0
 30 31  1  0
 30 22  1  0
 22 23  2  0
 23 24  1  0
 24 21  1  0
 21 20  1  0
 20  1  1  0
  1  2  2  0
  2  3  1  0
  3  4  2  0
  4  5  1  0
  5  7  1  0
  7  8  2  0
  8  9  1  0
  9 10  2  0
 10 11  1  0
 11 13  1  0
 13 14  1  0
 14 15  1  0
 15 16  1  0
 16 17  1  0
 17 18  1  0
 18 19  1  0
 11 12  2  0
  5  6  2  0
 24 25  2  0
 25 26  1  0
 26 27  2  0
 27 28  1  0
 27 22  1  0
  6  1  1  0
 12  7  1  0
 19 14  1  0
M  END
>  <Activity>  (15) 
10.3

>  <minimizedAffinity>  (15) 
-8.97675

>  <MorganFP>  (15) 
<rdkit.DataStructs.cDataStructs.ExplicitBitVect object at 0x7f0ecbb7b9a0>

$$$$
HIPS6984
     RDKit          3D

 31 34  0  0  0  0  0  0  0  0999 V2000
   66.9816   76.2331   88.2321 C   0  0  0  0  0  0  0  0  0  0  0  0
   67.0672   76.4879   86.8572 C   0  0  0  0  0  0  0  0  0  0  0  0
   67.2584   77.7846   86.4463 C   0  0  0  0  0  0  0  0  0  0  0  0
   67.3682   78.8337   87.3329 C   0  0  0  0  0  0  0  0  0  0  0  0
   67.2784   78.5412   88.6806 C   0  0  0  0  0  0  0  0  0  0  0  0
   67.0857   77.2485   89.1347 C   0  0  0  0  0  0  0  0  0  0  0  0
   67.3957   79.6556   89.6193 C   0  0  0  0  0  0  0  0  0  0  0  0
   66.3104   79.9718   90.4042 C   0  0  0  0  0  0  0  0  0  0  0  0
   66.3694   81.0289   91.3202 C   0  0  0  0  0  0  0  0  0  0  0  0
   67.5349   81.7706   91.4419 C   0  0  0  0  0  0  0  0  0  0  0  0
   68.6307   81.4703   90.6672 C   0  0  0  0  0  0  0  0  0  0  0  0
   68.5337   80.4033   89.7597 C   0  0  0  0  0  0  0  0  0  0  0  0
   69.8163   82.1392   90.7178 O   0  0  0  0  0  0  0  0  0  0  0  0
   70.6265   82.5943   89.6740 C   0  0  0  0  0  0  0  0  0  0  0  0
   72.0546   82.2533   89.9951 C   0  0  0  0  0  0  0  0  0  0  0  0
   73.0470   83.3153   89.6665 C   0  0  0  0  0  0  0  0  0  0  0  0
   72.6406   83.9076   88.3296 C   0  0  0  0  0  0  0  0  0  0  0  0
   71.3916   84.7156   88.5536 C   0  0  0  0  0  0  0  0  0  0  0  0
   70.3387   83.9987   89.3359 C   0  0  0  0  0  0  0  0  0  0  0  0
   66.7441   74.8529   88.6752 C   0  0  0  0  0  0  0  0  0  0  0  0
   67.7636   74.1294   89.1756 O   0  0  0  0  0  0  0  0  0  0  0  0
   69.6422   74.8337   92.2953 C   0  0  0  0  0  0  0  0  0  0  0  0
   68.9765   75.0284   91.0962 C   0  0  0  0  0  0  0  0  0  0  0  0
   68.4213   74.0118   90.3472 C   0  0  0  0  0  0  0  0  0  0  0  0
   68.5800   72.7142   90.9003 C   0  0  0  0  0  0  0  0  0  0  0  0
   69.2381   72.5312   92.0841 C   0  0  0  0  0  0  0  0  0  0  0  0
   69.7806   73.5684   92.8062 C   0  0  0  0  0  0  0  0  0  0  0  0
   70.4357   73.3092   94.0006 O   0  0  0  0  0  0  0  0  0  0  0  0
   69.7234   76.2057   94.1715 O   0  0  0  0  0  0  0  0  0  0  0  0
   70.2077   75.9495   93.0400 C   0  0  0  0  0  0  0  0  0  0  0  0
   71.2339   76.7300   92.5743 O   0  0  0  0  0  0  0  0  0  0  0  0
 29 30  2  0
 30 31  1  0
 30 22  1  0
 22 23  2  0
 23 24  1  0
 24 21  1  0
 21 20  1  0
 20  1  1  0
  1  2  2  0
  2  3  1  0
  3  4  2  0
  4  5  1  0
  5  7  1  0
  7  8  2  0
  8  9  1  0
  9 10  2  0
 10 11  1  0
 11 13  1  0
 13 14  1  0
 14 15  1  0
 15 16  1  0
 16 17  1  0
 17 18  1  0
 18 19  1  0
 11 12  2  0
  5  6  2  0
 24 25  2  0
 25 26  1  0
 26 27  2  0
 27 28  1  0
 27 22  1  0
  6  1  1  0
 12  7  1  0
 19 14  1  0
M  END
>  <Activity>  (16) 
10.3

>  <minimizedAffinity>  (16) 
-8.95517

>  <MorganFP>  (16) 
<rdkit.DataStructs.cDataStructs.ExplicitBitVect object at 0x7f0ecbb7b1c0>

$$$$
HIPS6984
     RDKit          3D

 31 34  0  0  0  0  0  0  0  0999 V2000
   69.9105   78.6100   90.3360 C   0  0  0  0  0  0  0  0  0  0  0  0
   71.2758   78.5940   90.0222 C   0  0  0  0  0  0  0  0  0  0  0  0
   72.0682   77.6401   90.6128 C   0  0  0  0  0  0  0  0  0  0  0  0
   71.5700   76.7065   91.4954 C   0  0  0  0  0  0  0  0  0  0  0  0
   70.2183   76.7555   91.7791 C   0  0  0  0  0  0  0  0  0  0  0  0
   69.3868   77.7009   91.2053 C   0  0  0  0  0  0  0  0  0  0  0  0
   69.6918   75.7638   92.7152 C   0  0  0  0  0  0  0  0  0  0  0  0
   69.3885   76.1642   93.9964 C   0  0  0  0  0  0  0  0  0  0  0  0
   68.8808   75.2553   94.9325 C   0  0  0  0  0  0  0  0  0  0  0  0
   68.6790   73.9324   94.5686 C   0  0  0  0  0  0  0  0  0  0  0  0
   68.9753   73.5123   93.2930 C   0  0  0  0  0  0  0  0  0  0  0  0
   69.4829   74.4526   92.3822 C   0  0  0  0  0  0  0  0  0  0  0  0
   68.8089   72.2370   92.8441 O   0  0  0  0  0  0  0  0  0  0  0  0
   69.6597   71.1345   92.9609 C   0  0  0  0  0  0  0  0  0  0  0  0
   70.8377   71.5282   93.8070 C   0  0  0  0  0  0  0  0  0  0  0  0
   72.1548   71.0158   93.3344 C   0  0  0  0  0  0  0  0  0  0  0  0
   71.9372   69.5874   92.8701 C   0  0  0  0  0  0  0  0  0  0  0  0
   71.1530   69.6428   91.5876 C   0  0  0  0  0  0  0  0  0  0  0  0
   69.9554   70.5354   91.6482 C   0  0  0  0  0  0  0  0  0  0  0  0
   69.0653   79.6487   89.7325 C   0  0  0  0  0  0  0  0  0  0  0  0
   69.2856   80.9432   90.0312 O   0  0  0  0  0  0  0  0  0  0  0  0
   70.1715   83.9604   88.0642 C   0  0  0  0  0  0  0  0  0  0  0  0
   69.4416   82.9017   88.5794 C   0  0  0  0  0  0  0  0  0  0  0  0
   69.9373   81.9935   89.4916 C   0  0  0  0  0  0  0  0  0  0  0  0
   71.2834   82.2198   89.8809 C   0  0  0  0  0  0  0  0  0  0  0  0
   71.9962   83.2671   89.3677 C   0  0  0  0  0  0  0  0  0  0  0  0
   71.4707   84.1550   88.4584 C   0  0  0  0  0  0  0  0  0  0  0  0
   72.2522   85.1954   87.9790 O   0  0  0  0  0  0  0  0  0  0  0  0
   68.4517   85.3549   87.3521 O   0  0  0  0  0  0  0  0  0  0  0  0
   69.5911   84.8862   87.1021 C   0  0  0  0  0  0  0  0  0  0  0  0
   70.2186   85.2705   85.9455 O   0  0  0  0  0  0  0  0  0  0  0  0
 29 30  2  0
 30 31  1  0
 30 22  1  0
 22 23  2  0
 23 24  1  0
 24 21  1  0
 21 20  1  0
 20  1  1  0
  1  2  2  0
  2  3  1  0
  3  4  2  0
  4  5  1  0
  5  7  1  0
  7  8  2  0
  8  9  1  0
  9 10  2  0
 10 11  1  0
 11 13  1  0
 13 14  1  0
 14 15  1  0
 15 16  1  0
 16 17  1  0
 17 18  1  0
 18 19  1  0
 11 12  2  0
  5  6  2  0
 24 25  2  0
 25 26  1  0
 26 27  2  0
 27 28  1  0
 27 22  1  0
  6  1  1  0
 12  7  1  0
 19 14  1  0
M  END
>  <Activity>  (17) 
10.3

>  <minimizedAffinity>  (17) 
-8.93539

>  <MorganFP>  (17) 
<rdkit.DataStructs.cDataStructs.ExplicitBitVect object at 0x7f0ecbb7bac0>

$$$$
HIPS6984
     RDKit          3D

 31 34  0  0  0  0  0  0  0  0999 V2000
   68.9364   78.3136   90.5062 C   0  0  0  0  0  0  0  0  0  0  0  0
   69.9792   77.3999   90.7074 C   0  0  0  0  0  0  0  0  0  0  0  0
   71.2714   77.8536   90.6019 C   0  0  0  0  0  0  0  0  0  0  0  0
   71.5739   79.1653   90.3078 C   0  0  0  0  0  0  0  0  0  0  0  0
   70.5174   80.0354   90.1163 C   0  0  0  0  0  0  0  0  0  0  0  0
   69.2020   79.6175   90.2134 C   0  0  0  0  0  0  0  0  0  0  0  0
   70.8406   81.4267   89.8049 C   0  0  0  0  0  0  0  0  0  0  0  0
   72.1396   81.8520   89.9643 C   0  0  0  0  0  0  0  0  0  0  0  0
   72.5033   83.1736   89.6796 C   0  0  0  0  0  0  0  0  0  0  0  0
   71.5453   84.0702   89.2308 C   0  0  0  0  0  0  0  0  0  0  0  0
   70.2417   83.6649   89.0644 C   0  0  0  0  0  0  0  0  0  0  0  0
   69.9149   82.3318   89.3603 C   0  0  0  0  0  0  0  0  0  0  0  0
   69.2343   84.4710   88.6276 O   0  0  0  0  0  0  0  0  0  0  0  0
   68.9948   85.8213   88.8969 C   0  0  0  0  0  0  0  0  0  0  0  0
   69.9494   86.6472   88.0814 C   0  0  0  0  0  0  0  0  0  0  0  0
   70.5384   87.8175   88.7914 C   0  0  0  0  0  0  0  0  0  0  0  0
   69.4281   88.4457   89.6134 C   0  0  0  0  0  0  0  0  0  0  0  0
   69.1285   87.5143   90.7561 C   0  0  0  0  0  0  0  0  0  0  0  0
   68.9559   86.0875   90.3451 C   0  0  0  0  0  0  0  0  0  0  0  0
   67.5531   77.8260   90.5853 C   0  0  0  0  0  0  0  0  0  0  0  0
   67.3003   76.5121   90.4332 O   0  0  0  0  0  0  0  0  0  0  0  0
   67.6377   73.8796   93.0243 C   0  0  0  0  0  0  0  0  0  0  0  0
   67.3327   75.0867   92.4169 C   0  0  0  0  0  0  0  0  0  0  0  0
   67.5697   75.3634   91.0865 C   0  0  0  0  0  0  0  0  0  0  0  0
   68.1635   74.3002   90.3572 C   0  0  0  0  0  0  0  0  0  0  0  0
   68.4609   73.1123   90.9644 C   0  0  0  0  0  0  0  0  0  0  0  0
   68.2113   72.8696   92.2949 C   0  0  0  0  0  0  0  0  0  0  0  0
   68.5395   71.6399   92.8455 O   0  0  0  0  0  0  0  0  0  0  0  0
   66.1773   73.7792   94.8316 O   0  0  0  0  0  0  0  0  0  0  0  0
   67.3631   73.6485   94.4352 C   0  0  0  0  0  0  0  0  0  0  0  0
   68.3244   73.2984   95.3476 O   0  0  0  0  0  0  0  0  0  0  0  0
 29 30  2  0
 30 31  1  0
 30 22  1  0
 22 23  2  0
 23 24  1  0
 24 21  1  0
 21 20  1  0
 20  1  1  0
  1  2  2  0
  2  3  1  0
  3  4  2  0
  4  5  1  0
  5  7  1  0
  7  8  2  0
  8  9  1  0
  9 10  2  0
 10 11  1  0
 11 13  1  0
 13 14  1  0
 14 15  1  0
 15 16  1  0
 16 17  1  0
 17 18  1  0
 18 19  1  0
 11 12  2  0
  5  6  2  0
 24 25  2  0
 25 26  1  0
 26 27  2  0
 27 28  1  0
 27 22  1  0
  6  1  1  0
 12  7  1  0
 19 14  1  0
M  END
>  <Activity>  (18) 
10.3

>  <minimizedAffinity>  (18) 
-8.87938

>  <MorganFP>  (18) 
<rdkit.DataStructs.cDataStructs.ExplicitBitVect object at 0x7f0ecbb7b760>

$$$$
HIPS6984
     RDKit          3D

 31 34  0  0  0  0  0  0  0  0999 V2000
   69.2916   78.3679   90.2706 C   0  0  0  0  0  0  0  0  0  0  0  0
   70.6315   78.5384   89.8987 C   0  0  0  0  0  0  0  0  0  0  0  0
   71.5867   77.7941   90.5470 C   0  0  0  0  0  0  0  0  0  0  0  0
   71.2742   76.8933   91.5418 C   0  0  0  0  0  0  0  0  0  0  0  0
   69.9415   76.7541   91.8799 C   0  0  0  0  0  0  0  0  0  0  0  0
   68.9496   77.4855   91.2509 C   0  0  0  0  0  0  0  0  0  0  0  0
   69.6123   75.7975   92.9351 C   0  0  0  0  0  0  0  0  0  0  0  0
   69.2478   76.2806   94.1710 C   0  0  0  0  0  0  0  0  0  0  0  0
   68.9218   75.4083   95.2164 C   0  0  0  0  0  0  0  0  0  0  0  0
   68.9653   74.0378   95.0087 C   0  0  0  0  0  0  0  0  0  0  0  0
   69.3266   73.5347   93.7808 C   0  0  0  0  0  0  0  0  0  0  0  0
   69.6468   74.4407   92.7569 C   0  0  0  0  0  0  0  0  0  0  0  0
   69.3957   72.2075   93.4824 O   0  0  0  0  0  0  0  0  0  0  0  0
   70.3766   71.5036   92.7786 C   0  0  0  0  0  0  0  0  0  0  0  0
   69.7263   70.3341   92.0944 C   0  0  0  0  0  0  0  0  0  0  0  0
   70.5062   69.0649   92.1343 C   0  0  0  0  0  0  0  0  0  0  0  0
   71.9613   69.4279   91.9016 C   0  0  0  0  0  0  0  0  0  0  0  0
   72.4559   70.1292   93.1372 C   0  0  0  0  0  0  0  0  0  0  0  0
   71.5472   71.2119   93.6237 C   0  0  0  0  0  0  0  0  0  0  0  0
   68.2699   79.1854   89.6032 C   0  0  0  0  0  0  0  0  0  0  0  0
   67.3710   78.5963   88.7919 O   0  0  0  0  0  0  0  0  0  0  0  0
   66.9830   75.1418   87.4984 C   0  0  0  0  0  0  0  0  0  0  0  0
   67.0283   76.2138   88.3745 C   0  0  0  0  0  0  0  0  0  0  0  0
   67.3093   77.5099   87.9951 C   0  0  0  0  0  0  0  0  0  0  0  0
   67.5560   77.6805   86.6077 C   0  0  0  0  0  0  0  0  0  0  0  0
   67.5090   76.6172   85.7502 C   0  0  0  0  0  0  0  0  0  0  0  0
   67.2257   75.3361   86.1625 C   0  0  0  0  0  0  0  0  0  0  0  0
   67.1950   74.3042   85.2367 O   0  0  0  0  0  0  0  0  0  0  0  0
   67.1072   73.4537   89.0934 O   0  0  0  0  0  0  0  0  0  0  0  0
   66.6808   73.7949   87.9610 C   0  0  0  0  0  0  0  0  0  0  0  0
   65.9606   72.8857   87.2306 O   0  0  0  0  0  0  0  0  0  0  0  0
 29 30  2  0
 30 31  1  0
 30 22  1  0
 22 23  2  0
 23 24  1  0
 24 21  1  0
 21 20  1  0
 20  1  1  0
  1  2  2  0
  2  3  1  0
  3  4  2  0
  4  5  1  0
  5  7  1  0
  7  8  2  0
  8  9  1  0
  9 10  2  0
 10 11  1  0
 11 13  1  0
 13 14  1  0
 14 15  1  0
 15 16  1  0
 16 17  1  0
 17 18  1  0
 18 19  1  0
 11 12  2  0
  5  6  2  0
 24 25  2  0
 25 26  1  0
 26 27  2  0
 27 28  1  0
 27 22  1  0
  6  1  1  0
 12  7  1  0
 19 14  1  0
M  END
>  <Activity>  (19) 
10.3

>  <minimizedAffinity>  (19) 
-8.87556

>  <MorganFP>  (19) 
<rdkit.DataStructs.cDataStructs.ExplicitBitVect object at 0x7f0ecbb7b940>

$$$$
HIPS6984
     RDKit          3D

 31 34  0  0  0  0  0  0  0  0999 V2000
   67.7983   75.8805   89.4573 C   0  0  0  0  0  0  0  0  0  0  0  0
   66.8570   75.9522   88.4222 C   0  0  0  0  0  0  0  0  0  0  0  0
   66.6826   77.1555   87.7832 C   0  0  0  0  0  0  0  0  0  0  0  0
   67.3961   78.2843   88.1228 C   0  0  0  0  0  0  0  0  0  0  0  0
   68.3150   78.1727   89.1490 C   0  0  0  0  0  0  0  0  0  0  0  0
   68.5197   76.9788   89.8175 C   0  0  0  0  0  0  0  0  0  0  0  0
   69.0712   79.3714   89.5072 C   0  0  0  0  0  0  0  0  0  0  0  0
   70.3366   79.2204   90.0267 C   0  0  0  0  0  0  0  0  0  0  0  0
   71.1040   80.3350   90.3855 C   0  0  0  0  0  0  0  0  0  0  0  0
   70.5867   81.6106   90.2172 C   0  0  0  0  0  0  0  0  0  0  0  0
   69.3244   81.7830   89.6992 C   0  0  0  0  0  0  0  0  0  0  0  0
   68.5847   80.6413   89.3511 C   0  0  0  0  0  0  0  0  0  0  0  0
   68.7341   82.9937   89.4959 O   0  0  0  0  0  0  0  0  0  0  0  0
   69.0370   83.9851   88.5587 C   0  0  0  0  0  0  0  0  0  0  0  0
   69.6405   83.3294   87.3485 C   0  0  0  0  0  0  0  0  0  0  0  0
   70.7965   84.0532   86.7481 C   0  0  0  0  0  0  0  0  0  0  0  0
   70.4620   85.5331   86.7806 C   0  0  0  0  0  0  0  0  0  0  0  0
   70.5324   85.9817   88.2147 C   0  0  0  0  0  0  0  0  0  0  0  0
   69.7988   85.0905   89.1646 C   0  0  0  0  0  0  0  0  0  0  0  0
   67.9647   74.6045   90.1656 C   0  0  0  0  0  0  0  0  0  0  0  0
   69.0082   74.4371   91.0001 O   0  0  0  0  0  0  0  0  0  0  0  0
   70.2219   72.4398   93.8802 C   0  0  0  0  0  0  0  0  0  0  0  0
   70.0462   72.8927   92.5829 C   0  0  0  0  0  0  0  0  0  0  0  0
   69.2261   73.9466   92.2374 C   0  0  0  0  0  0  0  0  0  0  0  0
   68.5536   74.5562   93.3288 C   0  0  0  0  0  0  0  0  0  0  0  0
   68.7329   74.1029   94.6057 C   0  0  0  0  0  0  0  0  0  0  0  0
   69.5591   73.0479   94.9156 C   0  0  0  0  0  0  0  0  0  0  0  0
   69.6934   72.6409   96.2343 O   0  0  0  0  0  0  0  0  0  0  0  0
   72.2621   71.3385   93.6957 O   0  0  0  0  0  0  0  0  0  0  0  0
   71.1026   71.3202   94.1811 C   0  0  0  0  0  0  0  0  0  0  0  0
   70.7352   70.2543   94.9608 O   0  0  0  0  0  0  0  0  0  0  0  0
 29 30  2  0
 30 31  1  0
 30 22  1  0
 22 23  2  0
 23 24  1  0
 24 21  1  0
 21 20  1  0
 20  1  1  0
  1  2  2  0
  2  3  1  0
  3  4  2  0
  4  5  1  0
  5  7  1  0
  7  8  2  0
  8  9  1  0
  9 10  2  0
 10 11  1  0
 11 13  1  0
 13 14  1  0
 14 15  1  0
 15 16  1  0
 16 17  1  0
 17 18  1  0
 18 19  1  0
 11 12  2  0
  5  6  2  0
 24 25  2  0
 25 26  1  0
 26 27  2  0
 27 28  1  0
 27 22  1  0
  6  1  1  0
 12  7  1  0
 19 14  1  0
M  END
>  <Activity>  (20) 
10.3

>  <minimizedAffinity>  (20) 
-8.84877

>  <MorganFP>  (20) 
<rdkit.DataStructs.cDataStructs.ExplicitBitVect object at 0x7f0ecbb7bb80>

$$$$
HIPS6984
     RDKit          3D

 31 34  0  0  0  0  0  0  0  0999 V2000
   67.3183   76.3701   88.6226 C   0  0  0  0  0  0  0  0  0  0  0  0
   67.2492   76.4544   87.2258 C   0  0  0  0  0  0  0  0  0  0  0  0
   67.1901   77.7006   86.6511 C   0  0  0  0  0  0  0  0  0  0  0  0
   67.1967   78.8602   87.3954 C   0  0  0  0  0  0  0  0  0  0  0  0
   67.2657   78.7349   88.7700 C   0  0  0  0  0  0  0  0  0  0  0  0
   67.3262   77.4979   89.3870 C   0  0  0  0  0  0  0  0  0  0  0  0
   67.2732   79.9664   89.5575 C   0  0  0  0  0  0  0  0  0  0  0  0
   66.1104   80.3547   90.1828 C   0  0  0  0  0  0  0  0  0  0  0  0
   66.0629   81.5249   90.9498 C   0  0  0  0  0  0  0  0  0  0  0  0
   67.2002   82.3069   91.0844 C   0  0  0  0  0  0  0  0  0  0  0  0
   68.3724   81.9360   90.4680 C   0  0  0  0  0  0  0  0  0  0  0  0
   68.3812   80.7561   89.7069 C   0  0  0  0  0  0  0  0  0  0  0  0
   69.5378   82.6370   90.5442 O   0  0  0  0  0  0  0  0  0  0  0  0
   70.4403   82.9757   89.5323 C   0  0  0  0  0  0  0  0  0  0  0  0
   71.7913   82.4259   89.8943 C   0  0  0  0  0  0  0  0  0  0  0  0
   72.9394   83.3326   89.6104 C   0  0  0  0  0  0  0  0  0  0  0  0
   72.6689   83.9883   88.2688 C   0  0  0  0  0  0  0  0  0  0  0  0
   71.5454   84.9697   88.4629 C   0  0  0  0  0  0  0  0  0  0  0  0
   70.3733   84.4097   89.2026 C   0  0  0  0  0  0  0  0  0  0  0  0
   67.3483   75.0392   89.2433 C   0  0  0  0  0  0  0  0  0  0  0  0
   68.3527   74.7173   90.0806 O   0  0  0  0  0  0  0  0  0  0  0  0
   68.7764   74.5348   93.7608 C   0  0  0  0  0  0  0  0  0  0  0  0
   68.3819   74.2171   92.4715 C   0  0  0  0  0  0  0  0  0  0  0  0
   68.7029   74.9665   91.3589 C   0  0  0  0  0  0  0  0  0  0  0  0
   69.4874   76.1187   91.6272 C   0  0  0  0  0  0  0  0  0  0  0  0
   69.8725   76.4246   92.9025 C   0  0  0  0  0  0  0  0  0  0  0  0
   69.5343   75.6547   93.9907 C   0  0  0  0  0  0  0  0  0  0  0  0
   69.9597   76.0255   95.2574 O   0  0  0  0  0  0  0  0  0  0  0  0
   69.3277   73.1511   95.5471 O   0  0  0  0  0  0  0  0  0  0  0  0
   68.4045   73.7025   94.8959 C   0  0  0  0  0  0  0  0  0  0  0  0
   67.1084   73.4903   95.2885 O   0  0  0  0  0  0  0  0  0  0  0  0
 29 30  2  0
 30 31  1  0
 30 22  1  0
 22 23  2  0
 23 24  1  0
 24 21  1  0
 21 20  1  0
 20  1  1  0
  1  2  2  0
  2  3  1  0
  3  4  2  0
  4  5  1  0
  5  7  1  0
  7  8  2  0
  8  9  1  0
  9 10  2  0
 10 11  1  0
 11 13  1  0
 13 14  1  0
 14 15  1  0
 15 16  1  0
 16 17  1  0
 17 18  1  0
 18 19  1  0
 11 12  2  0
  5  6  2  0
 24 25  2  0
 25 26  1  0
 26 27  2  0
 27 28  1  0
 27 22  1  0
  6  1  1  0
 12  7  1  0
 19 14  1  0
M  END
>  <Activity>  (21) 
10.3

>  <minimizedAffinity>  (21) 
-8.78461

>  <MorganFP>  (21) 
<rdkit.DataStructs.cDataStructs.ExplicitBitVect object at 0x7f0ecbb7b700>

$$$$
HIPS6990
     RDKit          3D

 33 36  0  0  0  0  0  0  0  0999 V2000
   67.0136   77.6307   87.8672 C   0  0  0  0  0  0  0  0  0  0  0  0
   67.0401   77.4042   86.4796 C   0  0  0  0  0  0  0  0  0  0  0  0
   67.0555   76.1012   85.9760 C   0  0  0  0  0  0  0  0  0  0  0  0
   67.0387   75.0107   86.8477 C   0  0  0  0  0  0  0  0  0  0  0  0
   67.0047   75.2155   88.2346 C   0  0  0  0  0  0  0  0  0  0  0  0
   67.0077   76.5261   88.7386 C   0  0  0  0  0  0  0  0  0  0  0  0
   67.1604   81.4268   88.0620 C   0  0  0  0  0  0  0  0  0  0  0  0
   66.9171   81.6323   89.4236 C   0  0  0  0  0  0  0  0  0  0  0  0
   66.6980   80.5466   90.2737 C   0  0  0  0  0  0  0  0  0  0  0  0
   66.7269   79.2437   89.7710 C   0  0  0  0  0  0  0  0  0  0  0  0
   66.9888   79.0127   88.4088 C   0  0  0  0  0  0  0  0  0  0  0  0
   67.2216   80.1131   87.5630 C   0  0  0  0  0  0  0  0  0  0  0  0
   67.3816   82.5437   87.2422 O   0  0  0  0  0  0  0  0  0  0  0  0
   70.2516   85.5770   87.8579 C   0  0  0  0  0  0  0  0  0  0  0  0
   70.6686   84.2620   87.6230 C   0  0  0  0  0  0  0  0  0  0  0  0
   69.7318   83.2463   87.4130 C   0  0  0  0  0  0  0  0  0  0  0  0
   68.3553   83.5321   87.4531 C   0  0  0  0  0  0  0  0  0  0  0  0
   67.9376   84.8505   87.6635 C   0  0  0  0  0  0  0  0  0  0  0  0
   68.8741   85.8681   87.8700 C   0  0  0  0  0  0  0  0  0  0  0  0
   72.6326   86.3273   87.9854 C   0  0  0  0  0  0  0  0  0  0  0  0
   71.2304   86.5589   88.0710 O   0  0  0  0  0  0  0  0  0  0  0  0
   66.9766   74.0359   89.1710 C   0  0  0  0  0  0  0  0  0  0  0  0
   68.2307   73.8874   89.8382 O   0  0  0  0  0  0  0  0  0  0  0  0
   68.5229   74.3459   91.1337 C   0  0  0  0  0  0  0  0  0  0  0  0
   69.5940   75.2271   91.2935 C   0  0  0  0  0  0  0  0  0  0  0  0
   69.9300   75.7125   92.5571 C   0  0  0  0  0  0  0  0  0  0  0  0
   69.2020   75.3264   93.6872 C   0  0  0  0  0  0  0  0  0  0  0  0
   69.5464   75.9068   94.9100 O   0  0  0  0  0  0  0  0  0  0  0  0
   68.1354   74.4025   93.5509 C   0  0  0  0  0  0  0  0  0  0  0  0
   67.7881   73.9473   92.2660 C   0  0  0  0  0  0  0  0  0  0  0  0
   67.3935   73.8589   94.7107 C   0  0  0  0  0  0  0  0  0  0  0  0
   68.0068   73.3850   95.7041 O   0  0  0  0  0  0  0  0  0  0  0  0
   66.0028   73.8054   94.6809 O   0  0  0  0  0  0  0  0  0  0  0  0
 20 21  1  0
 21 14  1  0
 14 15  2  0
 15 16  1  0
 16 17  2  0
 17 13  1  0
 13  7  1  0
  7  8  2  0
  8  9  1  0
  9 10  2  0
 10 11  1  0
 11  1  1  0
  1  2  2  0
  2  3  1  0
  3  4  2  0
  4  5  1  0
  5 22  1  0
 22 23  1  0
 23 24  1  0
 24 25  2  0
 25 26  1  0
 26 27  2  0
 27 28  1  0
 27 29  1  0
 29 31  1  0
 31 32  2  0
 31 33  1  0
 29 30  2  0
  5  6  2  0
 11 12  2  0
 17 18  1  0
 18 19  2  0
 19 14  1  0
 12  7  1  0
  6  1  1  0
 30 24  1  0
M  END
>  <Activity>  (22) 
13.0

>  <minimizedAffinity>  (22) 
-8.48779

>  <MorganFP>  (22) 
<rdkit.DataStructs.cDataStructs.ExplicitBitVect object at 0x7f0ecbb6b1c0>

$$$$
HIPS6985
     RDKit          3D

 30 33  0  0  0  0  0  0  0  0999 V2000
   69.9123   78.7510   90.2497 C   0  0  0  0  0  0  0  0  0  0  0  0
   71.2464   78.7201   90.6811 C   0  0  0  0  0  0  0  0  0  0  0  0
   71.7695   77.5726   91.2294 C   0  0  0  0  0  0  0  0  0  0  0  0
   71.0010   76.4345   91.3668 C   0  0  0  0  0  0  0  0  0  0  0  0
   69.6783   76.4317   90.9504 C   0  0  0  0  0  0  0  0  0  0  0  0
   69.1939   77.5959   90.4090 C   0  0  0  0  0  0  0  0  0  0  0  0
   68.8764   75.2227   91.1005 C   0  0  0  0  0  0  0  0  0  0  0  0
   68.3462   74.5525   90.0102 C   0  0  0  0  0  0  0  0  0  0  0  0
   67.5899   73.4083   90.1821 C   0  0  0  0  0  0  0  0  0  0  0  0
   67.3236   72.8752   91.4353 C   0  0  0  0  0  0  0  0  0  0  0  0
   67.8445   73.5316   92.5249 C   0  0  0  0  0  0  0  0  0  0  0  0
   68.6102   74.6911   92.3403 C   0  0  0  0  0  0  0  0  0  0  0  0
   67.6264   73.0694   93.7859 O   0  0  0  0  0  0  0  0  0  0  0  0
   66.7363   73.5699   94.7137 C   0  0  0  0  0  0  0  0  0  0  0  0
   67.4562   73.9628   95.9970 C   0  0  0  0  0  0  0  0  0  0  0  0
   66.4396   74.8300   96.6890 C   0  0  0  0  0  0  0  0  0  0  0  0
   65.5154   75.3593   95.6302 C   0  0  0  0  0  0  0  0  0  0  0  0
   66.1600   74.9247   94.3120 C   0  0  0  0  0  0  0  0  0  0  0  0
   69.3475   80.0145   89.6801 C   0  0  0  0  0  0  0  0  0  0  0  0
   69.9940   81.1364   90.0387 O   0  0  0  0  0  0  0  0  0  0  0  0
   70.4882   84.1625   88.0925 C   0  0  0  0  0  0  0  0  0  0  0  0
   69.9215   83.0588   88.6567 C   0  0  0  0  0  0  0  0  0  0  0  0
   70.6234   82.1949   89.5317 C   0  0  0  0  0  0  0  0  0  0  0  0
   71.9310   82.4900   89.8176 C   0  0  0  0  0  0  0  0  0  0  0  0
   72.5121   83.6011   89.2539 C   0  0  0  0  0  0  0  0  0  0  0  0
   71.8039   84.4364   88.3969 C   0  0  0  0  0  0  0  0  0  0  0  0
   72.4391   85.5444   87.8557 O   0  0  0  0  0  0  0  0  0  0  0  0
   68.7849   85.6999   87.5326 O   0  0  0  0  0  0  0  0  0  0  0  0
   69.7908   85.0634   87.1935 C   0  0  0  0  0  0  0  0  0  0  0  0
   70.2714   85.2154   85.9064 O   0  0  0  0  0  0  0  0  0  0  0  0
 28 29  2  0
 29 30  1  0
 29 21  1  0
 21 22  2  0
 22 23  1  0
 23 20  1  0
 20 19  1  0
 19  1  1  0
  1  2  2  0
  2  3  1  0
  3  4  2  0
  4  5  1  0
  5  7  1  0
  7  8  2  0
  8  9  1  0
  9 10  2  0
 10 11  1  0
 11 13  1  0
 13 14  1  0
 14 15  1  0
 15 16  1  0
 16 17  1  0
 17 18  1  0
 11 12  2  0
  5  6  2  0
 23 24  2  0
 24 25  1  0
 25 26  2  0
 26 27  1  0
 26 21  1  0
  6  1  1  0
 12  7  1  0
 18 14  1  0
M  END
>  <Activity>  (23) 
13.3

>  <minimizedAffinity>  (23) 
-9.30997

>  <MorganFP>  (23) 
<rdkit.DataStructs.cDataStructs.ExplicitBitVect object at 0x7f0ecbb6b0a0>

$$$$
HIPS6985
     RDKit          3D

 30 33  0  0  0  0  0  0  0  0999 V2000
   69.9132   76.6530   91.9539 C   0  0  0  0  0  0  0  0  0  0  0  0
   71.2912   76.8317   91.7634 C   0  0  0  0  0  0  0  0  0  0  0  0
   71.7493   77.7187   90.8177 C   0  0  0  0  0  0  0  0  0  0  0  0
   70.8719   78.4475   90.0407 C   0  0  0  0  0  0  0  0  0  0  0  0
   69.5033   78.2943   90.2037 C   0  0  0  0  0  0  0  0  0  0  0  0
   69.0866   77.3997   91.1572 C   0  0  0  0  0  0  0  0  0  0  0  0
   68.5862   79.0704   89.3768 C   0  0  0  0  0  0  0  0  0  0  0  0
   67.5767   78.4731   88.6397 C   0  0  0  0  0  0  0  0  0  0  0  0
   66.7215   79.2336   87.8647 C   0  0  0  0  0  0  0  0  0  0  0  0
   66.8237   80.6151   87.7825 C   0  0  0  0  0  0  0  0  0  0  0  0
   67.8217   81.2192   88.5097 C   0  0  0  0  0  0  0  0  0  0  0  0
   68.6841   80.4393   89.2926 C   0  0  0  0  0  0  0  0  0  0  0  0
   67.9849   82.5696   88.4800 O   0  0  0  0  0  0  0  0  0  0  0  0
   68.6171   83.3105   87.5027 C   0  0  0  0  0  0  0  0  0  0  0  0
   68.2883   84.7904   87.6481 C   0  0  0  0  0  0  0  0  0  0  0  0
   69.3466   85.4445   86.8015 C   0  0  0  0  0  0  0  0  0  0  0  0
   70.4954   84.4818   86.7072 C   0  0  0  0  0  0  0  0  0  0  0  0
   70.1317   83.3603   87.6830 C   0  0  0  0  0  0  0  0  0  0  0  0
   69.4280   75.6643   92.9672 C   0  0  0  0  0  0  0  0  0  0  0  0
   70.1226   74.5153   93.0157 O   0  0  0  0  0  0  0  0  0  0  0  0
   70.4632   70.9344   93.5165 C   0  0  0  0  0  0  0  0  0  0  0  0
   70.5261   72.2835   93.6994 C   0  0  0  0  0  0  0  0  0  0  0  0
   70.0191   73.2126   92.7590 C   0  0  0  0  0  0  0  0  0  0  0  0
   69.4413   72.7233   91.6164 C   0  0  0  0  0  0  0  0  0  0  0  0
   69.3726   71.3641   91.4222 C   0  0  0  0  0  0  0  0  0  0  0  0
   69.8769   70.4693   92.3595 C   0  0  0  0  0  0  0  0  0  0  0  0
   69.7814   69.1075   92.1131 O   0  0  0  0  0  0  0  0  0  0  0  0
   70.5673   69.8870   95.6308 O   0  0  0  0  0  0  0  0  0  0  0  0
   70.9748   69.9619   94.4646 C   0  0  0  0  0  0  0  0  0  0  0  0
   71.9573   69.0845   94.0457 O   0  0  0  0  0  0  0  0  0  0  0  0
 28 29  2  0
 29 30  1  0
 29 21  1  0
 21 22  2  0
 22 23  1  0
 23 20  1  0
 20 19  1  0
 19  1  1  0
  1  2  2  0
  2  3  1  0
  3  4  2  0
  4  5  1  0
  5  7  1  0
  7  8  2  0
  8  9  1  0
  9 10  2  0
 10 11  1  0
 11 13  1  0
 13 14  1  0
 14 15  1  0
 15 16  1  0
 16 17  1  0
 17 18  1  0
 11 12  2  0
  5  6  2  0
 23 24  2  0
 24 25  1  0
 25 26  2  0
 26 27  1  0
 26 21  1  0
  6  1  1  0
 12  7  1  0
 18 14  1  0
M  END
>  <Activity>  (24) 
13.3

>  <minimizedAffinity>  (24) 
-9.09839

>  <MorganFP>  (24) 
<rdkit.DataStructs.cDataStructs.ExplicitBitVect object at 0x7f0ecbb6b220>

$$$$
HIPS6985
     RDKit          3D

 30 33  0  0  0  0  0  0  0  0999 V2000
   69.7053   78.8642   90.3627 C   0  0  0  0  0  0  0  0  0  0  0  0
   68.3886   79.1683   90.7383 C   0  0  0  0  0  0  0  0  0  0  0  0
   67.9494   80.4713   90.7260 C   0  0  0  0  0  0  0  0  0  0  0  0
   68.7862   81.5014   90.3473 C   0  0  0  0  0  0  0  0  0  0  0  0
   70.0938   81.2349   89.9704 C   0  0  0  0  0  0  0  0  0  0  0  0
   70.4936   79.9224   89.9962 C   0  0  0  0  0  0  0  0  0  0  0  0
   70.9684   82.3319   89.5718 C   0  0  0  0  0  0  0  0  0  0  0  0
   72.3026   82.3796   89.9415 C   0  0  0  0  0  0  0  0  0  0  0  0
   73.1086   83.4317   89.5490 C   0  0  0  0  0  0  0  0  0  0  0  0
   72.6350   84.4819   88.7754 C   0  0  0  0  0  0  0  0  0  0  0  0
   71.3125   84.4456   88.4023 C   0  0  0  0  0  0  0  0  0  0  0  0
   70.5032   83.3744   88.8054 C   0  0  0  0  0  0  0  0  0  0  0  0
   70.7755   85.4394   87.6438 O   0  0  0  0  0  0  0  0  0  0  0  0
   70.3642   86.6845   88.0729 C   0  0  0  0  0  0  0  0  0  0  0  0
   69.5323   86.5713   89.3436 C   0  0  0  0  0  0  0  0  0  0  0  0
   69.5333   87.9842   89.8613 C   0  0  0  0  0  0  0  0  0  0  0  0
   70.7393   88.6667   89.2823 C   0  0  0  0  0  0  0  0  0  0  0  0
   71.5147   87.5438   88.5894 C   0  0  0  0  0  0  0  0  0  0  0  0
   70.1787   77.4452   90.4069 C   0  0  0  0  0  0  0  0  0  0  0  0
   69.4070   76.6123   91.1252 O   0  0  0  0  0  0  0  0  0  0  0  0
   69.4578   73.4332   92.8801 C   0  0  0  0  0  0  0  0  0  0  0  0
   69.6411   74.7466   92.5658 C   0  0  0  0  0  0  0  0  0  0  0  0
   69.1850   75.3193   91.3539 C   0  0  0  0  0  0  0  0  0  0  0  0
   68.5313   74.5080   90.4633 C   0  0  0  0  0  0  0  0  0  0  0  0
   68.3410   73.1817   90.7707 C   0  0  0  0  0  0  0  0  0  0  0  0
   68.7973   72.6399   91.9673 C   0  0  0  0  0  0  0  0  0  0  0  0
   68.5785   71.2950   92.2269 O   0  0  0  0  0  0  0  0  0  0  0  0
   69.1938   72.7157   95.1148 O   0  0  0  0  0  0  0  0  0  0  0  0
   69.9151   72.8225   94.1147 C   0  0  0  0  0  0  0  0  0  0  0  0
   71.2094   72.3410   94.1738 O   0  0  0  0  0  0  0  0  0  0  0  0
 28 29  2  0
 29 30  1  0
 29 21  1  0
 21 22  2  0
 22 23  1  0
 23 20  1  0
 20 19  1  0
 19  1  1  0
  1  2  2  0
  2  3  1  0
  3  4  2  0
  4  5  1  0
  5  7  1  0
  7  8  2  0
  8  9  1  0
  9 10  2  0
 10 11  1  0
 11 13  1  0
 13 14  1  0
 14 15  1  0
 15 16  1  0
 16 17  1  0
 17 18  1  0
 11 12  2  0
  5  6  2  0
 23 24  2  0
 24 25  1  0
 25 26  2  0
 26 27  1  0
 26 21  1  0
  6  1  1  0
 12  7  1  0
 18 14  1  0
M  END
>  <Activity>  (25) 
13.3

>  <minimizedAffinity>  (25) 
-9.03032

>  <MorganFP>  (25) 
<rdkit.DataStructs.cDataStructs.ExplicitBitVect object at 0x7f0ecbb6b160>

$$$$
HIPS6985
     RDKit          3D

 30 33  0  0  0  0  0  0  0  0999 V2000
   67.2619   79.0747   88.8932 C   0  0  0  0  0  0  0  0  0  0  0  0
   67.0840   79.0665   87.5021 C   0  0  0  0  0  0  0  0  0  0  0  0
   67.0641   77.8757   86.8144 C   0  0  0  0  0  0  0  0  0  0  0  0
   67.2172   76.6716   87.4711 C   0  0  0  0  0  0  0  0  0  0  0  0
   67.3951   76.6447   88.8461 C   0  0  0  0  0  0  0  0  0  0  0  0
   67.4093   77.8535   89.4954 C   0  0  0  0  0  0  0  0  0  0  0  0
   67.5555   75.3658   89.5288 C   0  0  0  0  0  0  0  0  0  0  0  0
   67.2398   74.1627   88.9190 C   0  0  0  0  0  0  0  0  0  0  0  0
   67.4021   72.9652   89.5900 C   0  0  0  0  0  0  0  0  0  0  0  0
   67.8824   72.9014   90.8904 C   0  0  0  0  0  0  0  0  0  0  0  0
   68.1991   74.0890   91.5059 C   0  0  0  0  0  0  0  0  0  0  0  0
   68.0310   75.2982   90.8171 C   0  0  0  0  0  0  0  0  0  0  0  0
   68.6757   74.1073   92.7802 O   0  0  0  0  0  0  0  0  0  0  0  0
   67.9795   73.8102   93.9337 C   0  0  0  0  0  0  0  0  0  0  0  0
   68.1987   74.8853   94.9899 C   0  0  0  0  0  0  0  0  0  0  0  0
   67.0855   74.6156   95.9659 C   0  0  0  0  0  0  0  0  0  0  0  0
   66.0108   73.8792   95.2190 C   0  0  0  0  0  0  0  0  0  0  0  0
   66.4675   73.9199   93.7588 C   0  0  0  0  0  0  0  0  0  0  0  0
   67.3092   80.3789   89.6258 C   0  0  0  0  0  0  0  0  0  0  0  0
   68.3176   81.1924   89.2702 O   0  0  0  0  0  0  0  0  0  0  0  0
   70.2364   83.9377   87.8662 C   0  0  0  0  0  0  0  0  0  0  0  0
   69.8618   82.8681   88.6234 C   0  0  0  0  0  0  0  0  0  0  0  0
   68.6041   82.2320   88.4887 C   0  0  0  0  0  0  0  0  0  0  0  0
   67.7309   82.7216   87.5524 C   0  0  0  0  0  0  0  0  0  0  0  0
   68.0990   83.7999   86.7833 C   0  0  0  0  0  0  0  0  0  0  0  0
   69.3399   84.4095   86.9322 C   0  0  0  0  0  0  0  0  0  0  0  0
   69.6600   85.4949   86.1300 O   0  0  0  0  0  0  0  0  0  0  0  0
   72.5932   84.0383   87.7519 O   0  0  0  0  0  0  0  0  0  0  0  0
   71.5188   84.6068   87.9847 C   0  0  0  0  0  0  0  0  0  0  0  0
   71.5386   85.9332   88.3732 O   0  0  0  0  0  0  0  0  0  0  0  0
 28 29  2  0
 29 30  1  0
 29 21  1  0
 21 22  2  0
 22 23  1  0
 23 20  1  0
 20 19  1  0
 19  1  1  0
  1  2  2  0
  2  3  1  0
  3  4  2  0
  4  5  1  0
  5  7  1  0
  7  8  2  0
  8  9  1  0
  9 10  2  0
 10 11  1  0
 11 13  1  0
 13 14  1  0
 14 15  1  0
 15 16  1  0
 16 17  1  0
 17 18  1  0
 11 12  2  0
  5  6  2  0
 23 24  2  0
 24 25  1  0
 25 26  2  0
 26 27  1  0
 26 21  1  0
  6  1  1  0
 12  7  1  0
 18 14  1  0
M  END
>  <Activity>  (26) 
13.3

>  <minimizedAffinity>  (26) 
-8.93405

>  <MorganFP>  (26) 
<rdkit.DataStructs.cDataStructs.ExplicitBitVect object at 0x7f0ecbb6b100>

$$$$
HIPS6985
     RDKit          3D

 30 33  0  0  0  0  0  0  0  0999 V2000
   66.9364   75.1645   88.6285 C   0  0  0  0  0  0  0  0  0  0  0  0
   66.4505   74.1733   87.7635 C   0  0  0  0  0  0  0  0  0  0  0  0
   66.7034   72.8463   88.0208 C   0  0  0  0  0  0  0  0  0  0  0  0
   67.4348   72.4621   89.1264 C   0  0  0  0  0  0  0  0  0  0  0  0
   67.9298   73.4172   90.0015 C   0  0  0  0  0  0  0  0  0  0  0  0
   67.6560   74.7298   89.7097 C   0  0  0  0  0  0  0  0  0  0  0  0
   68.7009   72.9987   91.1665 C   0  0  0  0  0  0  0  0  0  0  0  0
   69.3443   71.7730   91.2204 C   0  0  0  0  0  0  0  0  0  0  0  0
   70.0688   71.4025   92.3377 C   0  0  0  0  0  0  0  0  0  0  0  0
   70.1906   72.2234   93.4499 C   0  0  0  0  0  0  0  0  0  0  0  0
   69.5565   73.4422   93.4082 C   0  0  0  0  0  0  0  0  0  0  0  0
   68.8242   73.8089   92.2706 C   0  0  0  0  0  0  0  0  0  0  0  0
   69.6300   74.3017   94.4604 O   0  0  0  0  0  0  0  0  0  0  0  0
   68.5788   74.8079   95.1969 C   0  0  0  0  0  0  0  0  0  0  0  0
   67.6029   75.5592   94.3011 C   0  0  0  0  0  0  0  0  0  0  0  0
   66.3791   75.6670   95.1701 C   0  0  0  0  0  0  0  0  0  0  0  0
   66.4584   74.5630   96.1851 C   0  0  0  0  0  0  0  0  0  0  0  0
   67.6543   73.7201   95.7362 C   0  0  0  0  0  0  0  0  0  0  0  0
   66.6774   76.6064   88.3221 C   0  0  0  0  0  0  0  0  0  0  0  0
   67.1472   77.4730   89.2349 O   0  0  0  0  0  0  0  0  0  0  0  0
   70.5508   78.3353   90.1629 C   0  0  0  0  0  0  0  0  0  0  0  0
   69.4258   77.6265   89.8635 C   0  0  0  0  0  0  0  0  0  0  0  0
   68.1996   78.2407   89.5119 C   0  0  0  0  0  0  0  0  0  0  0  0
   68.1518   79.6100   89.4742 C   0  0  0  0  0  0  0  0  0  0  0  0
   69.2810   80.3344   89.7743 C   0  0  0  0  0  0  0  0  0  0  0  0
   70.4754   79.7103   90.1171 C   0  0  0  0  0  0  0  0  0  0  0  0
   71.5848   80.4896   90.4108 O   0  0  0  0  0  0  0  0  0  0  0  0
   72.0068   77.1740   91.6154 O   0  0  0  0  0  0  0  0  0  0  0  0
   71.8190   77.7300   90.5257 C   0  0  0  0  0  0  0  0  0  0  0  0
   72.8582   77.7773   89.6155 O   0  0  0  0  0  0  0  0  0  0  0  0
 28 29  2  0
 29 30  1  0
 29 21  1  0
 21 22  2  0
 22 23  1  0
 23 20  1  0
 20 19  1  0
 19  1  1  0
  1  2  2  0
  2  3  1  0
  3  4  2  0
  4  5  1  0
  5  7  1  0
  7  8  2  0
  8  9  1  0
  9 10  2  0
 10 11  1  0
 11 13  1  0
 13 14  1  0
 14 15  1  0
 15 16  1  0
 16 17  1  0
 17 18  1  0
 11 12  2  0
  5  6  2  0
 23 24  2  0
 24 25  1  0
 25 26  2  0
 26 27  1  0
 26 21  1  0
  6  1  1  0
 12  7  1  0
 18 14  1  0
M  END
>  <Activity>  (27) 
13.3

>  <minimizedAffinity>  (27) 
-8.89620

>  <MorganFP>  (27) 
<rdkit.DataStructs.cDataStructs.ExplicitBitVect object at 0x7f0ecbb6b280>

$$$$
HIPS6985
     RDKit          3D

 30 33  0  0  0  0  0  0  0  0999 V2000
   66.9601   79.4991   87.9116 C   0  0  0  0  0  0  0  0  0  0  0  0
   66.3363   78.4054   87.2940 C   0  0  0  0  0  0  0  0  0  0  0  0
   66.7630   77.1253   87.5594 C   0  0  0  0  0  0  0  0  0  0  0  0
   67.8058   76.8889   88.4319 C   0  0  0  0  0  0  0  0  0  0  0  0
   68.4443   77.9482   89.0591 C   0  0  0  0  0  0  0  0  0  0  0  0
   67.9891   79.2095   88.7677 C   0  0  0  0  0  0  0  0  0  0  0  0
   69.5448   77.6855   89.9794 C   0  0  0  0  0  0  0  0  0  0  0  0
   70.6953   78.4571   89.9885 C   0  0  0  0  0  0  0  0  0  0  0  0
   71.7227   78.1854   90.8723 C   0  0  0  0  0  0  0  0  0  0  0  0
   71.6610   77.1420   91.7851 C   0  0  0  0  0  0  0  0  0  0  0  0
   70.5242   76.3692   91.7855 C   0  0  0  0  0  0  0  0  0  0  0  0
   69.4877   76.6527   90.8853 C   0  0  0  0  0  0  0  0  0  0  0  0
   70.3903   75.3282   92.6513 O   0  0  0  0  0  0  0  0  0  0  0  0
   69.2584   74.9706   93.3546 C   0  0  0  0  0  0  0  0  0  0  0  0
   69.5190   73.7362   94.2077 C   0  0  0  0  0  0  0  0  0  0  0  0
   68.3601   73.7522   95.1674 C   0  0  0  0  0  0  0  0  0  0  0  0
   67.8639   75.1679   95.2385 C   0  0  0  0  0  0  0  0  0  0  0  0
   68.8981   75.9726   94.4478 C   0  0  0  0  0  0  0  0  0  0  0  0
   66.5040   80.8885   87.5929 C   0  0  0  0  0  0  0  0  0  0  0  0
   67.2255   81.8670   88.1648 O   0  0  0  0  0  0  0  0  0  0  0  0
   70.2995   83.7996   88.0938 C   0  0  0  0  0  0  0  0  0  0  0  0
   69.3880   82.8174   88.3425 C   0  0  0  0  0  0  0  0  0  0  0  0
   68.0525   82.8700   87.8754 C   0  0  0  0  0  0  0  0  0  0  0  0
   67.6687   83.9620   87.1413 C   0  0  0  0  0  0  0  0  0  0  0  0
   68.5804   84.9583   86.8845 C   0  0  0  0  0  0  0  0  0  0  0  0
   69.8877   84.8861   87.3531 C   0  0  0  0  0  0  0  0  0  0  0  0
   70.7667   85.9198   87.0650 O   0  0  0  0  0  0  0  0  0  0  0  0
   71.9770   83.4824   89.7257 O   0  0  0  0  0  0  0  0  0  0  0  0
   71.6733   83.7693   88.5607 C   0  0  0  0  0  0  0  0  0  0  0  0
   72.6821   84.0735   87.6661 O   0  0  0  0  0  0  0  0  0  0  0  0
 28 29  2  0
 29 30  1  0
 29 21  1  0
 21 22  2  0
 22 23  1  0
 23 20  1  0
 20 19  1  0
 19  1  1  0
  1  2  2  0
  2  3  1  0
  3  4  2  0
  4  5  1  0
  5  7  1  0
  7  8  2  0
  8  9  1  0
  9 10  2  0
 10 11  1  0
 11 13  1  0
 13 14  1  0
 14 15  1  0
 15 16  1  0
 16 17  1  0
 17 18  1  0
 11 12  2  0
  5  6  2  0
 23 24  2  0
 24 25  1  0
 25 26  2  0
 26 27  1  0
 26 21  1  0
  6  1  1  0
 12  7  1  0
 18 14  1  0
M  END
>  <Activity>  (28) 
13.3

>  <minimizedAffinity>  (28) 
-8.75783

>  <MorganFP>  (28) 
<rdkit.DataStructs.cDataStructs.ExplicitBitVect object at 0x7f0ecbb6b700>

$$$$
HIPS6985
     RDKit          3D

 30 33  0  0  0  0  0  0  0  0999 V2000
   66.8941   75.6160   87.7302 C   0  0  0  0  0  0  0  0  0  0  0  0
   67.1889   75.6231   86.3591 C   0  0  0  0  0  0  0  0  0  0  0  0
   67.4846   76.8050   85.7213 C   0  0  0  0  0  0  0  0  0  0  0  0
   67.4980   78.0014   86.4093 C   0  0  0  0  0  0  0  0  0  0  0  0
   67.2107   78.0292   87.7656 C   0  0  0  0  0  0  0  0  0  0  0  0
   66.9208   76.8293   88.3650 C   0  0  0  0  0  0  0  0  0  0  0  0
   67.2285   79.2997   88.4817 C   0  0  0  0  0  0  0  0  0  0  0  0
   67.1528   79.3656   89.8634 C   0  0  0  0  0  0  0  0  0  0  0  0
   67.1721   80.5840   90.5159 C   0  0  0  0  0  0  0  0  0  0  0  0
   67.2668   81.7897   89.8354 C   0  0  0  0  0  0  0  0  0  0  0  0
   67.3425   81.7369   88.4639 C   0  0  0  0  0  0  0  0  0  0  0  0
   67.3222   80.4965   87.8114 C   0  0  0  0  0  0  0  0  0  0  0  0
   67.4374   82.8771   87.7276 O   0  0  0  0  0  0  0  0  0  0  0  0
   68.5358   83.3236   87.0220 C   0  0  0  0  0  0  0  0  0  0  0  0
   68.5427   84.8442   86.9370 C   0  0  0  0  0  0  0  0  0  0  0  0
   69.9578   85.1413   86.5204 C   0  0  0  0  0  0  0  0  0  0  0  0
   70.7967   83.9662   86.9337 C   0  0  0  0  0  0  0  0  0  0  0  0
   69.8497   83.0974   87.7646 C   0  0  0  0  0  0  0  0  0  0  0  0
   66.5471   74.3266   88.4062 C   0  0  0  0  0  0  0  0  0  0  0  0
   67.5797   73.6987   88.9932 O   0  0  0  0  0  0  0  0  0  0  0  0
   69.3822   74.8742   91.9187 C   0  0  0  0  0  0  0  0  0  0  0  0
   68.6797   74.8435   90.7512 C   0  0  0  0  0  0  0  0  0  0  0  0
   68.2620   73.6390   90.1354 C   0  0  0  0  0  0  0  0  0  0  0  0
   68.5837   72.4560   90.7485 C   0  0  0  0  0  0  0  0  0  0  0  0
   69.2918   72.4759   91.9266 C   0  0  0  0  0  0  0  0  0  0  0  0
   69.6921   73.6709   92.5142 C   0  0  0  0  0  0  0  0  0  0  0  0
   70.4050   73.6333   93.7036 O   0  0  0  0  0  0  0  0  0  0  0  0
   71.0128   76.4233   92.6397 O   0  0  0  0  0  0  0  0  0  0  0  0
   69.8216   76.0946   92.5698 C   0  0  0  0  0  0  0  0  0  0  0  0
   68.8691   76.9222   93.1340 O   0  0  0  0  0  0  0  0  0  0  0  0
 28 29  2  0
 29 30  1  0
 29 21  1  0
 21 22  2  0
 22 23  1  0
 23 20  1  0
 20 19  1  0
 19  1  1  0
  1  2  2  0
  2  3  1  0
  3  4  2  0
  4  5  1  0
  5  7  1  0
  7  8  2  0
  8  9  1  0
  9 10  2  0
 10 11  1  0
 11 13  1  0
 13 14  1  0
 14 15  1  0
 15 16  1  0
 16 17  1  0
 17 18  1  0
 11 12  2  0
  5  6  2  0
 23 24  2  0
 24 25  1  0
 25 26  2  0
 26 27  1  0
 26 21  1  0
  6  1  1  0
 12  7  1  0
 18 14  1  0
M  END
>  <Activity>  (29) 
13.3

>  <minimizedAffinity>  (29) 
-8.69099

>  <MorganFP>  (29) 
<rdkit.DataStructs.cDataStructs.ExplicitBitVect object at 0x7f0ecbb6b4c0>

$$$$
HIPS6566
     RDKit          3D

 29 30  0  0  0  0  0  0  0  0999 V2000
   67.4511   76.5760   88.9889 C   0  0  0  0  0  0  0  0  0  0  0  0
   67.1621   76.5496   87.6125 C   0  0  0  0  0  0  0  0  0  0  0  0
   66.7924   77.7211   86.9462 C   0  0  0  0  0  0  0  0  0  0  0  0
   66.7072   78.9301   87.6429 C   0  0  0  0  0  0  0  0  0  0  0  0
   66.9796   78.9738   89.0182 C   0  0  0  0  0  0  0  0  0  0  0  0
   67.3616   77.7974   89.6841 C   0  0  0  0  0  0  0  0  0  0  0  0
   69.0635   74.2222   91.5095 C   0  0  0  0  0  0  0  0  0  0  0  0
   68.6025   72.9841   91.0362 C   0  0  0  0  0  0  0  0  0  0  0  0
   67.7725   72.9159   89.9154 C   0  0  0  0  0  0  0  0  0  0  0  0
   67.3950   74.0833   89.2509 C   0  0  0  0  0  0  0  0  0  0  0  0
   67.8515   75.3347   89.6974 C   0  0  0  0  0  0  0  0  0  0  0  0
   68.6875   75.3959   90.8276 C   0  0  0  0  0  0  0  0  0  0  0  0
   69.9059   74.2517   92.6769 N   0  0  0  0  0  0  0  0  0  0  0  0
   69.3520   74.5878   94.2886 S   0  0  0  0  0  0  0  0  0  0  0  0
   69.7479   75.9929   94.6499 O   0  0  0  0  0  0  0  0  0  0  0  0
   70.0068   73.6455   95.2584 O   0  0  0  0  0  0  0  0  0  0  0  0
   67.1425   73.9457   95.7591 C   0  0  0  0  0  0  0  0  0  0  0  0
   67.5676   74.4355   94.3734 C   0  0  0  0  0  0  0  0  0  0  0  0
   66.9069   75.7781   94.0452 C   0  0  0  0  0  0  0  0  0  0  0  0
   66.9436   80.2827   89.7515 C   0  0  0  0  0  0  0  0  0  0  0  0
   68.2752   80.6636   90.0896 O   0  0  0  0  0  0  0  0  0  0  0  0
   68.9599   81.7613   89.5465 C   0  0  0  0  0  0  0  0  0  0  0  0
   68.7072   82.2570   88.3249 C   0  0  0  0  0  0  0  0  0  0  0  0
   69.4307   83.4280   87.7673 C   0  0  0  0  0  0  0  0  0  0  0  0
   70.7664   83.4829   87.9234 C   0  0  0  0  0  0  0  0  0  0  0  0
   71.5446   84.5740   87.5346 O   0  0  0  0  0  0  0  0  0  0  0  0
   68.6871   84.5092   87.0830 C   0  0  0  0  0  0  0  0  0  0  0  0
   67.5141   84.7921   87.4473 O   0  0  0  0  0  0  0  0  0  0  0  0
   69.2592   85.1896   86.0121 O   0  0  0  0  0  0  0  0  0  0  0  0
 17 18  1  0
 18 19  1  0
 18 14  1  0
 14 15  2  0
 14 16  2  0
 14 13  1  0
 13  7  1  0
  7  8  2  0
  8  9  1  0
  9 10  2  0
 10 11  1  0
 11  1  1  0
  1  2  2  0
  2  3  1  0
  3  4  2  0
  4  5  1  0
  5 20  1  0
 20 21  1  0
 21 22  1  0
 22 23  2  0
 23 24  1  0
 24 25  2  0
 25 26  1  0
 24 27  1  0
 27 28  2  0
 27 29  1  0
  5  6  2  0
 11 12  2  0
 12  7  1  0
  6  1  1  0
M  END
>  <Activity>  (30) 
8.6

>  <minimizedAffinity>  (30) 
-8.03492

>  <MorganFP>  (30) 
<rdkit.DataStructs.cDataStructs.ExplicitBitVect object at 0x7f0ecbb854c0>

$$$$
HIPS6566
     RDKit          3D

 29 30  0  0  0  0  0  0  0  0999 V2000
   70.3492   80.4090   90.0687 C   0  0  0  0  0  0  0  0  0  0  0  0
   68.9439   80.3952   90.0101 C   0  0  0  0  0  0  0  0  0  0  0  0
   68.2339   79.2439   90.3612 C   0  0  0  0  0  0  0  0  0  0  0  0
   68.9154   78.0953   90.7745 C   0  0  0  0  0  0  0  0  0  0  0  0
   70.3171   78.0861   90.8275 C   0  0  0  0  0  0  0  0  0  0  0  0
   71.0287   79.2477   90.4846 C   0  0  0  0  0  0  0  0  0  0  0  0
   71.2387   83.7722   88.5223 C   0  0  0  0  0  0  0  0  0  0  0  0
   72.5390   83.9481   89.0204 C   0  0  0  0  0  0  0  0  0  0  0  0
   73.1168   82.9882   89.8539 C   0  0  0  0  0  0  0  0  0  0  0  0
   72.4046   81.8388   90.1978 C   0  0  0  0  0  0  0  0  0  0  0  0
   71.1055   81.6329   89.7039 C   0  0  0  0  0  0  0  0  0  0  0  0
   70.5295   82.6044   88.8647 C   0  0  0  0  0  0  0  0  0  0  0  0
   70.6727   84.7916   87.6777 N   0  0  0  0  0  0  0  0  0  0  0  0
   69.3952   85.8703   88.1487 S   0  0  0  0  0  0  0  0  0  0  0  0
   69.4683   87.1049   87.2930 O   0  0  0  0  0  0  0  0  0  0  0  0
   69.5750   86.2758   89.5841 O   0  0  0  0  0  0  0  0  0  0  0  0
   67.8701   84.0830   86.7571 C   0  0  0  0  0  0  0  0  0  0  0  0
   67.8023   85.0815   87.9144 C   0  0  0  0  0  0  0  0  0  0  0  0
   67.3621   84.3863   89.2066 C   0  0  0  0  0  0  0  0  0  0  0  0
   71.0435   76.8713   91.3263 C   0  0  0  0  0  0  0  0  0  0  0  0
   70.5714   76.5505   92.6329 O   0  0  0  0  0  0  0  0  0  0  0  0
   69.6960   75.4965   92.9351 C   0  0  0  0  0  0  0  0  0  0  0  0
   69.1191   75.3387   94.1369 C   0  0  0  0  0  0  0  0  0  0  0  0
   68.1838   74.2255   94.4394 C   0  0  0  0  0  0  0  0  0  0  0  0
   67.4199   74.3197   95.5437 C   0  0  0  0  0  0  0  0  0  0  0  0
   66.5782   73.2998   95.9891 O   0  0  0  0  0  0  0  0  0  0  0  0
   68.1221   73.0402   93.5555 C   0  0  0  0  0  0  0  0  0  0  0  0
   69.0817   72.2232   93.5333 O   0  0  0  0  0  0  0  0  0  0  0  0
   67.0288   72.8422   92.7174 O   0  0  0  0  0  0  0  0  0  0  0  0
 17 18  1  0
 18 19  1  0
 18 14  1  0
 14 15  2  0
 14 16  2  0
 14 13  1  0
 13  7  1  0
  7  8  2  0
  8  9  1  0
  9 10  2  0
 10 11  1  0
 11  1  1  0
  1  2  2  0
  2  3  1  0
  3  4  2  0
  4  5  1  0
  5 20  1  0
 20 21  1  0
 21 22  1  0
 22 23  2  0
 23 24  1  0
 24 25  2  0
 25 26  1  0
 24 27  1  0
 27 28  2  0
 27 29  1  0
  5  6  2  0
 11 12  2  0
 12  7  1  0
  6  1  1  0
M  END
>  <Activity>  (31) 
8.6

>  <minimizedAffinity>  (31) 
-8.02186

>  <MorganFP>  (31) 
<rdkit.DataStructs.cDataStructs.ExplicitBitVect object at 0x7f0ecbb85ac0>

$$$$
HIPS6566
     RDKit          3D

 29 30  0  0  0  0  0  0  0  0999 V2000
   68.2436   77.7587   88.9722 C   0  0  0  0  0  0  0  0  0  0  0  0
   67.6821   76.7463   88.1730 C   0  0  0  0  0  0  0  0  0  0  0  0
   66.7064   77.0572   87.2221 C   0  0  0  0  0  0  0  0  0  0  0  0
   66.2801   78.3784   87.0570 C   0  0  0  0  0  0  0  0  0  0  0  0
   66.8194   79.3995   87.8533 C   0  0  0  0  0  0  0  0  0  0  0  0
   67.8080   79.0869   88.8010 C   0  0  0  0  0  0  0  0  0  0  0  0
   70.1118   76.0175   91.7957 C   0  0  0  0  0  0  0  0  0  0  0  0
   71.2622   76.8176   91.8742 C   0  0  0  0  0  0  0  0  0  0  0  0
   71.4313   77.9056   91.0155 C   0  0  0  0  0  0  0  0  0  0  0  0
   70.4520   78.2106   90.0696 C   0  0  0  0  0  0  0  0  0  0  0  0
   69.2858   77.4324   89.9775 C   0  0  0  0  0  0  0  0  0  0  0  0
   69.1221   76.3375   90.8458 C   0  0  0  0  0  0  0  0  0  0  0  0
   69.9813   74.8959   92.6890 N   0  0  0  0  0  0  0  0  0  0  0  0
   69.3202   74.9801   94.2932 S   0  0  0  0  0  0  0  0  0  0  0  0
   69.6992   76.3026   94.9006 O   0  0  0  0  0  0  0  0  0  0  0  0
   69.9009   73.8841   95.1409 O   0  0  0  0  0  0  0  0  0  0  0  0
   66.9949   74.3307   95.5690 C   0  0  0  0  0  0  0  0  0  0  0  0
   67.5333   74.8468   94.2331 C   0  0  0  0  0  0  0  0  0  0  0  0
   66.9140   76.2042   93.8856 C   0  0  0  0  0  0  0  0  0  0  0  0
   66.4023   80.8245   87.6345 C   0  0  0  0  0  0  0  0  0  0  0  0
   67.4661   81.5282   86.9974 O   0  0  0  0  0  0  0  0  0  0  0  0
   68.1627   82.6103   87.5565 C   0  0  0  0  0  0  0  0  0  0  0  0
   67.7850   83.8892   87.4025 C   0  0  0  0  0  0  0  0  0  0  0  0
   68.5243   85.0244   88.0110 C   0  0  0  0  0  0  0  0  0  0  0  0
   68.3372   85.2759   89.3199 C   0  0  0  0  0  0  0  0  0  0  0  0
   68.8942   86.3701   89.9828 O   0  0  0  0  0  0  0  0  0  0  0  0
   69.4198   85.8626   87.1829 C   0  0  0  0  0  0  0  0  0  0  0  0
   69.6414   87.0590   87.5120 O   0  0  0  0  0  0  0  0  0  0  0  0
   69.9876   85.3512   86.0197 O   0  0  0  0  0  0  0  0  0  0  0  0
 17 18  1  0
 18 19  1  0
 18 14  1  0
 14 15  2  0
 14 16  2  0
 14 13  1  0
 13  7  1  0
  7  8  2  0
  8  9  1  0
  9 10  2  0
 10 11  1  0
 11  1  1  0
  1  2  2  0
  2  3  1  0
  3  4  2  0
  4  5  1  0
  5 20  1  0
 20 21  1  0
 21 22  1  0
 22 23  2  0
 23 24  1  0
 24 25  2  0
 25 26  1  0
 24 27  1  0
 27 28  2  0
 27 29  1  0
  5  6  2  0
 11 12  2  0
 12  7  1  0
  6  1  1  0
M  END
>  <Activity>  (32) 
8.6

>  <minimizedAffinity>  (32) 
-7.84350

>  <MorganFP>  (32) 
<rdkit.DataStructs.cDataStructs.ExplicitBitVect object at 0x7f0ecbb85820>

$$$$
HIPS6566
     RDKit          3D

 29 30  0  0  0  0  0  0  0  0999 V2000
   68.8330   72.5041   91.2299 C   0  0  0  0  0  0  0  0  0  0  0  0
   69.4059   71.2323   91.0486 C   0  0  0  0  0  0  0  0  0  0  0  0
   70.1011   70.6157   92.0923 C   0  0  0  0  0  0  0  0  0  0  0  0
   70.2326   71.2586   93.3268 C   0  0  0  0  0  0  0  0  0  0  0  0
   69.6788   72.5324   93.5226 C   0  0  0  0  0  0  0  0  0  0  0  0
   68.9710   73.1459   92.4758 C   0  0  0  0  0  0  0  0  0  0  0  0
   66.7251   72.9983   88.0985 C   0  0  0  0  0  0  0  0  0  0  0  0
   66.6750   74.3997   88.0410 C   0  0  0  0  0  0  0  0  0  0  0  0
   67.3132   75.1741   89.0120 C   0  0  0  0  0  0  0  0  0  0  0  0
   68.0124   74.5589   90.0509 C   0  0  0  0  0  0  0  0  0  0  0  0
   68.0874   73.1579   90.1255 C   0  0  0  0  0  0  0  0  0  0  0  0
   67.4418   72.3838   89.1438 C   0  0  0  0  0  0  0  0  0  0  0  0
   66.0419   72.2350   87.0866 N   0  0  0  0  0  0  0  0  0  0  0  0
   66.6790   71.8915   85.5075 S   0  0  0  0  0  0  0  0  0  0  0  0
   67.2268   73.1641   84.9227 O   0  0  0  0  0  0  0  0  0  0  0  0
   65.5800   71.3922   84.6131 O   0  0  0  0  0  0  0  0  0  0  0  0
   67.7078   69.6910   86.7549 C   0  0  0  0  0  0  0  0  0  0  0  0
   67.9944   70.6787   85.6221 C   0  0  0  0  0  0  0  0  0  0  0  0
   68.1526   69.9435   84.2874 C   0  0  0  0  0  0  0  0  0  0  0  0
   69.7717   73.1952   94.8659 C   0  0  0  0  0  0  0  0  0  0  0  0
   68.4611   73.5486   95.3021 O   0  0  0  0  0  0  0  0  0  0  0  0
   67.8598   74.8014   95.1085 C   0  0  0  0  0  0  0  0  0  0  0  0
   67.5510   75.2919   93.8977 C   0  0  0  0  0  0  0  0  0  0  0  0
   66.9025   76.6144   93.7078 C   0  0  0  0  0  0  0  0  0  0  0  0
   65.6961   76.8169   94.2692 C   0  0  0  0  0  0  0  0  0  0  0  0
   64.9421   77.9758   94.0809 O   0  0  0  0  0  0  0  0  0  0  0  0
   67.5654   77.6626   92.9003 C   0  0  0  0  0  0  0  0  0  0  0  0
   68.4746   77.3468   92.0865 O   0  0  0  0  0  0  0  0  0  0  0  0
   67.2199   79.0010   93.0625 O   0  0  0  0  0  0  0  0  0  0  0  0
 17 18  1  0
 18 19  1  0
 18 14  1  0
 14 15  2  0
 14 16  2  0
 14 13  1  0
 13  7  1  0
  7  8  2  0
  8  9  1  0
  9 10  2  0
 10 11  1  0
 11  1  1  0
  1  2  2  0
  2  3  1  0
  3  4  2  0
  4  5  1  0
  5 20  1  0
 20 21  1  0
 21 22  1  0
 22 23  2  0
 23 24  1  0
 24 25  2  0
 25 26  1  0
 24 27  1  0
 27 28  2  0
 27 29  1  0
  5  6  2  0
 11 12  2  0
 12  7  1  0
  6  1  1  0
M  END
>  <Activity>  (33) 
8.6

>  <minimizedAffinity>  (33) 
-7.61454

>  <MorganFP>  (33) 
<rdkit.DataStructs.cDataStructs.ExplicitBitVect object at 0x7f0ecbb85040>

$$$$
HIPS6295
     RDKit          3D

 34 37  0  0  0  0  0  0  0  0999 V2000
   69.8801   79.0455   90.1266 C   0  0  0  0  0  0  0  0  0  0  0  0
   68.6435   79.6645   89.8916 C   0  0  0  0  0  0  0  0  0  0  0  0
   67.4666   78.9109   89.8934 C   0  0  0  0  0  0  0  0  0  0  0  0
   65.9234   79.6958   89.6130 Cl  0  0  0  0  0  0  0  0  0  0  0  0
   67.5164   77.5354   90.1371 C   0  0  0  0  0  0  0  0  0  0  0  0
   68.7485   76.8985   90.3603 C   0  0  0  0  0  0  0  0  0  0  0  0
   69.9293   77.6586   90.3370 C   0  0  0  0  0  0  0  0  0  0  0  0
   68.7998   75.4564   90.6878 C   0  0  0  0  0  0  0  0  0  0  0  0
   68.0385   74.5282   89.9594 C   0  0  0  0  0  0  0  0  0  0  0  0
   68.1299   73.1643   90.2467 C   0  0  0  0  0  0  0  0  0  0  0  0
   69.0018   72.7129   91.2408 C   0  0  0  0  0  0  0  0  0  0  0  0
   69.7889   73.6198   91.9591 C   0  0  0  0  0  0  0  0  0  0  0  0
   69.6579   74.9972   91.7000 C   0  0  0  0  0  0  0  0  0  0  0  0
   70.6996   73.1142   92.9016 O   0  0  0  0  0  0  0  0  0  0  0  0
   70.3606   72.2526   93.9907 C   0  0  0  0  0  0  0  0  0  0  0  0
   71.1759   70.9851   93.9453 C   0  0  0  0  0  0  0  0  0  0  0  0
   70.9584   69.9750   94.8960 C   0  0  0  0  0  0  0  0  0  0  0  0
   71.6900   68.7849   94.8391 C   0  0  0  0  0  0  0  0  0  0  0  0
   72.6451   68.5959   93.8367 C   0  0  0  0  0  0  0  0  0  0  0  0
   72.8754   69.6000   92.8909 C   0  0  0  0  0  0  0  0  0  0  0  0
   74.0663   69.3580   91.6255 Cl  0  0  0  0  0  0  0  0  0  0  0  0
   72.1498   70.7953   92.9495 C   0  0  0  0  0  0  0  0  0  0  0  0
   71.1334   79.8767   90.1918 C   0  0  0  0  0  0  0  0  0  0  0  0
   70.8127   81.2418   90.4647 O   0  0  0  0  0  0  0  0  0  0  0  0
   70.7966   84.1237   88.1291 C   0  0  0  0  0  0  0  0  0  0  0  0
   70.3963   83.0012   88.8783 C   0  0  0  0  0  0  0  0  0  0  0  0
   71.2849   82.3495   89.7403 C   0  0  0  0  0  0  0  0  0  0  0  0
   72.6049   82.8194   89.8473 C   0  0  0  0  0  0  0  0  0  0  0  0
   73.0187   83.9277   89.1080 C   0  0  0  0  0  0  0  0  0  0  0  0
   72.1283   84.5832   88.2471 C   0  0  0  0  0  0  0  0  0  0  0  0
   72.5718   85.6828   87.5122 O   0  0  0  0  0  0  0  0  0  0  0  0
   68.6018   84.8961   87.5748 O   0  0  0  0  0  0  0  0  0  0  0  0
   69.8119   84.7899   87.2384 C   0  0  0  0  0  0  0  0  0  0  0  0
   70.2183   85.3049   86.0097 O   0  0  0  0  0  0  0  0  0  0  0  0
 32 33  2  0
 33 34  1  0
 33 25  1  0
 25 26  2  0
 26 27  1  0
 27 24  1  0
 24 23  1  0
 23  1  1  0
  1  2  2  0
  2  3  1  0
  3  4  1  0
  3  5  2  0
  5  6  1  0
  6  8  1  0
  8  9  2  0
  9 10  1  0
 10 11  2  0
 11 12  1  0
 12 14  1  0
 14 15  1  0
 15 16  1  0
 16 17  2  0
 17 18  1  0
 18 19  2  0
 19 20  1  0
 20 21  1  0
 20 22  2  0
 12 13  2  0
  6  7  2  0
 27 28  2  0
 28 29  1  0
 29 30  2  0
 30 31  1  0
 30 25  1  0
  7  1  1  0
 13  8  1  0
 22 16  1  0
M  END
>  <Activity>  (34) 
14.5

>  <minimizedAffinity>  (34) 
-9.79209

>  <MorganFP>  (34) 
<rdkit.DataStructs.cDataStructs.ExplicitBitVect object at 0x7f0ecbb85dc0>

$$$$
HIPS6295
     RDKit          3D

 34 37  0  0  0  0  0  0  0  0999 V2000
   68.7547   74.8310   91.0152 C   0  0  0  0  0  0  0  0  0  0  0  0
   68.1442   73.8041   90.2800 C   0  0  0  0  0  0  0  0  0  0  0  0
   67.3774   74.1056   89.1513 C   0  0  0  0  0  0  0  0  0  0  0  0
   66.6299   72.8140   88.2296 Cl  0  0  0  0  0  0  0  0  0  0  0  0
   67.2212   75.4340   88.7454 C   0  0  0  0  0  0  0  0  0  0  0  0
   67.8146   76.4746   89.4791 C   0  0  0  0  0  0  0  0  0  0  0  0
   68.5671   76.1659   90.6241 C   0  0  0  0  0  0  0  0  0  0  0  0
   67.7105   77.8755   89.0140 C   0  0  0  0  0  0  0  0  0  0  0  0
   66.8291   78.2233   87.9778 C   0  0  0  0  0  0  0  0  0  0  0  0
   66.7048   79.5561   87.5782 C   0  0  0  0  0  0  0  0  0  0  0  0
   67.4350   80.5549   88.2275 C   0  0  0  0  0  0  0  0  0  0  0  0
   68.2980   80.2317   89.2804 C   0  0  0  0  0  0  0  0  0  0  0  0
   68.4570   78.8820   89.6475 C   0  0  0  0  0  0  0  0  0  0  0  0
   68.9595   81.2763   89.9471 O   0  0  0  0  0  0  0  0  0  0  0  0
   70.3485   81.2850   90.2850 C   0  0  0  0  0  0  0  0  0  0  0  0
   71.0739   82.3788   89.5428 C   0  0  0  0  0  0  0  0  0  0  0  0
   72.4082   82.6787   89.8608 C   0  0  0  0  0  0  0  0  0  0  0  0
   73.0948   83.6706   89.1541 C   0  0  0  0  0  0  0  0  0  0  0  0
   72.4547   84.3720   88.1289 C   0  0  0  0  0  0  0  0  0  0  0  0
   71.1229   84.0869   87.8112 C   0  0  0  0  0  0  0  0  0  0  0  0
   70.3229   84.9595   86.5163 Cl  0  0  0  0  0  0  0  0  0  0  0  0
   70.4307   83.0996   88.5216 C   0  0  0  0  0  0  0  0  0  0  0  0
   69.6354   74.4911   92.1877 C   0  0  0  0  0  0  0  0  0  0  0  0
   69.1502   73.3243   92.8540 O   0  0  0  0  0  0  0  0  0  0  0  0
   71.7411   70.7058   93.2912 C   0  0  0  0  0  0  0  0  0  0  0  0
   71.0734   71.9450   93.2833 C   0  0  0  0  0  0  0  0  0  0  0  0
   69.7571   72.0573   92.8225 C   0  0  0  0  0  0  0  0  0  0  0  0
   69.0973   70.9115   92.3470 C   0  0  0  0  0  0  0  0  0  0  0  0
   69.7466   69.6767   92.3436 C   0  0  0  0  0  0  0  0  0  0  0  0
   71.0637   69.5627   92.8083 C   0  0  0  0  0  0  0  0  0  0  0  0
   71.6923   68.3176   92.7840 O   0  0  0  0  0  0  0  0  0  0  0  0
   73.4109   69.9692   94.8370 O   0  0  0  0  0  0  0  0  0  0  0  0
   73.1336   70.6355   93.8038 C   0  0  0  0  0  0  0  0  0  0  0  0
   74.1555   71.3147   93.1444 O   0  0  0  0  0  0  0  0  0  0  0  0
 32 33  2  0
 33 34  1  0
 33 25  1  0
 25 26  2  0
 26 27  1  0
 27 24  1  0
 24 23  1  0
 23  1  1  0
  1  2  2  0
  2  3  1  0
  3  4  1  0
  3  5  2  0
  5  6  1  0
  6  8  1  0
  8  9  2  0
  9 10  1  0
 10 11  2  0
 11 12  1  0
 12 14  1  0
 14 15  1  0
 15 16  1  0
 16 17  2  0
 17 18  1  0
 18 19  2  0
 19 20  1  0
 20 21  1  0
 20 22  2  0
 12 13  2  0
  6  7  2  0
 27 28  2  0
 28 29  1  0
 29 30  2  0
 30 31  1  0
 30 25  1  0
  7  1  1  0
 13  8  1  0
 22 16  1  0
M  END
>  <Activity>  (35) 
14.5

>  <minimizedAffinity>  (35) 
-9.73758

>  <MorganFP>  (35) 
<rdkit.DataStructs.cDataStructs.ExplicitBitVect object at 0x7f0ecbba4d00>

$$$$
HIPS6295
     RDKit          3D

 34 37  0  0  0  0  0  0  0  0999 V2000
   70.3020   78.3444   90.6471 C   0  0  0  0  0  0  0  0  0  0  0  0
   68.9117   78.3013   90.4662 C   0  0  0  0  0  0  0  0  0  0  0  0
   68.2237   79.4332   90.0206 C   0  0  0  0  0  0  0  0  0  0  0  0
   66.4872   79.3657   89.7832 Cl  0  0  0  0  0  0  0  0  0  0  0  0
   68.9207   80.6132   89.7460 C   0  0  0  0  0  0  0  0  0  0  0  0
   70.3113   80.6764   89.9355 C   0  0  0  0  0  0  0  0  0  0  0  0
   70.9935   79.5413   90.4030 C   0  0  0  0  0  0  0  0  0  0  0  0
   71.0626   81.9006   89.5798 C   0  0  0  0  0  0  0  0  0  0  0  0
   72.3401   82.1379   90.1122 C   0  0  0  0  0  0  0  0  0  0  0  0
   73.0596   83.2738   89.7334 C   0  0  0  0  0  0  0  0  0  0  0  0
   72.5244   84.1651   88.7999 C   0  0  0  0  0  0  0  0  0  0  0  0
   71.2646   83.9317   88.2376 C   0  0  0  0  0  0  0  0  0  0  0  0
   70.5224   82.8120   88.6584 C   0  0  0  0  0  0  0  0  0  0  0  0
   70.7970   84.8186   87.2537 O   0  0  0  0  0  0  0  0  0  0  0  0
   69.5526   85.5202   87.3055 C   0  0  0  0  0  0  0  0  0  0  0  0
   69.4930   86.4173   88.5159 C   0  0  0  0  0  0  0  0  0  0  0  0
   70.0557   87.7027   88.4665 C   0  0  0  0  0  0  0  0  0  0  0  0
   69.9753   88.5498   89.5759 C   0  0  0  0  0  0  0  0  0  0  0  0
   69.3369   88.1196   90.7422 C   0  0  0  0  0  0  0  0  0  0  0  0
   68.7817   86.8375   90.8042 C   0  0  0  0  0  0  0  0  0  0  0  0
   67.9701   86.3017   92.2644 Cl  0  0  0  0  0  0  0  0  0  0  0  0
   68.8669   85.9846   89.6978 C   0  0  0  0  0  0  0  0  0  0  0  0
   71.0425   77.1006   91.0601 C   0  0  0  0  0  0  0  0  0  0  0  0
   70.4221   76.5069   92.2017 O   0  0  0  0  0  0  0  0  0  0  0  0
   67.8996   74.0546   93.3781 C   0  0  0  0  0  0  0  0  0  0  0  0
   68.8191   75.1197   93.3382 C   0  0  0  0  0  0  0  0  0  0  0  0
   69.5286   75.4228   92.1710 C   0  0  0  0  0  0  0  0  0  0  0  0
   69.3265   74.6383   91.0229 C   0  0  0  0  0  0  0  0  0  0  0  0
   68.4223   73.5761   91.0473 C   0  0  0  0  0  0  0  0  0  0  0  0
   67.7086   73.2742   92.2149 C   0  0  0  0  0  0  0  0  0  0  0  0
   66.8185   72.2001   92.2140 O   0  0  0  0  0  0  0  0  0  0  0  0
   67.7739   73.5011   95.7016 O   0  0  0  0  0  0  0  0  0  0  0  0
   67.1600   73.7817   94.6372 C   0  0  0  0  0  0  0  0  0  0  0  0
   65.7680   73.8294   94.6537 O   0  0  0  0  0  0  0  0  0  0  0  0
 32 33  2  0
 33 34  1  0
 33 25  1  0
 25 26  2  0
 26 27  1  0
 27 24  1  0
 24 23  1  0
 23  1  1  0
  1  2  2  0
  2  3  1  0
  3  4  1  0
  3  5  2  0
  5  6  1  0
  6  8  1  0
  8  9  2  0
  9 10  1  0
 10 11  2  0
 11 12  1  0
 12 14  1  0
 14 15  1  0
 15 16  1  0
 16 17  2  0
 17 18  1  0
 18 19  2  0
 19 20  1  0
 20 21  1  0
 20 22  2  0
 12 13  2  0
  6  7  2  0
 27 28  2  0
 28 29  1  0
 29 30  2  0
 30 31  1  0
 30 25  1  0
  7  1  1  0
 13  8  1  0
 22 16  1  0
M  END
>  <Activity>  (36) 
14.5

>  <minimizedAffinity>  (36) 
-9.64167

>  <MorganFP>  (36) 
<rdkit.DataStructs.cDataStructs.ExplicitBitVect object at 0x7f0ecbba4dc0>

$$$$
HIPS6295
     RDKit          3D

 34 37  0  0  0  0  0  0  0  0999 V2000
   67.1017   75.4660   88.7043 C   0  0  0  0  0  0  0  0  0  0  0  0
   67.0801   75.4168   87.3026 C   0  0  0  0  0  0  0  0  0  0  0  0
   66.9839   76.5953   86.5576 C   0  0  0  0  0  0  0  0  0  0  0  0
   66.9724   76.5252   84.8051 Cl  0  0  0  0  0  0  0  0  0  0  0  0
   66.9158   77.8308   87.2076 C   0  0  0  0  0  0  0  0  0  0  0  0
   66.9222   77.8957   88.6109 C   0  0  0  0  0  0  0  0  0  0  0  0
   66.9986   76.7062   89.3535 C   0  0  0  0  0  0  0  0  0  0  0  0
   66.9210   79.2042   89.3020 C   0  0  0  0  0  0  0  0  0  0  0  0
   65.7169   79.7930   89.7202 C   0  0  0  0  0  0  0  0  0  0  0  0
   65.7309   81.0060   90.4129 C   0  0  0  0  0  0  0  0  0  0  0  0
   66.9451   81.6256   90.7195 C   0  0  0  0  0  0  0  0  0  0  0  0
   68.1568   81.0408   90.3352 C   0  0  0  0  0  0  0  0  0  0  0  0
   68.1363   79.8435   89.5951 C   0  0  0  0  0  0  0  0  0  0  0  0
   69.3535   81.6652   90.7242 O   0  0  0  0  0  0  0  0  0  0  0  0
   70.6538   81.3217   90.2398 C   0  0  0  0  0  0  0  0  0  0  0  0
   71.2674   82.4752   89.4871 C   0  0  0  0  0  0  0  0  0  0  0  0
   72.5492   82.9352   89.8289 C   0  0  0  0  0  0  0  0  0  0  0  0
   73.1350   83.9838   89.1134 C   0  0  0  0  0  0  0  0  0  0  0  0
   72.4456   84.5826   88.0556 C   0  0  0  0  0  0  0  0  0  0  0  0
   71.1646   84.1376   87.7138 C   0  0  0  0  0  0  0  0  0  0  0  0
   70.3038   84.8816   86.3784 Cl  0  0  0  0  0  0  0  0  0  0  0  0
   70.5725   83.0929   88.4328 C   0  0  0  0  0  0  0  0  0  0  0  0
   67.2758   74.1974   89.4957 C   0  0  0  0  0  0  0  0  0  0  0  0
   68.5816   74.1451   90.0727 O   0  0  0  0  0  0  0  0  0  0  0  0
   68.9058   74.4235   93.7575 C   0  0  0  0  0  0  0  0  0  0  0  0
   68.5715   73.9605   92.4709 C   0  0  0  0  0  0  0  0  0  0  0  0
   68.9402   74.6730   91.3246 C   0  0  0  0  0  0  0  0  0  0  0  0
   69.6457   75.8801   91.4652 C   0  0  0  0  0  0  0  0  0  0  0  0
   69.9805   76.3551   92.7335 C   0  0  0  0  0  0  0  0  0  0  0  0
   69.6148   75.6403   93.8819 C   0  0  0  0  0  0  0  0  0  0  0  0
   69.9537   76.1437   95.1380 O   0  0  0  0  0  0  0  0  0  0  0  0
   69.3700   73.1036   95.6974 O   0  0  0  0  0  0  0  0  0  0  0  0
   68.5044   73.6236   94.9431 C   0  0  0  0  0  0  0  0  0  0  0  0
   67.1552   73.4347   95.2338 O   0  0  0  0  0  0  0  0  0  0  0  0
 32 33  2  0
 33 34  1  0
 33 25  1  0
 25 26  2  0
 26 27  1  0
 27 24  1  0
 24 23  1  0
 23  1  1  0
  1  2  2  0
  2  3  1  0
  3  4  1  0
  3  5  2  0
  5  6  1  0
  6  8  1  0
  8  9  2  0
  9 10  1  0
 10 11  2  0
 11 12  1  0
 12 14  1  0
 14 15  1  0
 15 16  1  0
 16 17  2  0
 17 18  1  0
 18 19  2  0
 19 20  1  0
 20 21  1  0
 20 22  2  0
 12 13  2  0
  6  7  2  0
 27 28  2  0
 28 29  1  0
 29 30  2  0
 30 31  1  0
 30 25  1  0
  7  1  1  0
 13  8  1  0
 22 16  1  0
M  END
>  <Activity>  (37) 
14.5

>  <minimizedAffinity>  (37) 
-9.57594

>  <MorganFP>  (37) 
<rdkit.DataStructs.cDataStructs.ExplicitBitVect object at 0x7f0ecbba4ee0>

$$$$
HIPS6295
     RDKit          3D

 34 37  0  0  0  0  0  0  0  0999 V2000
   68.3404   78.9220   89.6910 C   0  0  0  0  0  0  0  0  0  0  0  0
   67.6052   78.8894   88.4969 C   0  0  0  0  0  0  0  0  0  0  0  0
   67.1890   77.6686   87.9589 C   0  0  0  0  0  0  0  0  0  0  0  0
   66.2575   77.6383   86.4731 Cl  0  0  0  0  0  0  0  0  0  0  0  0
   67.4983   76.4731   88.6137 C   0  0  0  0  0  0  0  0  0  0  0  0
   68.2459   76.4883   89.8030 C   0  0  0  0  0  0  0  0  0  0  0  0
   68.6783   77.7173   90.3273 C   0  0  0  0  0  0  0  0  0  0  0  0
   68.5156   75.2317   90.5365 C   0  0  0  0  0  0  0  0  0  0  0  0
   68.1852   73.9882   89.9741 C   0  0  0  0  0  0  0  0  0  0  0  0
   68.4866   72.8063   90.6550 C   0  0  0  0  0  0  0  0  0  0  0  0
   69.1454   72.8537   91.8863 C   0  0  0  0  0  0  0  0  0  0  0  0
   69.5073   74.0821   92.4503 C   0  0  0  0  0  0  0  0  0  0  0  0
   69.1584   75.2722   91.7841 C   0  0  0  0  0  0  0  0  0  0  0  0
   70.2276   74.0776   93.6562 O   0  0  0  0  0  0  0  0  0  0  0  0
   69.6716   73.8003   94.9436 C   0  0  0  0  0  0  0  0  0  0  0  0
   68.2613   74.3245   95.0425 C   0  0  0  0  0  0  0  0  0  0  0  0
   67.3092   73.6393   95.8142 C   0  0  0  0  0  0  0  0  0  0  0  0
   66.0088   74.1385   95.9344 C   0  0  0  0  0  0  0  0  0  0  0  0
   65.6485   75.3214   95.2835 C   0  0  0  0  0  0  0  0  0  0  0  0
   66.5872   76.0060   94.5051 C   0  0  0  0  0  0  0  0  0  0  0  0
   66.1382   77.4973   93.6974 Cl  0  0  0  0  0  0  0  0  0  0  0  0
   67.8878   75.5050   94.3769 C   0  0  0  0  0  0  0  0  0  0  0  0
   68.7236   80.2448   90.2988 C   0  0  0  0  0  0  0  0  0  0  0  0
   70.0970   80.5358   90.0344 O   0  0  0  0  0  0  0  0  0  0  0  0
   70.2351   83.6639   88.0453 C   0  0  0  0  0  0  0  0  0  0  0  0
   69.8108   82.4364   88.5883 C   0  0  0  0  0  0  0  0  0  0  0  0
   70.5888   81.7506   89.5274 C   0  0  0  0  0  0  0  0  0  0  0  0
   71.8226   82.2941   89.9233 C   0  0  0  0  0  0  0  0  0  0  0  0
   72.2598   83.5073   89.3910 C   0  0  0  0  0  0  0  0  0  0  0  0
   71.4795   84.1966   88.4531 C   0  0  0  0  0  0  0  0  0  0  0  0
   71.9457   85.4027   87.9296 O   0  0  0  0  0  0  0  0  0  0  0  0
   68.2999   83.8312   86.6498 O   0  0  0  0  0  0  0  0  0  0  0  0
   69.3666   84.3609   87.0621 C   0  0  0  0  0  0  0  0  0  0  0  0
   69.7274   85.6163   86.5783 O   0  0  0  0  0  0  0  0  0  0  0  0
 32 33  2  0
 33 34  1  0
 33 25  1  0
 25 26  2  0
 26 27  1  0
 27 24  1  0
 24 23  1  0
 23  1  1  0
  1  2  2  0
  2  3  1  0
  3  4  1  0
  3  5  2  0
  5  6  1  0
  6  8  1  0
  8  9  2  0
  9 10  1  0
 10 11  2  0
 11 12  1  0
 12 14  1  0
 14 15  1  0
 15 16  1  0
 16 17  2  0
 17 18  1  0
 18 19  2  0
 19 20  1  0
 20 21  1  0
 20 22  2  0
 12 13  2  0
  6  7  2  0
 27 28  2  0
 28 29  1  0
 29 30  2  0
 30 31  1  0
 30 25  1  0
  7  1  1  0
 13  8  1  0
 22 16  1  0
M  END
>  <Activity>  (38) 
14.5

>  <minimizedAffinity>  (38) 
-9.51464

>  <MorganFP>  (38) 
<rdkit.DataStructs.cDataStructs.ExplicitBitVect object at 0x7f0ecbba4d60>

$$$$
HIPS6066
     RDKit          3D

 32 35  0  0  0  0  0  0  0  0999 V2000
   69.0680   73.6500   91.1115 C   0  0  0  0  0  0  0  0  0  0  0  0
   68.2537   72.6702   90.5275 C   0  0  0  0  0  0  0  0  0  0  0  0
   67.3366   73.0211   89.5370 C   0  0  0  0  0  0  0  0  0  0  0  0
   67.2209   74.3510   89.1253 C   0  0  0  0  0  0  0  0  0  0  0  0
   68.0195   75.3479   89.7082 C   0  0  0  0  0  0  0  0  0  0  0  0
   68.9375   74.9871   90.7072 C   0  0  0  0  0  0  0  0  0  0  0  0
   67.9077   76.7596   89.2667 C   0  0  0  0  0  0  0  0  0  0  0  0
   66.9666   77.1271   88.2901 C   0  0  0  0  0  0  0  0  0  0  0  0
   66.8798   78.4520   87.8575 C   0  0  0  0  0  0  0  0  0  0  0  0
   67.7240   79.4244   88.3967 C   0  0  0  0  0  0  0  0  0  0  0  0
   68.6549   79.0863   89.3847 C   0  0  0  0  0  0  0  0  0  0  0  0
   68.7501   77.7466   89.8119 C   0  0  0  0  0  0  0  0  0  0  0  0
   69.4534   80.1097   89.9211 O   0  0  0  0  0  0  0  0  0  0  0  0
   69.1888   81.5094   89.7963 C   0  0  0  0  0  0  0  0  0  0  0  0
   70.4521   82.2754   89.4887 C   0  0  0  0  0  0  0  0  0  0  0  0
   70.4811   83.2158   88.4428 C   0  0  0  0  0  0  0  0  0  0  0  0
   71.6481   83.9373   88.1764 C   0  0  0  0  0  0  0  0  0  0  0  0
   72.7949   83.7218   88.9462 C   0  0  0  0  0  0  0  0  0  0  0  0
   72.7837   82.7680   89.9685 C   0  0  0  0  0  0  0  0  0  0  0  0
   71.6188   82.0436   90.2389 C   0  0  0  0  0  0  0  0  0  0  0  0
   70.1043   73.2787   92.1392 C   0  0  0  0  0  0  0  0  0  0  0  0
   70.0126   74.1465   93.2698 O   0  0  0  0  0  0  0  0  0  0  0  0
   66.9319   76.0366   94.1138 C   0  0  0  0  0  0  0  0  0  0  0  0
   68.1112   75.6118   93.4711 C   0  0  0  0  0  0  0  0  0  0  0  0
   68.8202   74.4944   93.9266 C   0  0  0  0  0  0  0  0  0  0  0  0
   68.3227   73.7647   95.0186 C   0  0  0  0  0  0  0  0  0  0  0  0
   67.1475   74.1670   95.6545 C   0  0  0  0  0  0  0  0  0  0  0  0
   66.4520   75.3015   95.2196 C   0  0  0  0  0  0  0  0  0  0  0  0
   65.2865   75.6877   95.8848 O   0  0  0  0  0  0  0  0  0  0  0  0
   66.4743   77.7106   92.4830 O   0  0  0  0  0  0  0  0  0  0  0  0
   66.2300   77.2499   93.6302 C   0  0  0  0  0  0  0  0  0  0  0  0
   65.3015   77.9030   94.4361 O   0  0  0  0  0  0  0  0  0  0  0  0
 30 31  2  0
 31 32  1  0
 31 23  1  0
 23 24  2  0
 24 25  1  0
 25 22  1  0
 22 21  1  0
 21  1  1  0
  1  2  2  0
  2  3  1  0
  3  4  2  0
  4  5  1  0
  5  7  1  0
  7  8  2  0
  8  9  1  0
  9 10  2  0
 10 11  1  0
 11 13  1  0
 13 14  1  0
 14 15  1  0
 15 16  2  0
 16 17  1  0
 17 18  2  0
 18 19  1  0
 19 20  2  0
 11 12  2  0
  5  6  2  0
 25 26  2  0
 26 27  1  0
 27 28  2  0
 28 29  1  0
 28 23  1  0
  6  1  1  0
 12  7  1  0
 20 15  1  0
M  END
>  <Activity>  (39) 
15.4

>  <minimizedAffinity>  (39) 
-9.45888

>  <MorganFP>  (39) 
<rdkit.DataStructs.cDataStructs.ExplicitBitVect object at 0x7f0ecbba4a60>

$$$$
HIPS6066
     RDKit          3D

 32 35  0  0  0  0  0  0  0  0999 V2000
   68.0147   80.0187   89.5512 C   0  0  0  0  0  0  0  0  0  0  0  0
   67.3691   80.2255   88.3245 C   0  0  0  0  0  0  0  0  0  0  0  0
   66.9534   79.1358   87.5595 C   0  0  0  0  0  0  0  0  0  0  0  0
   67.1826   77.8330   88.0088 C   0  0  0  0  0  0  0  0  0  0  0  0
   67.8393   77.6068   89.2290 C   0  0  0  0  0  0  0  0  0  0  0  0
   68.2579   78.7090   89.9914 C   0  0  0  0  0  0  0  0  0  0  0  0
   68.0753   76.2255   89.7152 C   0  0  0  0  0  0  0  0  0  0  0  0
   68.8781   75.9965   90.8454 C   0  0  0  0  0  0  0  0  0  0  0  0
   69.1197   74.6938   91.2869 C   0  0  0  0  0  0  0  0  0  0  0  0
   68.5599   73.6076   90.6118 C   0  0  0  0  0  0  0  0  0  0  0  0
   67.7408   73.8118   89.4963 C   0  0  0  0  0  0  0  0  0  0  0  0
   67.5075   75.1261   89.0443 C   0  0  0  0  0  0  0  0  0  0  0  0
   67.1717   72.6869   88.8771 O   0  0  0  0  0  0  0  0  0  0  0  0
   66.4317   72.7086   87.6536 C   0  0  0  0  0  0  0  0  0  0  0  0
   66.9550   71.6773   86.6843 C   0  0  0  0  0  0  0  0  0  0  0  0
   66.6583   71.7705   85.3122 C   0  0  0  0  0  0  0  0  0  0  0  0
   67.1634   70.8239   84.4164 C   0  0  0  0  0  0  0  0  0  0  0  0
   67.9619   69.7756   84.8828 C   0  0  0  0  0  0  0  0  0  0  0  0
   68.2374   69.6586   86.2487 C   0  0  0  0  0  0  0  0  0  0  0  0
   67.7344   70.6028   87.1488 C   0  0  0  0  0  0  0  0  0  0  0  0
   68.4163   81.1837   90.4168 C   0  0  0  0  0  0  0  0  0  0  0  0
   69.8387   81.3095   90.4479 O   0  0  0  0  0  0  0  0  0  0  0  0
   70.5867   84.2445   88.3028 C   0  0  0  0  0  0  0  0  0  0  0  0
   69.8994   83.2169   88.9777 C   0  0  0  0  0  0  0  0  0  0  0  0
   70.5720   82.3410   89.8375 C   0  0  0  0  0  0  0  0  0  0  0  0
   71.9477   82.5178   90.0580 C   0  0  0  0  0  0  0  0  0  0  0  0
   72.6370   83.5413   89.4064 C   0  0  0  0  0  0  0  0  0  0  0  0
   71.9727   84.4006   88.5232 C   0  0  0  0  0  0  0  0  0  0  0  0
   72.6919   85.4068   87.8749 O   0  0  0  0  0  0  0  0  0  0  0  0
   69.0433   85.9891   87.8077 O   0  0  0  0  0  0  0  0  0  0  0  0
   69.8499   85.1272   87.3666 C   0  0  0  0  0  0  0  0  0  0  0  0
   70.0283   85.0115   85.9907 O   0  0  0  0  0  0  0  0  0  0  0  0
 30 31  2  0
 31 32  1  0
 31 23  1  0
 23 24  2  0
 24 25  1  0
 25 22  1  0
 22 21  1  0
 21  1  1  0
  1  2  2  0
  2  3  1  0
  3  4  2  0
  4  5  1  0
  5  7  1  0
  7  8  2  0
  8  9  1  0
  9 10  2  0
 10 11  1  0
 11 13  1  0
 13 14  1  0
 14 15  1  0
 15 16  2  0
 16 17  1  0
 17 18  2  0
 18 19  1  0
 19 20  2  0
 11 12  2  0
  5  6  2  0
 25 26  2  0
 26 27  1  0
 27 28  2  0
 28 29  1  0
 28 23  1  0
  6  1  1  0
 12  7  1  0
 20 15  1  0
M  END
>  <Activity>  (40) 
15.4

>  <minimizedAffinity>  (40) 
-9.27967

>  <MorganFP>  (40) 
<rdkit.DataStructs.cDataStructs.ExplicitBitVect object at 0x7f0ecbba4880>

$$$$
HIPS6066
     RDKit          3D

 32 35  0  0  0  0  0  0  0  0999 V2000
   68.9667   77.7282   90.9081 C   0  0  0  0  0  0  0  0  0  0  0  0
   70.0526   76.8522   91.0409 C   0  0  0  0  0  0  0  0  0  0  0  0
   71.3514   77.3076   90.8148 C   0  0  0  0  0  0  0  0  0  0  0  0
   71.5767   78.6371   90.4498 C   0  0  0  0  0  0  0  0  0  0  0  0
   70.5000   79.5256   90.2996 C   0  0  0  0  0  0  0  0  0  0  0  0
   69.1954   79.0584   90.5254 C   0  0  0  0  0  0  0  0  0  0  0  0
   70.7353   80.9408   89.9228 C   0  0  0  0  0  0  0  0  0  0  0  0
   71.9515   81.5688   90.2402 C   0  0  0  0  0  0  0  0  0  0  0  0
   72.1618   82.9085   89.9069 C   0  0  0  0  0  0  0  0  0  0  0  0
   71.1665   83.6339   89.2495 C   0  0  0  0  0  0  0  0  0  0  0  0
   69.9553   83.0245   88.9051 C   0  0  0  0  0  0  0  0  0  0  0  0
   69.7394   81.6758   89.2527 C   0  0  0  0  0  0  0  0  0  0  0  0
   69.0030   83.7883   88.2105 O   0  0  0  0  0  0  0  0  0  0  0  0
   68.0651   84.6814   88.8167 C   0  0  0  0  0  0  0  0  0  0  0  0
   68.7215   85.9889   89.1865 C   0  0  0  0  0  0  0  0  0  0  0  0
   68.6320   86.4876   90.4990 C   0  0  0  0  0  0  0  0  0  0  0  0
   69.2599   87.6887   90.8405 C   0  0  0  0  0  0  0  0  0  0  0  0
   69.9754   88.4032   89.8753 C   0  0  0  0  0  0  0  0  0  0  0  0
   70.0448   87.9299   88.5614 C   0  0  0  0  0  0  0  0  0  0  0  0
   69.4183   86.7290   88.2147 C   0  0  0  0  0  0  0  0  0  0  0  0
   67.5642   77.2680   91.2065 C   0  0  0  0  0  0  0  0  0  0  0  0
   67.2773   77.4255   92.5967 O   0  0  0  0  0  0  0  0  0  0  0  0
   68.1475   74.4392   94.6217 C   0  0  0  0  0  0  0  0  0  0  0  0
   68.2370   75.5368   93.7433 C   0  0  0  0  0  0  0  0  0  0  0  0
   67.1378   76.3730   93.5171 C   0  0  0  0  0  0  0  0  0  0  0  0
   65.9395   76.1332   94.2093 C   0  0  0  0  0  0  0  0  0  0  0  0
   65.8429   75.0578   95.0932 C   0  0  0  0  0  0  0  0  0  0  0  0
   66.9316   74.2021   95.2992 C   0  0  0  0  0  0  0  0  0  0  0  0
   66.8003   73.1257   96.1792 O   0  0  0  0  0  0  0  0  0  0  0  0
   69.4523   72.8840   95.8665 O   0  0  0  0  0  0  0  0  0  0  0  0
   69.3192   73.5494   94.8046 C   0  0  0  0  0  0  0  0  0  0  0  0
   70.2927   73.4429   93.8150 O   0  0  0  0  0  0  0  0  0  0  0  0
 30 31  2  0
 31 32  1  0
 31 23  1  0
 23 24  2  0
 24 25  1  0
 25 22  1  0
 22 21  1  0
 21  1  1  0
  1  2  2  0
  2  3  1  0
  3  4  2  0
  4  5  1  0
  5  7  1  0
  7  8  2  0
  8  9  1  0
  9 10  2  0
 10 11  1  0
 11 13  1  0
 13 14  1  0
 14 15  1  0
 15 16  2  0
 16 17  1  0
 17 18  2  0
 18 19  1  0
 19 20  2  0
 11 12  2  0
  5  6  2  0
 25 26  2  0
 26 27  1  0
 27 28  2  0
 28 29  1  0
 28 23  1  0
  6  1  1  0
 12  7  1  0
 20 15  1  0
M  END
>  <Activity>  (41) 
15.4

>  <minimizedAffinity>  (41) 
-9.24330

>  <MorganFP>  (41) 
<rdkit.DataStructs.cDataStructs.ExplicitBitVect object at 0x7f0ecbba4820>

$$$$
HIPS6134
     RDKit          3D

 33 36  0  0  0  0  0  0  0  0999 V2000
   69.9602   78.6127   90.6213 C   0  0  0  0  0  0  0  0  0  0  0  0
   68.5654   78.7502   90.6637 C   0  0  0  0  0  0  0  0  0  0  0  0
   67.9685   79.9639   90.3170 C   0  0  0  0  0  0  0  0  0  0  0  0
   68.7565   81.0514   89.9308 C   0  0  0  0  0  0  0  0  0  0  0  0
   70.1563   80.9349   89.8923 C   0  0  0  0  0  0  0  0  0  0  0  0
   70.7484   79.7051   90.2247 C   0  0  0  0  0  0  0  0  0  0  0  0
   71.0034   82.0866   89.4978 C   0  0  0  0  0  0  0  0  0  0  0  0
   72.2867   82.2438   90.0490 C   0  0  0  0  0  0  0  0  0  0  0  0
   73.0936   83.3163   89.6629 C   0  0  0  0  0  0  0  0  0  0  0  0
   72.6372   84.2310   88.7123 C   0  0  0  0  0  0  0  0  0  0  0  0
   71.3669   84.0894   88.1435 C   0  0  0  0  0  0  0  0  0  0  0  0
   70.5440   83.0222   88.5548 C   0  0  0  0  0  0  0  0  0  0  0  0
   70.9675   85.0248   87.1756 O   0  0  0  0  0  0  0  0  0  0  0  0
   69.7339   85.7452   87.1781 C   0  0  0  0  0  0  0  0  0  0  0  0
   69.5753   86.5373   88.4488 C   0  0  0  0  0  0  0  0  0  0  0  0
   70.1664   87.8056   88.5644 C   0  0  0  0  0  0  0  0  0  0  0  0
   70.0265   88.5439   89.7437 C   0  0  0  0  0  0  0  0  0  0  0  0
   69.2994   88.0212   90.8158 C   0  0  0  0  0  0  0  0  0  0  0  0
   68.7129   86.7554   90.7127 C   0  0  0  0  0  0  0  0  0  0  0  0
   67.7970   86.0995   92.0579 Cl  0  0  0  0  0  0  0  0  0  0  0  0
   68.8547   86.0121   89.5353 C   0  0  0  0  0  0  0  0  0  0  0  0
   70.6024   77.2899   90.9455 C   0  0  0  0  0  0  0  0  0  0  0  0
   70.0422   76.7142   92.1283 O   0  0  0  0  0  0  0  0  0  0  0  0
   67.6305   74.1012   93.3032 C   0  0  0  0  0  0  0  0  0  0  0  0
   68.4445   75.2472   93.3045 C   0  0  0  0  0  0  0  0  0  0  0  0
   69.1857   75.6030   92.1613 C   0  0  0  0  0  0  0  0  0  0  0  0
   69.0875   74.8121   91.0127 C   0  0  0  0  0  0  0  0  0  0  0  0
   68.2905   73.6660   91.0065 C   0  0  0  0  0  0  0  0  0  0  0  0
   67.5529   73.3086   92.1402 C   0  0  0  0  0  0  0  0  0  0  0  0
   66.7394   72.1747   92.0692 O   0  0  0  0  0  0  0  0  0  0  0  0
   67.4206   73.4087   95.5657 O   0  0  0  0  0  0  0  0  0  0  0  0
   66.8464   73.7825   94.5078 C   0  0  0  0  0  0  0  0  0  0  0  0
   65.4601   73.8554   94.4588 O   0  0  0  0  0  0  0  0  0  0  0  0
 31 32  2  0
 32 33  1  0
 32 24  1  0
 24 25  2  0
 25 26  1  0
 26 23  1  0
 23 22  1  0
 22  1  1  0
  1  2  2  0
  2  3  1  0
  3  4  2  0
  4  5  1  0
  5  7  1  0
  7  8  2  0
  8  9  1  0
  9 10  2  0
 10 11  1  0
 11 13  1  0
 13 14  1  0
 14 15  1  0
 15 16  2  0
 16 17  1  0
 17 18  2  0
 18 19  1  0
 19 20  1  0
 19 21  2  0
 11 12  2  0
  5  6  2  0
 26 27  2  0
 27 28  1  0
 28 29  2  0
 29 30  1  0
 29 24  1  0
  6  1  1  0
 12  7  1  0
 21 15  1  0
M  END
>  <Activity>  (42) 
16.0

>  <minimizedAffinity>  (42) 
-9.63485

>  <MorganFP>  (42) 
<rdkit.DataStructs.cDataStructs.ExplicitBitVect object at 0x7f0ecbba4700>

$$$$
HIPS6134
     RDKit          3D

 33 36  0  0  0  0  0  0  0  0999 V2000
   69.7703   76.3679   91.8526 C   0  0  0  0  0  0  0  0  0  0  0  0
   71.1526   76.5985   91.8054 C   0  0  0  0  0  0  0  0  0  0  0  0
   71.6742   77.5666   90.9449 C   0  0  0  0  0  0  0  0  0  0  0  0
   70.8235   78.3083   90.1209 C   0  0  0  0  0  0  0  0  0  0  0  0
   69.4366   78.0836   90.1474 C   0  0  0  0  0  0  0  0  0  0  0  0
   68.9177   77.1208   91.0291 C   0  0  0  0  0  0  0  0  0  0  0  0
   68.5257   78.8547   89.2670 C   0  0  0  0  0  0  0  0  0  0  0  0
   67.7775   78.1994   88.2739 C   0  0  0  0  0  0  0  0  0  0  0  0
   66.9036   78.9212   87.4579 C   0  0  0  0  0  0  0  0  0  0  0  0
   66.7540   80.2977   87.6349 C   0  0  0  0  0  0  0  0  0  0  0  0
   67.4817   80.9696   88.6230 C   0  0  0  0  0  0  0  0  0  0  0  0
   68.3830   80.2438   89.4269 C   0  0  0  0  0  0  0  0  0  0  0  0
   67.2754   82.3503   88.7726 O   0  0  0  0  0  0  0  0  0  0  0  0
   68.0933   83.2321   89.5434 C   0  0  0  0  0  0  0  0  0  0  0  0
   69.3837   83.5330   88.8282 C   0  0  0  0  0  0  0  0  0  0  0  0
   69.3616   83.9797   87.4973 C   0  0  0  0  0  0  0  0  0  0  0  0
   70.5569   84.2561   86.8264 C   0  0  0  0  0  0  0  0  0  0  0  0
   71.7814   84.0860   87.4768 C   0  0  0  0  0  0  0  0  0  0  0  0
   71.8139   83.6345   88.8004 C   0  0  0  0  0  0  0  0  0  0  0  0
   73.3515   83.4234   89.6189 Cl  0  0  0  0  0  0  0  0  0  0  0  0
   70.6195   83.3528   89.4733 C   0  0  0  0  0  0  0  0  0  0  0  0
   69.2017   75.3605   92.8164 C   0  0  0  0  0  0  0  0  0  0  0  0
   70.1951   74.4216   93.2360 O   0  0  0  0  0  0  0  0  0  0  0  0
   70.5820   70.7295   93.7279 C   0  0  0  0  0  0  0  0  0  0  0  0
   70.6329   72.1109   93.9822 C   0  0  0  0  0  0  0  0  0  0  0  0
   70.1300   73.0330   93.0443 C   0  0  0  0  0  0  0  0  0  0  0  0
   69.5584   72.5571   91.8606 C   0  0  0  0  0  0  0  0  0  0  0  0
   69.5143   71.1872   91.5948 C   0  0  0  0  0  0  0  0  0  0  0  0
   70.0132   70.2679   92.5237 C   0  0  0  0  0  0  0  0  0  0  0  0
   69.9086   68.9062   92.2276 O   0  0  0  0  0  0  0  0  0  0  0  0
   72.2946   69.8403   95.1132 O   0  0  0  0  0  0  0  0  0  0  0  0
   71.0889   69.7975   94.7487 C   0  0  0  0  0  0  0  0  0  0  0  0
   70.2366   68.8376   95.2798 O   0  0  0  0  0  0  0  0  0  0  0  0
 31 32  2  0
 32 33  1  0
 32 24  1  0
 24 25  2  0
 25 26  1  0
 26 23  1  0
 23 22  1  0
 22  1  1  0
  1  2  2  0
  2  3  1  0
  3  4  2  0
  4  5  1  0
  5  7  1  0
  7  8  2  0
  8  9  1  0
  9 10  2  0
 10 11  1  0
 11 13  1  0
 13 14  1  0
 14 15  1  0
 15 16  2  0
 16 17  1  0
 17 18  2  0
 18 19  1  0
 19 20  1  0
 19 21  2  0
 11 12  2  0
  5  6  2  0
 26 27  2  0
 27 28  1  0
 28 29  2  0
 29 30  1  0
 29 24  1  0
  6  1  1  0
 12  7  1  0
 21 15  1  0
M  END
>  <Activity>  (43) 
16.0

>  <minimizedAffinity>  (43) 
-9.53415

>  <MorganFP>  (43) 
<rdkit.DataStructs.cDataStructs.ExplicitBitVect object at 0x7f0ecbba46a0>

$$$$
HIPS6134
     RDKit          3D

 33 36  0  0  0  0  0  0  0  0999 V2000
   68.9788   79.1163   89.5201 C   0  0  0  0  0  0  0  0  0  0  0  0
   67.9194   79.8952   89.0331 C   0  0  0  0  0  0  0  0  0  0  0  0
   66.7365   79.2860   88.6097 C   0  0  0  0  0  0  0  0  0  0  0  0
   66.6019   77.8961   88.6628 C   0  0  0  0  0  0  0  0  0  0  0  0
   67.6569   77.0989   89.1384 C   0  0  0  0  0  0  0  0  0  0  0  0
   68.8369   77.7205   89.5799 C   0  0  0  0  0  0  0  0  0  0  0  0
   67.5307   75.6220   89.1859 C   0  0  0  0  0  0  0  0  0  0  0  0
   66.7748   74.9440   88.2141 C   0  0  0  0  0  0  0  0  0  0  0  0
   66.6721   73.5516   88.2455 C   0  0  0  0  0  0  0  0  0  0  0  0
   67.3349   72.8213   89.2334 C   0  0  0  0  0  0  0  0  0  0  0  0
   68.1004   73.4742   90.2055 C   0  0  0  0  0  0  0  0  0  0  0  0
   68.1802   74.8808   90.1880 C   0  0  0  0  0  0  0  0  0  0  0  0
   68.7644   72.6893   91.1617 O   0  0  0  0  0  0  0  0  0  0  0  0
   68.1716   72.1396   92.3395 C   0  0  0  0  0  0  0  0  0  0  0  0
   67.7727   73.2282   93.3002 C   0  0  0  0  0  0  0  0  0  0  0  0
   66.4410   73.3297   93.7333 C   0  0  0  0  0  0  0  0  0  0  0  0
   66.0637   74.3415   94.6216 C   0  0  0  0  0  0  0  0  0  0  0  0
   67.0105   75.2599   95.0812 C   0  0  0  0  0  0  0  0  0  0  0  0
   68.3382   75.1713   94.6498 C   0  0  0  0  0  0  0  0  0  0  0  0
   69.5288   76.3228   95.2289 Cl  0  0  0  0  0  0  0  0  0  0  0  0
   68.7183   74.1624   93.7573 C   0  0  0  0  0  0  0  0  0  0  0  0
   70.2353   79.7749   90.0247 C   0  0  0  0  0  0  0  0  0  0  0  0
   70.0106   81.1499   90.3457 O   0  0  0  0  0  0  0  0  0  0  0  0
   70.4694   84.0868   88.0680 C   0  0  0  0  0  0  0  0  0  0  0  0
   69.8497   83.0267   88.7520 C   0  0  0  0  0  0  0  0  0  0  0  0
   70.5749   82.2425   89.6697 C   0  0  0  0  0  0  0  0  0  0  0  0
   71.9189   82.5434   89.9096 C   0  0  0  0  0  0  0  0  0  0  0  0
   72.5452   83.5872   89.2260 C   0  0  0  0  0  0  0  0  0  0  0  0
   71.8286   84.3683   88.3132 C   0  0  0  0  0  0  0  0  0  0  0  0
   72.4912   85.4264   87.6854 O   0  0  0  0  0  0  0  0  0  0  0  0
   68.4596   85.1586   87.3941 O   0  0  0  0  0  0  0  0  0  0  0  0
   69.6675   84.9029   87.1414 C   0  0  0  0  0  0  0  0  0  0  0  0
   70.2408   85.3561   85.9600 O   0  0  0  0  0  0  0  0  0  0  0  0
 31 32  2  0
 32 33  1  0
 32 24  1  0
 24 25  2  0
 25 26  1  0
 26 23  1  0
 23 22  1  0
 22  1  1  0
  1  2  2  0
  2  3  1  0
  3  4  2  0
  4  5  1  0
  5  7  1  0
  7  8  2  0
  8  9  1  0
  9 10  2  0
 10 11  1  0
 11 13  1  0
 13 14  1  0
 14 15  1  0
 15 16  2  0
 16 17  1  0
 17 18  2  0
 18 19  1  0
 19 20  1  0
 19 21  2  0
 11 12  2  0
  5  6  2  0
 26 27  2  0
 27 28  1  0
 28 29  2  0
 29 30  1  0
 29 24  1  0
  6  1  1  0
 12  7  1  0
 21 15  1  0
M  END
>  <Activity>  (44) 
16.0

>  <minimizedAffinity>  (44) 
-9.51227

>  <MorganFP>  (44) 
<rdkit.DataStructs.cDataStructs.ExplicitBitVect object at 0x7f0ecbba4640>

$$$$
HIPS6134
     RDKit          3D

 33 36  0  0  0  0  0  0  0  0999 V2000
   67.5729   79.1657   88.9791 C   0  0  0  0  0  0  0  0  0  0  0  0
   67.1588   79.3260   87.6490 C   0  0  0  0  0  0  0  0  0  0  0  0
   66.8812   78.2078   86.8602 C   0  0  0  0  0  0  0  0  0  0  0  0
   67.0194   76.9215   87.3884 C   0  0  0  0  0  0  0  0  0  0  0  0
   67.4431   76.7415   88.7161 C   0  0  0  0  0  0  0  0  0  0  0  0
   67.7026   77.8717   89.5090 C   0  0  0  0  0  0  0  0  0  0  0  0
   67.6071   75.3809   89.2828 C   0  0  0  0  0  0  0  0  0  0  0  0
   67.0023   74.2760   88.6590 C   0  0  0  0  0  0  0  0  0  0  0  0
   67.1730   72.9914   89.1798 C   0  0  0  0  0  0  0  0  0  0  0  0
   67.9609   72.7935   90.3149 C   0  0  0  0  0  0  0  0  0  0  0  0
   68.5800   73.8772   90.9471 C   0  0  0  0  0  0  0  0  0  0  0  0
   68.3840   75.1755   90.4359 C   0  0  0  0  0  0  0  0  0  0  0  0
   69.3798   73.6181   92.0715 O   0  0  0  0  0  0  0  0  0  0  0  0
   69.5516   74.4945   93.1865 C   0  0  0  0  0  0  0  0  0  0  0  0
   68.2465   74.7155   93.9041 C   0  0  0  0  0  0  0  0  0  0  0  0
   67.7458   73.7308   94.7708 C   0  0  0  0  0  0  0  0  0  0  0  0
   66.5320   73.9283   95.4362 C   0  0  0  0  0  0  0  0  0  0  0  0
   65.8084   75.1068   95.2395 C   0  0  0  0  0  0  0  0  0  0  0  0
   66.2955   76.0906   94.3725 C   0  0  0  0  0  0  0  0  0  0  0  0
   65.3886   77.5725   94.1272 Cl  0  0  0  0  0  0  0  0  0  0  0  0
   67.5079   75.8942   93.7015 C   0  0  0  0  0  0  0  0  0  0  0  0
   67.8233   80.3709   89.8463 C   0  0  0  0  0  0  0  0  0  0  0  0
   68.1051   81.5305   89.0588 O   0  0  0  0  0  0  0  0  0  0  0  0
   70.8344   83.9298   88.1543 C   0  0  0  0  0  0  0  0  0  0  0  0
   69.5776   83.3004   88.1718 C   0  0  0  0  0  0  0  0  0  0  0  0
   69.3296   82.2155   89.0345 C   0  0  0  0  0  0  0  0  0  0  0  0
   70.3448   81.7815   89.8920 C   0  0  0  0  0  0  0  0  0  0  0  0
   71.5995   82.3934   89.8729 C   0  0  0  0  0  0  0  0  0  0  0  0
   71.8503   83.4712   89.0171 C   0  0  0  0  0  0  0  0  0  0  0  0
   73.1099   84.0744   89.0652 O   0  0  0  0  0  0  0  0  0  0  0  0
   71.8551   85.9938   87.5706 O   0  0  0  0  0  0  0  0  0  0  0  0
   71.0425   85.0816   87.2611 C   0  0  0  0  0  0  0  0  0  0  0  0
   70.3027   85.1789   86.0894 O   0  0  0  0  0  0  0  0  0  0  0  0
 31 32  2  0
 32 33  1  0
 32 24  1  0
 24 25  2  0
 25 26  1  0
 26 23  1  0
 23 22  1  0
 22  1  1  0
  1  2  2  0
  2  3  1  0
  3  4  2  0
  4  5  1  0
  5  7  1  0
  7  8  2  0
  8  9  1  0
  9 10  2  0
 10 11  1  0
 11 13  1  0
 13 14  1  0
 14 15  1  0
 15 16  2  0
 16 17  1  0
 17 18  2  0
 18 19  1  0
 19 20  1  0
 19 21  2  0
 11 12  2  0
  5  6  2  0
 26 27  2  0
 27 28  1  0
 28 29  2  0
 29 30  1  0
 29 24  1  0
  6  1  1  0
 12  7  1  0
 21 15  1  0
M  END
>  <Activity>  (45) 
16.0

>  <minimizedAffinity>  (45) 
-9.50159

>  <MorganFP>  (45) 
<rdkit.DataStructs.cDataStructs.ExplicitBitVect object at 0x7f0ecbba45e0>

$$$$
HIPS6134
     RDKit          3D

 33 36  0  0  0  0  0  0  0  0999 V2000
   67.6031   75.4301   89.2790 C   0  0  0  0  0  0  0  0  0  0  0  0
   66.8196   74.8157   88.2917 C   0  0  0  0  0  0  0  0  0  0  0  0
   66.6746   73.4271   88.2734 C   0  0  0  0  0  0  0  0  0  0  0  0
   67.3134   72.6395   89.2348 C   0  0  0  0  0  0  0  0  0  0  0  0
   68.1109   73.2371   90.2256 C   0  0  0  0  0  0  0  0  0  0  0  0
   68.2369   74.6361   90.2485 C   0  0  0  0  0  0  0  0  0  0  0  0
   68.8051   72.4103   91.2423 C   0  0  0  0  0  0  0  0  0  0  0  0
   69.4486   71.2184   90.8670 C   0  0  0  0  0  0  0  0  0  0  0  0
   70.1204   70.4494   91.8197 C   0  0  0  0  0  0  0  0  0  0  0  0
   70.1725   70.8690   93.1501 C   0  0  0  0  0  0  0  0  0  0  0  0
   69.5470   72.0565   93.5449 C   0  0  0  0  0  0  0  0  0  0  0  0
   68.8466   72.8165   92.5872 C   0  0  0  0  0  0  0  0  0  0  0  0
   69.6503   72.4427   94.8908 O   0  0  0  0  0  0  0  0  0  0  0  0
   69.6463   73.7885   95.3699 C   0  0  0  0  0  0  0  0  0  0  0  0
   68.3347   74.4636   95.0686 C   0  0  0  0  0  0  0  0  0  0  0  0
   67.1444   73.9648   95.6216 C   0  0  0  0  0  0  0  0  0  0  0  0
   65.9227   74.5847   95.3415 C   0  0  0  0  0  0  0  0  0  0  0  0
   65.8796   75.7035   94.5063 C   0  0  0  0  0  0  0  0  0  0  0  0
   67.0592   76.2035   93.9448 C   0  0  0  0  0  0  0  0  0  0  0  0
   67.0062   77.6106   92.8979 Cl  0  0  0  0  0  0  0  0  0  0  0  0
   68.2831   75.5828   94.2197 C   0  0  0  0  0  0  0  0  0  0  0  0
   67.7192   76.9304   89.3309 C   0  0  0  0  0  0  0  0  0  0  0  0
   68.9062   77.3383   90.0157 O   0  0  0  0  0  0  0  0  0  0  0  0
   69.1742   81.0704   89.8621 C   0  0  0  0  0  0  0  0  0  0  0  0
   68.6091   79.7834   89.8705 C   0  0  0  0  0  0  0  0  0  0  0  0
   69.4192   78.6443   90.0405 C   0  0  0  0  0  0  0  0  0  0  0  0
   70.7956   78.8085   90.2221 C   0  0  0  0  0  0  0  0  0  0  0  0
   71.3666   80.0823   90.2037 C   0  0  0  0  0  0  0  0  0  0  0  0
   70.5655   81.2165   90.0345 C   0  0  0  0  0  0  0  0  0  0  0  0
   71.1809   82.4708   90.0639 O   0  0  0  0  0  0  0  0  0  0  0  0
   68.5886   83.1738   88.9265 O   0  0  0  0  0  0  0  0  0  0  0  0
   68.2884   82.2370   89.7144 C   0  0  0  0  0  0  0  0  0  0  0  0
   67.1349   82.3199   90.4840 O   0  0  0  0  0  0  0  0  0  0  0  0
 31 32  2  0
 32 33  1  0
 32 24  1  0
 24 25  2  0
 25 26  1  0
 26 23  1  0
 23 22  1  0
 22  1  1  0
  1  2  2  0
  2  3  1  0
  3  4  2  0
  4  5  1  0
  5  7  1  0
  7  8  2  0
  8  9  1  0
  9 10  2  0
 10 11  1  0
 11 13  1  0
 13 14  1  0
 14 15  1  0
 15 16  2  0
 16 17  1  0
 17 18  2  0
 18 19  1  0
 19 20  1  0
 19 21  2  0
 11 12  2  0
  5  6  2  0
 26 27  2  0
 27 28  1  0
 28 29  2  0
 29 30  1  0
 29 24  1  0
  6  1  1  0
 12  7  1  0
 21 15  1  0
M  END
>  <Activity>  (46) 
16.0

>  <minimizedAffinity>  (46) 
-9.23355

>  <MorganFP>  (46) 
<rdkit.DataStructs.cDataStructs.ExplicitBitVect object at 0x7f0ecbba4460>

$$$$
HIPS6134
     RDKit          3D

 33 36  0  0  0  0  0  0  0  0999 V2000
   69.3736   78.4872   90.2707 C   0  0  0  0  0  0  0  0  0  0  0  0
   70.7206   78.5945   89.8960 C   0  0  0  0  0  0  0  0  0  0  0  0
   71.6894   77.8104   90.5254 C   0  0  0  0  0  0  0  0  0  0  0  0
   71.3248   76.9176   91.5367 C   0  0  0  0  0  0  0  0  0  0  0  0
   69.9812   76.8041   91.9323 C   0  0  0  0  0  0  0  0  0  0  0  0
   69.0098   77.5829   91.2816 C   0  0  0  0  0  0  0  0  0  0  0  0
   69.5846   75.8705   93.0142 C   0  0  0  0  0  0  0  0  0  0  0  0
   69.1538   76.3675   94.2563 C   0  0  0  0  0  0  0  0  0  0  0  0
   68.7603   75.4899   95.2690 C   0  0  0  0  0  0  0  0  0  0  0  0
   68.7754   74.1117   95.0481 C   0  0  0  0  0  0  0  0  0  0  0  0
   69.1917   73.5947   93.8165 C   0  0  0  0  0  0  0  0  0  0  0  0
   69.6142   74.4808   92.8058 C   0  0  0  0  0  0  0  0  0  0  0  0
   69.1653   72.2019   93.6409 O   0  0  0  0  0  0  0  0  0  0  0  0
   69.1512   71.5249   92.3831 C   0  0  0  0  0  0  0  0  0  0  0  0
   70.4049   70.7126   92.1946 C   0  0  0  0  0  0  0  0  0  0  0  0
   70.4163   69.6376   91.2915 C   0  0  0  0  0  0  0  0  0  0  0  0
   71.5761   68.8766   91.1158 C   0  0  0  0  0  0  0  0  0  0  0  0
   72.7305   69.1805   91.8411 C   0  0  0  0  0  0  0  0  0  0  0  0
   72.7269   70.2452   92.7485 C   0  0  0  0  0  0  0  0  0  0  0  0
   74.1775   70.6293   93.6579 Cl  0  0  0  0  0  0  0  0  0  0  0  0
   71.5663   71.0061   92.9300 C   0  0  0  0  0  0  0  0  0  0  0  0
   68.3212   79.2945   89.5581 C   0  0  0  0  0  0  0  0  0  0  0  0
   67.1733   78.4993   89.2508 O   0  0  0  0  0  0  0  0  0  0  0  0
   66.9335   75.0968   87.7051 C   0  0  0  0  0  0  0  0  0  0  0  0
   66.9202   76.1132   88.6759 C   0  0  0  0  0  0  0  0  0  0  0  0
   67.1376   77.4563   88.3127 C   0  0  0  0  0  0  0  0  0  0  0  0
   67.3478   77.7723   86.9673 C   0  0  0  0  0  0  0  0  0  0  0  0
   67.3741   76.7677   85.9982 C   0  0  0  0  0  0  0  0  0  0  0  0
   67.1592   75.4322   86.3548 C   0  0  0  0  0  0  0  0  0  0  0  0
   67.1556   74.4698   85.3416 O   0  0  0  0  0  0  0  0  0  0  0  0
   67.0776   73.2867   89.2366 O   0  0  0  0  0  0  0  0  0  0  0  0
   66.6694   73.7096   88.1218 C   0  0  0  0  0  0  0  0  0  0  0  0
   66.0012   72.8526   87.2564 O   0  0  0  0  0  0  0  0  0  0  0  0
 31 32  2  0
 32 33  1  0
 32 24  1  0
 24 25  2  0
 25 26  1  0
 26 23  1  0
 23 22  1  0
 22  1  1  0
  1  2  2  0
  2  3  1  0
  3  4  2  0
  4  5  1  0
  5  7  1  0
  7  8  2  0
  8  9  1  0
  9 10  2  0
 10 11  1  0
 11 13  1  0
 13 14  1  0
 14 15  1  0
 15 16  2  0
 16 17  1  0
 17 18  2  0
 18 19  1  0
 19 20  1  0
 19 21  2  0
 11 12  2  0
  5  6  2  0
 26 27  2  0
 27 28  1  0
 28 29  2  0
 29 30  1  0
 29 24  1  0
  6  1  1  0
 12  7  1  0
 21 15  1  0
M  END
>  <Activity>  (47) 
16.0

>  <minimizedAffinity>  (47) 
-9.21270

>  <MorganFP>  (47) 
<rdkit.DataStructs.cDataStructs.ExplicitBitVect object at 0x7f0ecbba4400>

$$$$
HIPS6546
     RDKit          3D

 33 35  0  0  0  0  0  0  0  0999 V2000
   67.8235   76.4865   89.1139 C   0  0  0  0  0  0  0  0  0  0  0  0
   67.1722   76.1973   87.9018 C   0  0  0  0  0  0  0  0  0  0  0  0
   66.7647   77.2297   87.0539 C   0  0  0  0  0  0  0  0  0  0  0  0
   67.0041   78.5603   87.4015 C   0  0  0  0  0  0  0  0  0  0  0  0
   67.6632   78.8696   88.6006 C   0  0  0  0  0  0  0  0  0  0  0  0
   68.0574   77.8303   89.4588 C   0  0  0  0  0  0  0  0  0  0  0  0
   69.0901   73.3134   91.7266 C   0  0  0  0  0  0  0  0  0  0  0  0
   68.1681   73.0574   90.7038 C   0  0  0  0  0  0  0  0  0  0  0  0
   67.7553   74.0880   89.8545 C   0  0  0  0  0  0  0  0  0  0  0  0
   68.2602   75.3909   90.0154 C   0  0  0  0  0  0  0  0  0  0  0  0
   69.1894   75.6386   91.0421 C   0  0  0  0  0  0  0  0  0  0  0  0
   69.6024   74.6057   91.8882 C   0  0  0  0  0  0  0  0  0  0  0  0
   69.6410   72.0169   92.7860 S   0  0  0  0  0  0  0  0  0  0  0  0
   69.0379   70.7028   92.3703 O   0  0  0  0  0  0  0  0  0  0  0  0
   69.1888   72.3192   94.1867 O   0  0  0  0  0  0  0  0  0  0  0  0
   71.3326   71.9140   92.7678 O   0  0  0  0  0  0  0  0  0  0  0  0
   71.7726   71.4407   94.0211 C   0  0  0  0  0  0  0  0  0  0  0  0
   71.4035   68.9763   94.4685 C   0  0  0  0  0  0  0  0  0  0  0  0
   72.3724   70.0218   93.8795 C   0  0  0  0  0  0  0  0  0  0  0  0
   73.7249   69.9443   94.6170 C   0  0  0  0  0  0  0  0  0  0  0  0
   72.5959   69.7153   92.3854 C   0  0  0  0  0  0  0  0  0  0  0  0
   67.9097   80.3053   88.9860 C   0  0  0  0  0  0  0  0  0  0  0  0
   67.6432   81.1831   87.8910 O   0  0  0  0  0  0  0  0  0  0  0  0
   68.1961   82.4637   87.7230 C   0  0  0  0  0  0  0  0  0  0  0  0
   67.4208   83.4379   87.0911 C   0  0  0  0  0  0  0  0  0  0  0  0
   67.9111   84.7321   86.9188 C   0  0  0  0  0  0  0  0  0  0  0  0
   69.1862   85.0791   87.3766 C   0  0  0  0  0  0  0  0  0  0  0  0
   69.5821   86.4121   87.2454 O   0  0  0  0  0  0  0  0  0  0  0  0
   70.0061   84.0922   87.9793 C   0  0  0  0  0  0  0  0  0  0  0  0
   69.4919   82.7953   88.1605 C   0  0  0  0  0  0  0  0  0  0  0  0
   71.3985   84.3592   88.4028 C   0  0  0  0  0  0  0  0  0  0  0  0
   71.9269   83.6971   89.3356 O   0  0  0  0  0  0  0  0  0  0  0  0
   72.1171   85.3928   87.8076 O   0  0  0  0  0  0  0  0  0  0  0  0
 18 19  1  0
 19 20  1  0
 19 21  1  0
 19 17  1  0
 17 16  1  0
 16 13  1  0
 13 14  2  0
 13 15  2  0
 13  7  1  0
  7  8  2  0
  8  9  1  0
  9 10  2  0
 10  1  1  0
  1  2  2  0
  2  3  1  0
  3  4  2  0
  4  5  1  0
  5 22  1  0
 22 23  1  0
 23 24  1  0
 24 25  2  0
 25 26  1  0
 26 27  2  0
 27 28  1  0
 27 29  1  0
 29 31  1  0
 31 32  2  0
 31 33  1  0
 29 30  2  0
  5  6  2  0
 10 11  1  0
 11 12  2  0
 12  7  1  0
  6  1  1  0
 30 24  1  0
M  END
>  <Activity>  (48) 
17.1

>  <minimizedAffinity>  (48) 
-8.65150

>  <MorganFP>  (48) 
<rdkit.DataStructs.cDataStructs.ExplicitBitVect object at 0x7f0ecbba41c0>

$$$$
HIPS6546
     RDKit          3D

 33 35  0  0  0  0  0  0  0  0999 V2000
   67.4675   77.6813   87.8165 C   0  0  0  0  0  0  0  0  0  0  0  0
   67.2587   77.3984   86.4551 C   0  0  0  0  0  0  0  0  0  0  0  0
   67.0279   76.0873   86.0325 C   0  0  0  0  0  0  0  0  0  0  0  0
   66.9991   75.0447   86.9603 C   0  0  0  0  0  0  0  0  0  0  0  0
   67.1931   75.3075   88.3246 C   0  0  0  0  0  0  0  0  0  0  0  0
   67.4409   76.6243   88.7447 C   0  0  0  0  0  0  0  0  0  0  0  0
   68.1710   81.7167   89.1280 C   0  0  0  0  0  0  0  0  0  0  0  0
   67.3727   81.4709   88.0036 C   0  0  0  0  0  0  0  0  0  0  0  0
   67.1439   80.1599   87.5762 C   0  0  0  0  0  0  0  0  0  0  0  0
   67.7100   79.0743   88.2686 C   0  0  0  0  0  0  0  0  0  0  0  0
   68.5067   79.3296   89.3996 C   0  0  0  0  0  0  0  0  0  0  0  0
   68.7316   80.6413   89.8263 C   0  0  0  0  0  0  0  0  0  0  0  0
   68.4438   83.3632   89.6948 S   0  0  0  0  0  0  0  0  0  0  0  0
   69.2805   83.3597   90.9451 O   0  0  0  0  0  0  0  0  0  0  0  0
   67.1145   83.9833   90.0207 O   0  0  0  0  0  0  0  0  0  0  0  0
   69.1980   84.2878   88.4910 O   0  0  0  0  0  0  0  0  0  0  0  0
   70.3182   84.9359   89.0508 C   0  0  0  0  0  0  0  0  0  0  0  0
   72.5003   83.6542   89.1217 C   0  0  0  0  0  0  0  0  0  0  0  0
   71.5997   84.5683   88.2661 C   0  0  0  0  0  0  0  0  0  0  0  0
   72.3738   85.8482   87.8898 C   0  0  0  0  0  0  0  0  0  0  0  0
   71.2050   83.8216   86.9766 C   0  0  0  0  0  0  0  0  0  0  0  0
   67.1777   74.1825   89.3268 C   0  0  0  0  0  0  0  0  0  0  0  0
   68.4169   74.1084   90.0336 O   0  0  0  0  0  0  0  0  0  0  0  0
   68.5556   73.8288   91.4034 C   0  0  0  0  0  0  0  0  0  0  0  0
   69.7933   73.3714   91.8600 C   0  0  0  0  0  0  0  0  0  0  0  0
   69.9935   73.1006   93.2134 C   0  0  0  0  0  0  0  0  0  0  0  0
   68.9604   73.2835   94.1383 C   0  0  0  0  0  0  0  0  0  0  0  0
   69.2530   73.0725   95.4876 O   0  0  0  0  0  0  0  0  0  0  0  0
   67.6836   73.7030   93.6877 C   0  0  0  0  0  0  0  0  0  0  0  0
   67.5013   73.9875   92.3219 C   0  0  0  0  0  0  0  0  0  0  0  0
   66.5182   73.8280   94.5908 C   0  0  0  0  0  0  0  0  0  0  0  0
   65.5119   74.5077   94.2547 O   0  0  0  0  0  0  0  0  0  0  0  0
   66.5537   73.2391   95.8522 O   0  0  0  0  0  0  0  0  0  0  0  0
 18 19  1  0
 19 20  1  0
 19 21  1  0
 19 17  1  0
 17 16  1  0
 16 13  1  0
 13 14  2  0
 13 15  2  0
 13  7  1  0
  7  8  2  0
  8  9  1  0
  9 10  2  0
 10  1  1  0
  1  2  2  0
  2  3  1  0
  3  4  2  0
  4  5  1  0
  5 22  1  0
 22 23  1  0
 23 24  1  0
 24 25  2  0
 25 26  1  0
 26 27  2  0
 27 28  1  0
 27 29  1  0
 29 31  1  0
 31 32  2  0
 31 33  1  0
 29 30  2  0
  5  6  2  0
 10 11  1  0
 11 12  2  0
 12  7  1  0
  6  1  1  0
 30 24  1  0
M  END
>  <Activity>  (49) 
17.1

>  <minimizedAffinity>  (49) 
-8.55816

>  <MorganFP>  (49) 
<rdkit.DataStructs.cDataStructs.ExplicitBitVect object at 0x7f0ecbba4160>

$$$$
HIPS6546
     RDKit          3D

 33 35  0  0  0  0  0  0  0  0999 V2000
   67.2723   78.3481   87.8020 C   0  0  0  0  0  0  0  0  0  0  0  0
   67.1692   77.9841   86.4477 C   0  0  0  0  0  0  0  0  0  0  0  0
   67.0728   76.6395   86.0821 C   0  0  0  0  0  0  0  0  0  0  0  0
   67.0745   75.6435   87.0601 C   0  0  0  0  0  0  0  0  0  0  0  0
   67.1643   75.9864   88.4175 C   0  0  0  0  0  0  0  0  0  0  0  0
   67.2774   77.3380   88.7813 C   0  0  0  0  0  0  0  0  0  0  0  0
   67.5612   82.4876   88.9338 C   0  0  0  0  0  0  0  0  0  0  0  0
   67.5973   81.4860   89.9123 C   0  0  0  0  0  0  0  0  0  0  0  0
   67.5029   80.1404   89.5457 C   0  0  0  0  0  0  0  0  0  0  0  0
   67.3719   79.7766   88.1933 C   0  0  0  0  0  0  0  0  0  0  0  0
   67.3413   80.7884   87.2164 C   0  0  0  0  0  0  0  0  0  0  0  0
   67.4385   82.1329   87.5856 C   0  0  0  0  0  0  0  0  0  0  0  0
   67.7084   84.1864   89.3799 S   0  0  0  0  0  0  0  0  0  0  0  0
   66.8521   84.4940   90.5780 O   0  0  0  0  0  0  0  0  0  0  0  0
   67.2274   85.0261   88.2305 O   0  0  0  0  0  0  0  0  0  0  0  0
   69.3257   84.5770   89.7032 O   0  0  0  0  0  0  0  0  0  0  0  0
   69.7601   85.5309   88.7601 C   0  0  0  0  0  0  0  0  0  0  0  0
   70.3290   84.8631   86.3853 C   0  0  0  0  0  0  0  0  0  0  0  0
   70.8427   84.9214   87.8383 C   0  0  0  0  0  0  0  0  0  0  0  0
   71.2027   83.4995   88.3153 C   0  0  0  0  0  0  0  0  0  0  0  0
   72.1052   85.8043   87.8908 C   0  0  0  0  0  0  0  0  0  0  0  0
   67.1817   74.9131   89.4748 C   0  0  0  0  0  0  0  0  0  0  0  0
   68.4968   74.7354   90.0036 O   0  0  0  0  0  0  0  0  0  0  0  0
   68.8815   74.9961   91.3294 C   0  0  0  0  0  0  0  0  0  0  0  0
   68.9361   76.3264   91.7498 C   0  0  0  0  0  0  0  0  0  0  0  0
   69.2893   76.6412   93.0618 C   0  0  0  0  0  0  0  0  0  0  0  0
   69.5934   75.6319   93.9808 C   0  0  0  0  0  0  0  0  0  0  0  0
   69.8586   76.0126   95.2983 O   0  0  0  0  0  0  0  0  0  0  0  0
   69.5883   74.2780   93.5608 C   0  0  0  0  0  0  0  0  0  0  0  0
   69.2147   73.9750   92.2387 C   0  0  0  0  0  0  0  0  0  0  0  0
   69.9894   73.1640   94.4482 C   0  0  0  0  0  0  0  0  0  0  0  0
   70.9351   72.3946   94.1301 O   0  0  0  0  0  0  0  0  0  0  0  0
   69.2779   72.9223   95.6206 O   0  0  0  0  0  0  0  0  0  0  0  0
 18 19  1  0
 19 20  1  0
 19 21  1  0
 19 17  1  0
 17 16  1  0
 16 13  1  0
 13 14  2  0
 13 15  2  0
 13  7  1  0
  7  8  2  0
  8  9  1  0
  9 10  2  0
 10  1  1  0
  1  2  2  0
  2  3  1  0
  3  4  2  0
  4  5  1  0
  5 22  1  0
 22 23  1  0
 23 24  1  0
 24 25  2  0
 25 26  1  0
 26 27  2  0
 27 28  1  0
 27 29  1  0
 29 31  1  0
 31 32  2  0
 31 33  1  0
 29 30  2  0
  5  6  2  0
 10 11  1  0
 11 12  2  0
 12  7  1  0
  6  1  1  0
 30 24  1  0
M  END
>  <Activity>  (50) 
17.1

>  <minimizedAffinity>  (50) 
-8.35817

>  <MorganFP>  (50) 
<rdkit.DataStructs.cDataStructs.ExplicitBitVect object at 0x7f0ecbba40a0>

$$$$
HIPS6546
     RDKit          3D

 33 35  0  0  0  0  0  0  0  0999 V2000
   67.9190   77.3083   89.0844 C   0  0  0  0  0  0  0  0  0  0  0  0
   67.2066   77.1275   87.8857 C   0  0  0  0  0  0  0  0  0  0  0  0
   66.8337   78.2287   87.1116 C   0  0  0  0  0  0  0  0  0  0  0  0
   67.1688   79.5207   87.5202 C   0  0  0  0  0  0  0  0  0  0  0  0
   67.8897   79.7218   88.7067 C   0  0  0  0  0  0  0  0  0  0  0  0
   68.2493   78.6140   89.4913 C   0  0  0  0  0  0  0  0  0  0  0  0
   69.0795   73.9227   91.4698 C   0  0  0  0  0  0  0  0  0  0  0  0
   68.0719   73.7924   90.5056 C   0  0  0  0  0  0  0  0  0  0  0  0
   67.6935   74.8921   89.7302 C   0  0  0  0  0  0  0  0  0  0  0  0
   68.3190   76.1394   89.9075 C   0  0  0  0  0  0  0  0  0  0  0  0
   69.3333   76.2607   90.8747 C   0  0  0  0  0  0  0  0  0  0  0  0
   69.7114   75.1588   91.6467 C   0  0  0  0  0  0  0  0  0  0  0  0
   69.5862   72.5370   92.4340 S   0  0  0  0  0  0  0  0  0  0  0  0
   71.0187   72.6905   92.8674 O   0  0  0  0  0  0  0  0  0  0  0  0
   69.4817   71.3007   91.5865 O   0  0  0  0  0  0  0  0  0  0  0  0
   68.5832   72.3579   93.7884 O   0  0  0  0  0  0  0  0  0  0  0  0
   68.6754   73.5215   94.5793 C   0  0  0  0  0  0  0  0  0  0  0  0
   66.2644   73.4875   93.8078 C   0  0  0  0  0  0  0  0  0  0  0  0
   67.2815   74.1721   94.7434 C   0  0  0  0  0  0  0  0  0  0  0  0
   67.3581   75.6759   94.4095 C   0  0  0  0  0  0  0  0  0  0  0  0
   66.8151   74.0040   96.2031 C   0  0  0  0  0  0  0  0  0  0  0  0
   68.2399   81.1160   89.1584 C   0  0  0  0  0  0  0  0  0  0  0  0
   68.2053   82.0334   88.0639 O   0  0  0  0  0  0  0  0  0  0  0  0
   68.5979   83.3811   88.1207 C   0  0  0  0  0  0  0  0  0  0  0  0
   69.0880   83.9738   86.9553 C   0  0  0  0  0  0  0  0  0  0  0  0
   69.4702   85.3151   86.9490 C   0  0  0  0  0  0  0  0  0  0  0  0
   69.3684   86.0917   88.1076 C   0  0  0  0  0  0  0  0  0  0  0  0
   69.6905   87.4472   88.0103 O   0  0  0  0  0  0  0  0  0  0  0  0
   68.9167   85.4961   89.3120 C   0  0  0  0  0  0  0  0  0  0  0  0
   68.5198   84.1464   89.2991 C   0  0  0  0  0  0  0  0  0  0  0  0
   68.8713   86.2272   90.5976 C   0  0  0  0  0  0  0  0  0  0  0  0
   68.9412   87.4850   90.6269 O   0  0  0  0  0  0  0  0  0  0  0  0
   68.8111   85.5191   91.7951 O   0  0  0  0  0  0  0  0  0  0  0  0
 18 19  1  0
 19 20  1  0
 19 21  1  0
 19 17  1  0
 17 16  1  0
 16 13  1  0
 13 14  2  0
 13 15  2  0
 13  7  1  0
  7  8  2  0
  8  9  1  0
  9 10  2  0
 10  1  1  0
  1  2  2  0
  2  3  1  0
  3  4  2  0
  4  5  1  0
  5 22  1  0
 22 23  1  0
 23 24  1  0
 24 25  2  0
 25 26  1  0
 26 27  2  0
 27 28  1  0
 27 29  1  0
 29 31  1  0
 31 32  2  0
 31 33  1  0
 29 30  2  0
  5  6  2  0
 10 11  1  0
 11 12  2  0
 12  7  1  0
  6  1  1  0
 30 24  1  0
M  END
>  <Activity>  (51) 
17.1

>  <minimizedAffinity>  (51) 
-8.31157

>  <MorganFP>  (51) 
<rdkit.DataStructs.cDataStructs.ExplicitBitVect object at 0x7f0ecbba4040>

$$$$
