HIPS314
     RDKit          3D

 17 18  0  0  0  0  0  0  0  0999 V2000
    5.2181   -1.2949    0.2733 N   0  0  0  0  0  0  0  0  0  0  0  0
    3.9021   -0.8053    0.5137 C   0  0  0  0  0  0  0  0  0  0  0  0
    3.5539   -0.0921    1.5990 N   0  0  0  0  0  0  0  0  0  0  0  0
    2.2642    0.1723    1.4576 N   0  0  0  0  0  0  0  0  0  0  0  0
    1.8817   -0.3910    0.2923 C   0  0  0  0  0  0  0  0  0  0  0  0
    0.5108   -0.3355   -0.2526 C   0  0  0  0  0  0  0  0  0  0  0  0
    0.2139   -0.9552   -1.4762 C   0  0  0  0  0  0  0  0  0  0  0  0
   -1.0817   -0.9048   -1.9949 C   0  0  0  0  0  0  0  0  0  0  0  0
   -2.0928   -0.2371   -1.2999 C   0  0  0  0  0  0  0  0  0  0  0  0
   -1.8124    0.3901   -0.0707 C   0  0  0  0  0  0  0  0  0  0  0  0
   -2.7882    1.0753    0.6714 O   0  0  0  0  0  0  0  0  0  0  0  0
   -4.1553    1.2259    0.2946 C   0  0  0  0  0  0  0  0  0  0  0  0
   -4.2466    1.9023   -0.9087 F   0  0  0  0  0  0  0  0  0  0  0  0
   -4.7594   -0.0139    0.1862 F   0  0  0  0  0  0  0  0  0  0  0  0
   -4.8102    1.9566    1.2669 F   0  0  0  0  0  0  0  0  0  0  0  0
   -0.5101    0.3351    0.4429 C   0  0  0  0  0  0  0  0  0  0  0  0
    2.8891   -0.9957   -0.2940 O   0  0  0  0  0  0  0  0  0  0  0  0
  1  2  1  0
  2  3  2  0
  3  4  1  0
  4  5  2  0
  5  6  1  0
  6  7  2  0
  7  8  1  0
  8  9  2  0
  9 10  1  0
 10 11  1  0
 11 12  1  0
 12 13  1  0
 12 14  1  0
 12 15  1  0
 10 16  2  0
  5 17  1  0
 17  2  1  0
 16  6  1  0
M  END
>  <score>  (1) 
0.493686

$$$$
HIPS341
     RDKit          3D

 29 31  0  0  0  0  0  0  0  0999 V2000
   -4.0100    0.4091   -0.6092 C   0  0  0  0  0  0  0  0  0  0  0  0
   -3.4395    0.0166    0.7505 C   0  0  0  0  0  0  0  0  0  0  0  0
   -2.2330    0.7948    1.0644 N   0  0  0  0  0  0  0  0  0  0  0  0
   -2.3548    2.1045    1.7255 C   0  0  0  0  0  0  0  0  0  0  0  0
   -2.1598    3.2242    0.7347 C   0  0  0  0  0  0  0  0  0  0  0  0
   -0.8704    3.5675    0.2937 C   0  0  0  0  0  0  0  0  0  0  0  0
   -0.6926    4.5937   -0.6390 C   0  0  0  0  0  0  0  0  0  0  0  0
   -1.7988    5.2857   -1.1383 C   0  0  0  0  0  0  0  0  0  0  0  0
   -3.0846    4.9536   -0.7041 C   0  0  0  0  0  0  0  0  0  0  0  0
   -3.2665    3.9280    0.2288 C   0  0  0  0  0  0  0  0  0  0  0  0
   -0.9484    0.2944    0.6435 C   0  0  0  0  0  0  0  0  0  0  0  0
   -0.8374   -0.2401   -0.4930 O   0  0  0  0  0  0  0  0  0  0  0  0
    0.1979    0.3974    1.5070 N   0  0  0  0  0  0  0  0  0  0  0  0
    1.5106   -0.0610    1.1433 C   0  0  0  0  0  0  0  0  0  0  0  0
    1.7382   -1.2575    0.4374 C   0  0  0  0  0  0  0  0  0  0  0  0
    3.0889   -1.5486    0.2437 C   0  0  0  0  0  0  0  0  0  0  0  0
    3.6520   -2.7321   -0.4551 C   0  0  0  0  0  0  0  0  0  0  0  0
    5.0114   -3.0626   -0.3083 C   0  0  0  0  0  0  0  0  0  0  0  0
    5.5476   -4.1740   -0.9634 C   0  0  0  0  0  0  0  0  0  0  0  0
    4.7396   -4.9719   -1.7779 C   0  0  0  0  0  0  0  0  0  0  0  0
    5.4522   -6.3619   -2.5856 Cl  0  0  0  0  0  0  0  0  0  0  0  0
    3.3826   -4.6515   -1.9388 C   0  0  0  0  0  0  0  0  0  0  0  0
    2.3333   -5.6238   -2.9620 Cl  0  0  0  0  0  0  0  0  0  0  0  0
    2.8455   -3.5379   -1.2815 C   0  0  0  0  0  0  0  0  0  0  0  0
    3.9875   -0.3238    0.9736 S   0  0  0  0  0  0  0  0  0  0  0  0
    2.6893    0.5852    1.5331 C   0  0  0  0  0  0  0  0  0  0  0  0
    2.8351    1.8520    2.2712 C   0  0  0  0  0  0  0  0  0  0  0  0
    1.8273    2.5362    2.5901 O   0  0  0  0  0  0  0  0  0  0  0  0
    4.1060    2.3056    2.6109 O   0  0  0  0  0  0  0  0  0  0  0  0
  1  2  1  0
  2  3  1  0
  3  4  1  0
  4  5  1  0
  5  6  2  0
  6  7  1  0
  7  8  2  0
  8  9  1  0
  9 10  2  0
  3 11  1  0
 11 12  2  0
 11 13  1  0
 13 14  1  0
 14 15  1  0
 15 16  2  0
 16 17  1  0
 17 18  2  0
 18 19  1  0
 19 20  2  0
 20 21  1  0
 20 22  1  0
 22 23  1  0
 22 24  2  0
 16 25  1  0
 25 26  1  0
 26 27  1  0
 27 28  2  0
 27 29  1  0
 10  5  1  0
 26 14  2  0
 24 17  1  0
M  END
>  <score>  (2) 
-0.265965

$$$$
HIPS342
     RDKit          3D

 26 27  0  0  0  0  0  0  0  0999 V2000
    2.8362    1.0330   -2.1103 C   0  0  0  0  0  0  0  0  0  0  0  0
    2.7068    2.4161   -1.4786 C   0  0  0  0  0  0  0  0  0  0  0  0
    2.7424    2.3274    0.0536 C   0  0  0  0  0  0  0  0  0  0  0  0
    2.6941    3.7029    0.7406 C   0  0  0  0  0  0  0  0  0  0  0  0
    1.4211    4.5312    0.4766 C   0  0  0  0  0  0  0  0  0  0  0  0
    0.1249    3.8631    0.9668 C   0  0  0  0  0  0  0  0  0  0  0  0
   -0.4409    3.0000   -0.0711 N   0  0  0  0  0  0  0  0  0  0  0  0
   -0.7612    1.6188    0.1405 C   0  0  0  0  0  0  0  0  0  0  0  0
   -0.6842    1.1176    1.2956 O   0  0  0  0  0  0  0  0  0  0  0  0
   -1.1747    0.8103   -0.9687 N   0  0  0  0  0  0  0  0  0  0  0  0
   -1.0899   -0.6231   -0.9655 C   0  0  0  0  0  0  0  0  0  0  0  0
   -0.0548   -1.3229   -0.3184 C   0  0  0  0  0  0  0  0  0  0  0  0
   -0.0969   -2.7031   -0.5187 C   0  0  0  0  0  0  0  0  0  0  0  0
    0.8590   -3.7089    0.0127 C   0  0  0  0  0  0  0  0  0  0  0  0
    0.8552   -5.0244   -0.4862 C   0  0  0  0  0  0  0  0  0  0  0  0
    1.7526   -5.9747    0.0069 C   0  0  0  0  0  0  0  0  0  0  0  0
    2.6667   -5.6316    1.0065 C   0  0  0  0  0  0  0  0  0  0  0  0
    3.7802   -6.8562    1.6003 Cl  0  0  0  0  0  0  0  0  0  0  0  0
    2.6797   -4.3247    1.5181 C   0  0  0  0  0  0  0  0  0  0  0  0
    3.8088   -3.8533    2.7815 Cl  0  0  0  0  0  0  0  0  0  0  0  0
    1.7801   -3.3725    1.0237 C   0  0  0  0  0  0  0  0  0  0  0  0
   -1.4189   -3.0354   -1.5113 S   0  0  0  0  0  0  0  0  0  0  0  0
   -1.9503   -1.4503   -1.6927 C   0  0  0  0  0  0  0  0  0  0  0  0
   -3.1481   -1.0613   -2.4563 C   0  0  0  0  0  0  0  0  0  0  0  0
   -3.7446   -1.9184   -3.1615 O   0  0  0  0  0  0  0  0  0  0  0  0
   -3.6456    0.2361   -2.3895 O   0  0  0  0  0  0  0  0  0  0  0  0
  1  2  1  0
  2  3  1  0
  3  4  1  0
  4  5  1  0
  5  6  1  0
  6  7  1  0
  7  8  1  0
  8  9  2  0
  8 10  1  0
 10 11  1  0
 11 12  1  0
 12 13  2  0
 13 14  1  0
 14 15  2  0
 15 16  1  0
 16 17  2  0
 17 18  1  0
 17 19  1  0
 19 20  1  0
 19 21  2  0
 13 22  1  0
 22 23  1  0
 23 24  1  0
 24 25  2  0
 24 26  1  0
 23 11  2  0
 21 14  1  0
M  END
>  <score>  (3) 
-0.371074

$$$$
HIPS343
     RDKit          3D

 27 29  0  0  0  0  0  0  0  0999 V2000
   -1.3438   -1.0920   -0.0573 O   0  0  0  0  0  0  0  0  0  0  0  0
   -0.3410   -1.8023   -0.3420 C   0  0  0  0  0  0  0  0  0  0  0  0
   -0.4700   -2.8863   -1.2716 N   0  0  0  0  0  0  0  0  0  0  0  0
   -1.7420   -3.2361   -1.8998 C   0  0  0  0  0  0  0  0  0  0  0  0
   -2.6525   -3.8965   -0.9006 C   0  0  0  0  0  0  0  0  0  0  0  0
   -3.7756   -3.2183   -0.3975 C   0  0  0  0  0  0  0  0  0  0  0  0
   -4.6039   -3.8326    0.5471 C   0  0  0  0  0  0  0  0  0  0  0  0
   -4.3155   -5.1238    0.9978 C   0  0  0  0  0  0  0  0  0  0  0  0
   -3.1973   -5.8026    0.5057 C   0  0  0  0  0  0  0  0  0  0  0  0
   -2.3664   -5.1919   -0.4388 C   0  0  0  0  0  0  0  0  0  0  0  0
    0.9254   -1.5515    0.2840 N   0  0  0  0  0  0  0  0  0  0  0  0
    1.1955   -0.3885    1.0830 C   0  0  0  0  0  0  0  0  0  0  0  0
    0.7066    0.8911    0.7603 C   0  0  0  0  0  0  0  0  0  0  0  0
    1.1415    1.8953    1.6273 C   0  0  0  0  0  0  0  0  0  0  0  0
    0.8078    3.3422    1.5582 C   0  0  0  0  0  0  0  0  0  0  0  0
    1.1223    4.1937    2.6334 C   0  0  0  0  0  0  0  0  0  0  0  0
    0.8116    5.5546    2.5781 C   0  0  0  0  0  0  0  0  0  0  0  0
    0.1848    6.0910    1.4505 C   0  0  0  0  0  0  0  0  0  0  0  0
   -0.1896    7.8089    1.4194 Cl  0  0  0  0  0  0  0  0  0  0  0  0
   -0.1321    5.2559    0.3680 C   0  0  0  0  0  0  0  0  0  0  0  0
   -0.9150    5.8920   -1.0728 Cl  0  0  0  0  0  0  0  0  0  0  0  0
    0.1790    3.8918    0.4238 C   0  0  0  0  0  0  0  0  0  0  0  0
    2.1376    1.1762    2.7824 S   0  0  0  0  0  0  0  0  0  0  0  0
    2.0331   -0.3976    2.2029 C   0  0  0  0  0  0  0  0  0  0  0  0
    2.6856   -1.5528    2.8424 C   0  0  0  0  0  0  0  0  0  0  0  0
    2.4375   -2.7277    2.4624 O   0  0  0  0  0  0  0  0  0  0  0  0
    3.5715   -1.3452    3.8952 O   0  0  0  0  0  0  0  0  0  0  0  0
  1  2  2  0
  2  3  1  0
  3  4  1  0
  4  5  1  0
  5  6  2  0
  6  7  1  0
  7  8  2  0
  8  9  1  0
  9 10  2  0
  2 11  1  0
 11 12  1  0
 12 13  1  0
 13 14  2  0
 14 15  1  0
 15 16  2  0
 16 17  1  0
 17 18  2  0
 18 19  1  0
 18 20  1  0
 20 21  1  0
 20 22  2  0
 14 23  1  0
 23 24  1  0
 24 25  1  0
 25 26  2  0
 25 27  1  0
 10  5  1  0
 24 12  2  0
 22 15  1  0
M  END
>  <score>  (4) 
-0.357913

$$$$
HIPS345
     RDKit          3D

 28 30  0  0  0  0  0  0  0  0999 V2000
    3.8369    1.9359   -3.0507 C   0  0  0  0  0  0  0  0  0  0  0  0
    2.4294    2.0239   -2.6517 N   0  0  0  0  0  0  0  0  0  0  0  0
    1.9397    3.2081   -1.9235 C   0  0  0  0  0  0  0  0  0  0  0  0
    1.4542    2.8195   -0.5472 C   0  0  0  0  0  0  0  0  0  0  0  0
    0.1258    3.0663   -0.1566 C   0  0  0  0  0  0  0  0  0  0  0  0
   -0.3403    2.6274    1.0922 C   0  0  0  0  0  0  0  0  0  0  0  0
    0.5168    1.9538    1.9609 C   0  0  0  0  0  0  0  0  0  0  0  0
    1.8493    1.7320    1.5974 C   0  0  0  0  0  0  0  0  0  0  0  0
    2.3214    2.1711    0.3541 C   0  0  0  0  0  0  0  0  0  0  0  0
    1.5601    0.8954   -2.8864 C   0  0  0  0  0  0  0  0  0  0  0  0
    2.0519   -0.2391   -3.1408 O   0  0  0  0  0  0  0  0  0  0  0  0
    0.1393    1.0345   -2.7862 N   0  0  0  0  0  0  0  0  0  0  0  0
   -0.6403    0.2035   -1.9177 C   0  0  0  0  0  0  0  0  0  0  0  0
   -0.0994   -0.4047   -0.7654 C   0  0  0  0  0  0  0  0  0  0  0  0
   -1.0443   -1.0354    0.0412 C   0  0  0  0  0  0  0  0  0  0  0  0
   -0.7884   -1.7380    1.3268 C   0  0  0  0  0  0  0  0  0  0  0  0
   -1.8604   -2.1294    2.1467 C   0  0  0  0  0  0  0  0  0  0  0  0
   -1.6284   -2.8221    3.3406 C   0  0  0  0  0  0  0  0  0  0  0  0
   -0.3245   -3.1339    3.7363 C   0  0  0  0  0  0  0  0  0  0  0  0
   -0.0752   -4.0285    5.2331 Cl  0  0  0  0  0  0  0  0  0  0  0  0
    0.7563   -2.7381    2.9362 C   0  0  0  0  0  0  0  0  0  0  0  0
    2.4142   -3.1105    3.3910 Cl  0  0  0  0  0  0  0  0  0  0  0  0
    0.5232   -2.0433    1.7423 C   0  0  0  0  0  0  0  0  0  0  0  0
   -2.5502   -0.8426   -0.6922 S   0  0  0  0  0  0  0  0  0  0  0  0
   -2.0259    0.0421   -2.0241 C   0  0  0  0  0  0  0  0  0  0  0  0
   -2.9097    0.5022   -3.1103 C   0  0  0  0  0  0  0  0  0  0  0  0
   -2.4378    1.0629   -4.1368 O   0  0  0  0  0  0  0  0  0  0  0  0
   -4.2809    0.2934   -3.0160 O   0  0  0  0  0  0  0  0  0  0  0  0
  1  2  1  0
  2  3  1  0
  3  4  1  0
  4  5  2  0
  5  6  1  0
  6  7  2  0
  7  8  1  0
  8  9  2  0
  2 10  1  0
 10 11  2  0
 10 12  1  0
 12 13  1  0
 13 14  1  0
 14 15  2  0
 15 16  1  0
 16 17  2  0
 17 18  1  0
 18 19  2  0
 19 20  1  0
 19 21  1  0
 21 22  1  0
 21 23  2  0
 15 24  1  0
 24 25  1  0
 25 26  1  0
 26 27  2  0
 26 28  1  0
  9  4  1  0
 25 13  2  0
 23 16  1  0
M  END
>  <score>  (5) 
-0.550434

$$$$
HIPS346
     RDKit          3D

 29 31  0  0  0  0  0  0  0  0999 V2000
    3.3563   -1.3476    2.9194 C   0  0  0  0  0  0  0  0  0  0  0  0
    2.0439   -1.8949    2.9935 O   0  0  0  0  0  0  0  0  0  0  0  0
    1.3660   -2.4747    1.9109 C   0  0  0  0  0  0  0  0  0  0  0  0
    1.9458   -2.5939    0.6335 C   0  0  0  0  0  0  0  0  0  0  0  0
    1.2240   -3.1674   -0.4174 C   0  0  0  0  0  0  0  0  0  0  0  0
   -0.0848   -3.6302   -0.2101 C   0  0  0  0  0  0  0  0  0  0  0  0
   -0.8990   -4.1659   -1.3583 C   0  0  0  0  0  0  0  0  0  0  0  0
   -1.8984   -3.1801   -1.7653 N   0  0  0  0  0  0  0  0  0  0  0  0
   -1.5318   -1.9094   -2.3173 C   0  0  0  0  0  0  0  0  0  0  0  0
   -0.3572   -1.7163   -2.7350 O   0  0  0  0  0  0  0  0  0  0  0  0
   -2.4995   -0.8554   -2.3878 N   0  0  0  0  0  0  0  0  0  0  0  0
   -2.1269    0.5309   -2.3404 C   0  0  0  0  0  0  0  0  0  0  0  0
   -1.0165    0.9925   -1.6097 C   0  0  0  0  0  0  0  0  0  0  0  0
   -0.8680    2.3795   -1.6240 C   0  0  0  0  0  0  0  0  0  0  0  0
    0.1896    3.1675   -0.9383 C   0  0  0  0  0  0  0  0  0  0  0  0
    0.0835    4.5673   -0.8446 C   0  0  0  0  0  0  0  0  0  0  0  0
    1.0711    5.3139   -0.1973 C   0  0  0  0  0  0  0  0  0  0  0  0
    2.1816    4.6795    0.3657 C   0  0  0  0  0  0  0  0  0  0  0  0
    3.4021    5.6543    1.1732 Cl  0  0  0  0  0  0  0  0  0  0  0  0
    2.3046    3.2843    0.2766 C   0  0  0  0  0  0  0  0  0  0  0  0
    3.6884    2.4463    0.9668 Cl  0  0  0  0  0  0  0  0  0  0  0  0
    1.3154    2.5365   -0.3730 C   0  0  0  0  0  0  0  0  0  0  0  0
   -2.1336    3.0175   -2.5387 S   0  0  0  0  0  0  0  0  0  0  0  0
   -2.8732    1.5578   -2.9260 C   0  0  0  0  0  0  0  0  0  0  0  0
   -4.0703    1.4412   -3.7754 C   0  0  0  0  0  0  0  0  0  0  0  0
   -4.4915    0.3138   -4.1469 O   0  0  0  0  0  0  0  0  0  0  0  0
   -4.7336    2.5922   -4.1899 O   0  0  0  0  0  0  0  0  0  0  0  0
   -0.6602   -3.5139    1.0639 C   0  0  0  0  0  0  0  0  0  0  0  0
    0.0635   -2.9447    2.1156 C   0  0  0  0  0  0  0  0  0  0  0  0
  1  2  1  0
  2  3  1  0
  3  4  2  0
  4  5  1  0
  5  6  2  0
  6  7  1  0
  7  8  1  0
  8  9  1  0
  9 10  2  0
  9 11  1  0
 11 12  1  0
 12 13  1  0
 13 14  2  0
 14 15  1  0
 15 16  2  0
 16 17  1  0
 17 18  2  0
 18 19  1  0
 18 20  1  0
 20 21  1  0
 20 22  2  0
 14 23  1  0
 23 24  1  0
 24 25  1  0
 25 26  2  0
 25 27  1  0
  6 28  1  0
 28 29  2  0
 29  3  1  0
 24 12  2  0
 22 15  1  0
M  END
>  <score>  (6) 
-0.461449

$$$$
HIPS347
     RDKit          3D

 26 27  0  0  0  0  0  0  0  0999 V2000
    3.4540   -0.4987    2.3858 O   0  0  0  0  0  0  0  0  0  0  0  0
    3.0204    0.5588    1.8549 C   0  0  0  0  0  0  0  0  0  0  0  0
    1.6496    0.7618    1.7309 O   0  0  0  0  0  0  0  0  0  0  0  0
    3.9774    1.6039    1.3679 C   0  0  0  0  0  0  0  0  0  0  0  0
    4.8820    1.0914    0.2352 C   0  0  0  0  0  0  0  0  0  0  0  0
    4.1487    0.9391   -1.1050 C   0  0  0  0  0  0  0  0  0  0  0  0
    3.2376   -0.2053   -1.0764 N   0  0  0  0  0  0  0  0  0  0  0  0
    1.8303   -0.0964   -1.3319 C   0  0  0  0  0  0  0  0  0  0  0  0
    1.3285    1.0134   -1.6598 O   0  0  0  0  0  0  0  0  0  0  0  0
    1.0008   -1.2626   -1.2324 N   0  0  0  0  0  0  0  0  0  0  0  0
   -0.4348   -1.2108   -1.2028 C   0  0  0  0  0  0  0  0  0  0  0  0
   -1.1494   -0.1860   -0.5551 C   0  0  0  0  0  0  0  0  0  0  0  0
   -2.5328   -0.3674   -0.5711 C   0  0  0  0  0  0  0  0  0  0  0  0
   -3.5542    0.5275    0.0314 C   0  0  0  0  0  0  0  0  0  0  0  0
   -3.2224    1.8315    0.4449 C   0  0  0  0  0  0  0  0  0  0  0  0
   -4.1909    2.6653    1.0095 C   0  0  0  0  0  0  0  0  0  0  0  0
   -5.5044    2.2162    1.1699 C   0  0  0  0  0  0  0  0  0  0  0  0
   -6.6935    3.2966    1.8848 Cl  0  0  0  0  0  0  0  0  0  0  0  0
   -5.8512    0.9200    0.7584 C   0  0  0  0  0  0  0  0  0  0  0  0
   -7.4926    0.3155    0.9414 Cl  0  0  0  0  0  0  0  0  0  0  0  0
   -4.8807    0.0849    0.1921 C   0  0  0  0  0  0  0  0  0  0  0  0
   -2.8506   -1.8116   -1.3808 S   0  0  0  0  0  0  0  0  0  0  0  0
   -1.2558   -2.2172   -1.7221 C   0  0  0  0  0  0  0  0  0  0  0  0
   -0.8583   -3.4137   -2.4835 C   0  0  0  0  0  0  0  0  0  0  0  0
    0.3348   -3.5791   -2.8514 O   0  0  0  0  0  0  0  0  0  0  0  0
   -1.8179   -4.3633   -2.8206 O   0  0  0  0  0  0  0  0  0  0  0  0
  1  2  2  0
  2  3  1  0
  2  4  1  0
  4  5  1  0
  5  6  1  0
  6  7  1  0
  7  8  1  0
  8  9  2  0
  8 10  1  0
 10 11  1  0
 11 12  1  0
 12 13  2  0
 13 14  1  0
 14 15  2  0
 15 16  1  0
 16 17  2  0
 17 18  1  0
 17 19  1  0
 19 20  1  0
 19 21  2  0
 13 22  1  0
 22 23  1  0
 23 24  1  0
 24 25  2  0
 24 26  1  0
 23 11  2  0
 21 14  1  0
M  END
>  <score>  (7) 
0.284964

$$$$
HIPS352
     RDKit          3D

 24 25  0  0  0  0  0  0  0  0999 V2000
   -5.6992    2.9771    1.0804 C   0  0  0  0  0  0  0  0  0  0  0  0
   -4.4645    2.0867    0.9764 C   0  0  0  0  0  0  0  0  0  0  0  0
   -4.7880    0.7732    0.2551 C   0  0  0  0  0  0  0  0  0  0  0  0
   -3.5449   -0.1181    0.1530 C   0  0  0  0  0  0  0  0  0  0  0  0
   -3.8652   -1.4285   -0.5792 C   0  0  0  0  0  0  0  0  0  0  0  0
   -2.6588   -2.3724   -0.6263 C   0  0  0  0  0  0  0  0  0  0  0  0
   -1.5915   -1.8121   -1.4552 N   0  0  0  0  0  0  0  0  0  0  0  0
   -0.4239   -1.1844   -0.9068 C   0  0  0  0  0  0  0  0  0  0  0  0
   -0.2450   -1.1601    0.3417 O   0  0  0  0  0  0  0  0  0  0  0  0
    0.5181   -0.5513   -1.7843 N   0  0  0  0  0  0  0  0  0  0  0  0
    1.7845   -0.0374   -1.3435 C   0  0  0  0  0  0  0  0  0  0  0  0
    2.5955   -0.7051   -0.4074 C   0  0  0  0  0  0  0  0  0  0  0  0
    3.8201   -0.0764   -0.1730 C   0  0  0  0  0  0  0  0  0  0  0  0
    4.8949   -0.5271    0.7501 C   0  0  0  0  0  0  0  0  0  0  0  0
    5.9892    0.3151    1.0304 C   0  0  0  0  0  0  0  0  0  0  0  0
    7.0038   -0.1008    1.8978 C   0  0  0  0  0  0  0  0  0  0  0  0
    6.9427   -1.3605    2.4951 C   0  0  0  0  0  0  0  0  0  0  0  0
    5.8669   -2.2078    2.2255 C   0  0  0  0  0  0  0  0  0  0  0  0
    4.8486   -1.7977    1.3593 C   0  0  0  0  0  0  0  0  0  0  0  0
    3.8791    1.3021   -1.1429 S   0  0  0  0  0  0  0  0  0  0  0  0
    2.3715    1.1192   -1.8641 C   0  0  0  0  0  0  0  0  0  0  0  0
    1.7915    2.0756   -2.8225 C   0  0  0  0  0  0  0  0  0  0  0  0
    2.5039    3.0070   -3.2835 O   0  0  0  0  0  0  0  0  0  0  0  0
    0.4579    1.9797   -3.2066 O   0  0  0  0  0  0  0  0  0  0  0  0
  1  2  1  0
  2  3  1  0
  3  4  1  0
  4  5  1  0
  5  6  1  0
  6  7  1  0
  7  8  1  0
  8  9  2  0
  8 10  1  0
 10 11  1  0
 11 12  1  0
 12 13  2  0
 13 14  1  0
 14 15  2  0
 15 16  1  0
 16 17  2  0
 17 18  1  0
 18 19  2  0
 13 20  1  0
 20 21  1  0
 21 22  1  0
 22 23  2  0
 22 24  1  0
 21 11  2  0
 19 14  1  0
M  END
>  <score>  (8) 
0.247927

$$$$
HIPS356
     RDKit          3D

 25 26  0  0  0  0  0  0  0  0999 V2000
    4.9854    3.9347    1.5592 C   0  0  0  0  0  0  0  0  0  0  0  0
    4.3426    3.1202    0.4404 C   0  0  0  0  0  0  0  0  0  0  0  0
    5.1002    1.8067    0.2063 C   0  0  0  0  0  0  0  0  0  0  0  0
    4.3747    0.8614   -0.7658 C   0  0  0  0  0  0  0  0  0  0  0  0
    4.3135    1.3879   -2.2165 C   0  0  0  0  0  0  0  0  0  0  0  0
    2.9610    2.0182   -2.5774 C   0  0  0  0  0  0  0  0  0  0  0  0
    1.9074    1.0030   -2.6076 N   0  0  0  0  0  0  0  0  0  0  0  0
    0.8391    0.9514   -1.6517 C   0  0  0  0  0  0  0  0  0  0  0  0
    0.7582    1.8209   -0.7409 O   0  0  0  0  0  0  0  0  0  0  0  0
   -0.1240   -0.1088   -1.7217 N   0  0  0  0  0  0  0  0  0  0  0  0
   -1.2109   -0.2221   -0.7946 C   0  0  0  0  0  0  0  0  0  0  0  0
   -1.3866   -1.3662   -0.0026 C   0  0  0  0  0  0  0  0  0  0  0  0
   -2.4756   -1.2841    0.8671 C   0  0  0  0  0  0  0  0  0  0  0  0
   -2.9183   -2.3145    1.8419 C   0  0  0  0  0  0  0  0  0  0  0  0
   -3.8765   -1.9973    2.8241 C   0  0  0  0  0  0  0  0  0  0  0  0
   -4.2974   -2.9615    3.7445 C   0  0  0  0  0  0  0  0  0  0  0  0
   -3.7719   -4.2534    3.6970 C   0  0  0  0  0  0  0  0  0  0  0  0
   -2.8237   -4.5858    2.7265 C   0  0  0  0  0  0  0  0  0  0  0  0
   -2.1693   -6.2124    2.6634 Cl  0  0  0  0  0  0  0  0  0  0  0  0
   -2.3984   -3.6239    1.8028 C   0  0  0  0  0  0  0  0  0  0  0  0
   -3.2167    0.2115    0.6189 S   0  0  0  0  0  0  0  0  0  0  0  0
   -2.1775    0.7660   -0.5798 C   0  0  0  0  0  0  0  0  0  0  0  0
   -2.3662    2.0289   -1.3122 C   0  0  0  0  0  0  0  0  0  0  0  0
   -1.7178    2.2655   -2.3659 O   0  0  0  0  0  0  0  0  0  0  0  0
   -3.2944    2.9583   -0.8532 O   0  0  0  0  0  0  0  0  0  0  0  0
  1  2  1  0
  2  3  1  0
  3  4  1  0
  4  5  1  0
  5  6  1  0
  6  7  1  0
  7  8  1  0
  8  9  2  0
  8 10  1  0
 10 11  1  0
 11 12  1  0
 12 13  2  0
 13 14  1  0
 14 15  2  0
 15 16  1  0
 16 17  2  0
 17 18  1  0
 18 19  1  0
 18 20  2  0
 13 21  1  0
 21 22  1  0
 22 23  1  0
 23 24  2  0
 23 25  1  0
 22 11  2  0
 20 14  1  0
M  END
>  <score>  (9) 
-0.014699

$$$$
HIPS363
     RDKit          3D

 20 21  0  0  0  0  0  0  0  0999 V2000
    2.0683    4.3310    4.3248 N   0  0  0  0  0  0  0  0  0  0  0  0
    1.2515    3.3073    3.7592 C   0  0  0  0  0  0  0  0  0  0  0  0
    0.3603    2.7624    4.4652 O   0  0  0  0  0  0  0  0  0  0  0  0
    1.4597    2.8928    2.4023 N   0  0  0  0  0  0  0  0  0  0  0  0
    0.6751    1.8658    1.7832 C   0  0  0  0  0  0  0  0  0  0  0  0
    1.2654    0.7144    1.2414 C   0  0  0  0  0  0  0  0  0  0  0  0
    0.3451   -0.1904    0.7087 C   0  0  0  0  0  0  0  0  0  0  0  0
    0.6465   -1.5011    0.0765 C   0  0  0  0  0  0  0  0  0  0  0  0
    1.9241   -2.0824    0.1834 C   0  0  0  0  0  0  0  0  0  0  0  0
    2.1957   -3.3158   -0.4142 C   0  0  0  0  0  0  0  0  0  0  0  0
    1.2009   -3.9912   -1.1260 C   0  0  0  0  0  0  0  0  0  0  0  0
    1.5831   -5.5414   -1.8631 Cl  0  0  0  0  0  0  0  0  0  0  0  0
   -0.0788   -3.4261   -1.2385 C   0  0  0  0  0  0  0  0  0  0  0  0
   -1.3597   -4.2427   -2.1249 Cl  0  0  0  0  0  0  0  0  0  0  0  0
   -0.3508   -2.1905   -0.6392 C   0  0  0  0  0  0  0  0  0  0  0  0
   -1.1939    0.4752    0.8981 S   0  0  0  0  0  0  0  0  0  0  0  0
   -0.7171    1.8983    1.6561 C   0  0  0  0  0  0  0  0  0  0  0  0
   -1.6318    3.0008    1.9954 C   0  0  0  0  0  0  0  0  0  0  0  0
   -2.8771    2.8108    1.9690 O   0  0  0  0  0  0  0  0  0  0  0  0
   -1.1370    4.2618    2.3121 O   0  0  0  0  0  0  0  0  0  0  0  0
  1  2  1  0
  2  3  2  0
  2  4  1  0
  4  5  1  0
  5  6  1  0
  6  7  2  0
  7  8  1  0
  8  9  2  0
  9 10  1  0
 10 11  2  0
 11 12  1  0
 11 13  1  0
 13 14  1  0
 13 15  2  0
  7 16  1  0
 16 17  1  0
 17 18  1  0
 18 19  2  0
 18 20  1  0
 17  5  2  0
 15  8  1  0
M  END
>  <score>  (10) 
0.089678

$$$$
HIPS365
     RDKit          3D

 24 25  0  0  0  0  0  0  0  0999 V2000
    3.6825    1.4107    1.0149 C   0  0  0  0  0  0  0  0  0  0  0  0
    4.2929    0.4515    2.0364 C   0  0  0  0  0  0  0  0  0  0  0  0
    4.5237   -0.9634    1.4771 C   0  0  0  0  0  0  0  0  0  0  0  0
    3.2263   -1.7575    1.2624 C   0  0  0  0  0  0  0  0  0  0  0  0
    2.5378   -1.3272    0.0452 N   0  0  0  0  0  0  0  0  0  0  0  0
    1.1085   -1.2976   -0.0651 C   0  0  0  0  0  0  0  0  0  0  0  0
    0.3900   -1.6215    0.9204 O   0  0  0  0  0  0  0  0  0  0  0  0
    0.5015   -0.9141   -1.3071 N   0  0  0  0  0  0  0  0  0  0  0  0
   -0.9016   -0.6418   -1.4495 C   0  0  0  0  0  0  0  0  0  0  0  0
   -1.6549    0.0200   -0.4627 C   0  0  0  0  0  0  0  0  0  0  0  0
   -2.9787    0.2624   -0.8324 C   0  0  0  0  0  0  0  0  0  0  0  0
   -4.0209    0.9418   -0.0196 C   0  0  0  0  0  0  0  0  0  0  0  0
   -3.8245    1.1897    1.3518 C   0  0  0  0  0  0  0  0  0  0  0  0
   -4.8112    1.8290    2.1065 C   0  0  0  0  0  0  0  0  0  0  0  0
   -6.0094    2.2297    1.5100 C   0  0  0  0  0  0  0  0  0  0  0  0
   -7.2255    3.0318    2.4948 Cl  0  0  0  0  0  0  0  0  0  0  0  0
   -6.2216    1.9854    0.1447 C   0  0  0  0  0  0  0  0  0  0  0  0
   -7.7137    2.4745   -0.6455 Cl  0  0  0  0  0  0  0  0  0  0  0  0
   -5.2329    1.3446   -0.6111 C   0  0  0  0  0  0  0  0  0  0  0  0
   -3.1920   -0.3405   -2.3926 S   0  0  0  0  0  0  0  0  0  0  0  0
   -1.6272   -0.9147   -2.6130 C   0  0  0  0  0  0  0  0  0  0  0  0
   -1.1686   -1.6224   -3.8207 C   0  0  0  0  0  0  0  0  0  0  0  0
   -1.9122   -1.6695   -4.8368 O   0  0  0  0  0  0  0  0  0  0  0  0
    0.0662   -2.2624   -3.8462 O   0  0  0  0  0  0  0  0  0  0  0  0
  1  2  1  0
  2  3  1  0
  3  4  1  0
  4  5  1  0
  5  6  1  0
  6  7  2  0
  6  8  1  0
  8  9  1  0
  9 10  1  0
 10 11  2  0
 11 12  1  0
 12 13  2  0
 13 14  1  0
 14 15  2  0
 15 16  1  0
 15 17  1  0
 17 18  1  0
 17 19  2  0
 11 20  1  0
 20 21  1  0
 21 22  1  0
 22 23  2  0
 22 24  1  0
 21  9  2  0
 19 12  1  0
M  END
>  <score>  (11) 
-0.38507

$$$$
HIPS380
     RDKit          3D

 26 28  0  0  0  0  0  0  0  0999 V2000
    0.7946    0.0638    1.2908 O   0  0  0  0  0  0  0  0  0  0  0  0
    1.6835   -0.1686    0.4266 C   0  0  0  0  0  0  0  0  0  0  0  0
    3.0229    0.3110    0.6197 N   0  0  0  0  0  0  0  0  0  0  0  0
    3.3941    1.2949    1.6006 C   0  0  0  0  0  0  0  0  0  0  0  0
    2.5306    2.3521    1.9451 C   0  0  0  0  0  0  0  0  0  0  0  0
    2.9275    3.3088    2.8849 C   0  0  0  0  0  0  0  0  0  0  0  0
    4.1900    3.2278    3.4778 C   0  0  0  0  0  0  0  0  0  0  0  0
    5.0618    2.1947    3.1252 C   0  0  0  0  0  0  0  0  0  0  0  0
    4.6693    1.2366    2.1853 C   0  0  0  0  0  0  0  0  0  0  0  0
    1.3801   -0.9774   -0.7192 N   0  0  0  0  0  0  0  0  0  0  0  0
    0.0422   -1.3357   -1.1011 C   0  0  0  0  0  0  0  0  0  0  0  0
   -1.0496   -0.4562   -0.9776 C   0  0  0  0  0  0  0  0  0  0  0  0
   -2.2487   -0.9741   -1.4707 C   0  0  0  0  0  0  0  0  0  0  0  0
   -3.5729   -0.2990   -1.4901 C   0  0  0  0  0  0  0  0  0  0  0  0
   -4.7358   -1.0292   -1.7975 C   0  0  0  0  0  0  0  0  0  0  0  0
   -5.9847   -0.4037   -1.8172 C   0  0  0  0  0  0  0  0  0  0  0  0
   -6.0967    0.9597   -1.5332 C   0  0  0  0  0  0  0  0  0  0  0  0
   -7.6866    1.7101   -1.5683 Cl  0  0  0  0  0  0  0  0  0  0  0  0
   -4.9460    1.7031   -1.2284 C   0  0  0  0  0  0  0  0  0  0  0  0
   -5.0421    3.4227   -0.8717 Cl  0  0  0  0  0  0  0  0  0  0  0  0
   -3.6943    1.0759   -1.2084 C   0  0  0  0  0  0  0  0  0  0  0  0
   -1.9315   -2.5209   -2.0626 S   0  0  0  0  0  0  0  0  0  0  0  0
   -0.2894   -2.5516   -1.7075 C   0  0  0  0  0  0  0  0  0  0  0  0
    0.5838   -3.7100   -1.9622 C   0  0  0  0  0  0  0  0  0  0  0  0
    1.7651   -3.7376   -1.5262 O   0  0  0  0  0  0  0  0  0  0  0  0
    0.0905   -4.7982   -2.6755 O   0  0  0  0  0  0  0  0  0  0  0  0
  1  2  2  0
  2  3  1  0
  3  4  1  0
  4  5  2  0
  5  6  1  0
  6  7  2  0
  7  8  1  0
  8  9  2  0
  2 10  1  0
 10 11  1  0
 11 12  1  0
 12 13  2  0
 13 14  1  0
 14 15  2  0
 15 16  1  0
 16 17  2  0
 17 18  1  0
 17 19  1  0
 19 20  1  0
 19 21  2  0
 13 22  1  0
 22 23  1  0
 23 24  1  0
 24 25  2  0
 24 26  1  0
  9  4  1  0
 23 11  2  0
 21 14  1  0
M  END
>  <score>  (12) 
-0.544894

$$$$
HIPS382
     RDKit          3D

 26 27  0  0  0  0  0  0  0  0999 V2000
   -4.3252   -1.2441   -1.1235 C   0  0  0  0  0  0  0  0  0  0  0  0
   -3.3183   -1.5940   -2.2157 C   0  0  0  0  0  0  0  0  0  0  0  0
   -1.8878   -1.2536   -1.7757 C   0  0  0  0  0  0  0  0  0  0  0  0
   -0.8219   -1.7472   -2.7704 C   0  0  0  0  0  0  0  0  0  0  0  0
   -0.8678   -1.0779   -4.1590 C   0  0  0  0  0  0  0  0  0  0  0  0
   -0.5935    0.4334   -4.1431 C   0  0  0  0  0  0  0  0  0  0  0  0
    0.7151    0.7200   -3.5552 N   0  0  0  0  0  0  0  0  0  0  0  0
    0.8648    1.2501   -2.2321 C   0  0  0  0  0  0  0  0  0  0  0  0
   -0.0968    1.8465   -1.6748 O   0  0  0  0  0  0  0  0  0  0  0  0
    2.1151    1.1101   -1.5464 N   0  0  0  0  0  0  0  0  0  0  0  0
    2.2125    1.1141   -0.1138 C   0  0  0  0  0  0  0  0  0  0  0  0
    1.2058    0.5872    0.7163 C   0  0  0  0  0  0  0  0  0  0  0  0
    1.5261    0.6078    2.0738 C   0  0  0  0  0  0  0  0  0  0  0  0
    0.6825    0.1159    3.1939 C   0  0  0  0  0  0  0  0  0  0  0  0
   -0.6725   -0.2111    2.9941 C   0  0  0  0  0  0  0  0  0  0  0  0
   -1.4575   -0.6746    4.0540 C   0  0  0  0  0  0  0  0  0  0  0  0
   -0.9040   -0.8190    5.3386 C   0  0  0  0  0  0  0  0  0  0  0  0
   -1.6503   -1.2810    6.4329 O   0  0  0  0  0  0  0  0  0  0  0  0
   -3.0238   -1.6512    6.3702 C   0  0  0  0  0  0  0  0  0  0  0  0
    0.4397   -0.4910    5.5410 C   0  0  0  0  0  0  0  0  0  0  0  0
    1.2266   -0.0272    4.4833 C   0  0  0  0  0  0  0  0  0  0  0  0
    3.0698    1.2706    2.2236 S   0  0  0  0  0  0  0  0  0  0  0  0
    3.3441    1.5412    0.5861 C   0  0  0  0  0  0  0  0  0  0  0  0
    4.5604    2.1690    0.0427 C   0  0  0  0  0  0  0  0  0  0  0  0
    5.5415    2.3900    0.8018 O   0  0  0  0  0  0  0  0  0  0  0  0
    4.6320    2.5438   -1.2950 O   0  0  0  0  0  0  0  0  0  0  0  0
  1  2  1  0
  2  3  1  0
  3  4  1  0
  4  5  1  0
  5  6  1  0
  6  7  1  0
  7  8  1  0
  8  9  2  0
  8 10  1  0
 10 11  1  0
 11 12  1  0
 12 13  2  0
 13 14  1  0
 14 15  2  0
 15 16  1  0
 16 17  2  0
 17 18  1  0
 18 19  1  0
 17 20  1  0
 20 21  2  0
 13 22  1  0
 22 23  1  0
 23 24  1  0
 24 25  2  0
 24 26  1  0
 23 11  2  0
 21 14  1  0
M  END
>  <score>  (13) 
0.466782

$$$$
HIPS387
     RDKit          3D

 26 27  0  0  0  0  0  0  0  0999 V2000
    1.8887    2.4174   -0.8415 C   0  0  0  0  0  0  0  0  0  0  0  0
    2.4064    1.4174   -1.8714 C   0  0  0  0  0  0  0  0  0  0  0  0
    2.6738    0.0504   -1.2259 C   0  0  0  0  0  0  0  0  0  0  0  0
    3.2661   -0.9763   -2.2062 C   0  0  0  0  0  0  0  0  0  0  0  0
    2.3714   -1.3375   -3.4085 C   0  0  0  0  0  0  0  0  0  0  0  0
    1.0252   -1.9729   -3.0205 C   0  0  0  0  0  0  0  0  0  0  0  0
    0.0071   -0.9439   -2.8040 N   0  0  0  0  0  0  0  0  0  0  0  0
   -0.7667   -0.8412   -1.6015 C   0  0  0  0  0  0  0  0  0  0  0  0
   -0.6910   -1.7381   -0.7178 O   0  0  0  0  0  0  0  0  0  0  0  0
   -1.6325    0.2855   -1.4116 N   0  0  0  0  0  0  0  0  0  0  0  0
   -2.0969    0.7068   -0.1198 C   0  0  0  0  0  0  0  0  0  0  0  0
   -1.3175    0.5918    1.0454 C   0  0  0  0  0  0  0  0  0  0  0  0
   -1.9111    1.1546    2.1709 C   0  0  0  0  0  0  0  0  0  0  0  0
   -1.3510    1.1289    3.5408 C   0  0  0  0  0  0  0  0  0  0  0  0
   -0.7243   -0.0464    3.9937 C   0  0  0  0  0  0  0  0  0  0  0  0
   -0.1988   -0.1211    5.2854 C   0  0  0  0  0  0  0  0  0  0  0  0
   -0.2844    0.9785    6.1408 C   0  0  0  0  0  0  0  0  0  0  0  0
    0.3784    0.8832    7.7622 Cl  0  0  0  0  0  0  0  0  0  0  0  0
   -0.8901    2.1581    5.7010 C   0  0  0  0  0  0  0  0  0  0  0  0
   -1.4212    2.2451    4.4076 C   0  0  0  0  0  0  0  0  0  0  0  0
   -2.0838    3.7956    3.9001 Cl  0  0  0  0  0  0  0  0  0  0  0  0
   -3.4131    1.7690    1.7204 S   0  0  0  0  0  0  0  0  0  0  0  0
   -3.3163    1.3592    0.0906 C   0  0  0  0  0  0  0  0  0  0  0  0
   -4.3869    1.6115   -0.8889 C   0  0  0  0  0  0  0  0  0  0  0  0
   -5.3776    2.3185   -0.5625 O   0  0  0  0  0  0  0  0  0  0  0  0
   -4.3315    1.0584   -2.1641 O   0  0  0  0  0  0  0  0  0  0  0  0
  1  2  1  0
  2  3  1  0
  3  4  1  0
  4  5  1  0
  5  6  1  0
  6  7  1  0
  7  8  1  0
  8  9  2  0
  8 10  1  0
 10 11  1  0
 11 12  1  0
 12 13  2  0
 13 14  1  0
 14 15  2  0
 15 16  1  0
 16 17  2  0
 17 18  1  0
 17 19  1  0
 19 20  2  0
 20 21  1  0
 13 22  1  0
 22 23  1  0
 23 24  1  0
 24 25  2  0
 24 26  1  0
 23 11  2  0
 20 14  1  0
M  END
>  <score>  (14) 
-0.51975

$$$$
HIPS390
     RDKit          3D

 25 26  0  0  0  0  0  0  0  0999 V2000
   -4.1860   -1.9868    2.9995 C   0  0  0  0  0  0  0  0  0  0  0  0
   -3.6916   -1.1650    1.8125 C   0  0  0  0  0  0  0  0  0  0  0  0
   -3.7974   -1.9615    0.5054 C   0  0  0  0  0  0  0  0  0  0  0  0
   -3.1237   -1.2551   -0.6830 C   0  0  0  0  0  0  0  0  0  0  0  0
   -3.8315    0.0480   -1.1149 C   0  0  0  0  0  0  0  0  0  0  0  0
   -3.1427    1.3158   -0.5904 C   0  0  0  0  0  0  0  0  0  0  0  0
   -1.8329    1.4920   -1.2188 N   0  0  0  0  0  0  0  0  0  0  0  0
   -0.5957    1.3662   -0.5038 C   0  0  0  0  0  0  0  0  0  0  0  0
   -0.5986    1.1153    0.7328 O   0  0  0  0  0  0  0  0  0  0  0  0
    0.6465    1.5032   -1.2071 N   0  0  0  0  0  0  0  0  0  0  0  0
    1.9166    1.3831   -0.5542 C   0  0  0  0  0  0  0  0  0  0  0  0
    2.8631    0.4291   -0.9555 C   0  0  0  0  0  0  0  0  0  0  0  0
    4.0257    0.4333   -0.1824 C   0  0  0  0  0  0  0  0  0  0  0  0
    5.2040   -0.4586   -0.3387 C   0  0  0  0  0  0  0  0  0  0  0  0
    5.3553   -1.2712   -1.4799 C   0  0  0  0  0  0  0  0  0  0  0  0
    6.4690   -2.1058   -1.6154 C   0  0  0  0  0  0  0  0  0  0  0  0
    7.4462   -2.1411   -0.6178 C   0  0  0  0  0  0  0  0  0  0  0  0
    8.8420   -3.1892   -0.7912 Cl  0  0  0  0  0  0  0  0  0  0  0  0
    7.3105   -1.3383    0.5172 C   0  0  0  0  0  0  0  0  0  0  0  0
    6.1992   -0.5017    0.6572 C   0  0  0  0  0  0  0  0  0  0  0  0
    3.8622    1.6453    0.9803 S   0  0  0  0  0  0  0  0  0  0  0  0
    2.3333    2.1722    0.5230 C   0  0  0  0  0  0  0  0  0  0  0  0
    1.6515    3.3333    1.1179 C   0  0  0  0  0  0  0  0  0  0  0  0
    0.6379    3.8377    0.5657 O   0  0  0  0  0  0  0  0  0  0  0  0
    2.1510    3.9001    2.2863 O   0  0  0  0  0  0  0  0  0  0  0  0
  1  2  1  0
  2  3  1  0
  3  4  1  0
  4  5  1  0
  5  6  1  0
  6  7  1  0
  7  8  1  0
  8  9  2  0
  8 10  1  0
 10 11  1  0
 11 12  1  0
 12 13  2  0
 13 14  1  0
 14 15  2  0
 15 16  1  0
 16 17  2  0
 17 18  1  0
 17 19  1  0
 19 20  2  0
 13 21  1  0
 21 22  1  0
 22 23  1  0
 23 24  2  0
 23 25  1  0
 22 11  2  0
 20 14  1  0
M  END
>  <score>  (15) 
0.140183

$$$$
HIPS407
     RDKit          3D

 29 30  0  0  0  0  0  0  0  0999 V2000
   -1.1813    3.0452   -1.9569 C   0  0  0  0  0  0  0  0  0  0  0  0
   -0.9525    2.1743   -3.1913 C   0  0  0  0  0  0  0  0  0  0  0  0
   -2.1396    1.2460   -3.4948 C   0  0  0  0  0  0  0  0  0  0  0  0
   -2.3097    0.1478   -2.4357 C   0  0  0  0  0  0  0  0  0  0  0  0
   -3.3459   -0.8984   -2.8743 C   0  0  0  0  0  0  0  0  0  0  0  0
   -3.6570   -1.9122   -1.7641 C   0  0  0  0  0  0  0  0  0  0  0  0
   -2.4584   -2.6619   -1.3879 N   0  0  0  0  0  0  0  0  0  0  0  0
   -1.6069   -2.2470   -0.3116 C   0  0  0  0  0  0  0  0  0  0  0  0
   -2.0440   -1.4672    0.5784 O   0  0  0  0  0  0  0  0  0  0  0  0
   -0.2508   -2.7067   -0.2594 N   0  0  0  0  0  0  0  0  0  0  0  0
    0.8074   -1.9305    0.3263 C   0  0  0  0  0  0  0  0  0  0  0  0
    0.7921   -0.5231    0.3578 C   0  0  0  0  0  0  0  0  0  0  0  0
    1.9579    0.0398    0.8729 C   0  0  0  0  0  0  0  0  0  0  0  0
    2.2487    1.4873    1.0126 C   0  0  0  0  0  0  0  0  0  0  0  0
    3.5751    1.9366    1.0977 C   0  0  0  0  0  0  0  0  0  0  0  0
    3.8550    3.2977    1.2147 C   0  0  0  0  0  0  0  0  0  0  0  0
    2.8193    4.2353    1.2565 C   0  0  0  0  0  0  0  0  0  0  0  0
    3.2506    5.9375    1.3987 Cl  0  0  0  0  0  0  0  0  0  0  0  0
    1.4747    3.8077    1.1877 C   0  0  0  0  0  0  0  0  0  0  0  0
    0.3423    4.8116    1.2468 C   0  0  0  0  0  0  0  0  0  0  0  0
   -0.8971    4.1976    1.1894 F   0  0  0  0  0  0  0  0  0  0  0  0
    0.4154    5.5253    2.4294 F   0  0  0  0  0  0  0  0  0  0  0  0
    0.4427    5.6868    0.1806 F   0  0  0  0  0  0  0  0  0  0  0  0
    1.2051    2.4297    1.0652 C   0  0  0  0  0  0  0  0  0  0  0  0
    3.0065   -1.2171    1.2732 S   0  0  0  0  0  0  0  0  0  0  0  0
    1.9988   -2.4820    0.8103 C   0  0  0  0  0  0  0  0  0  0  0  0
    2.3508   -3.9050    0.9514 C   0  0  0  0  0  0  0  0  0  0  0  0
    1.4958   -4.8061    0.7434 O   0  0  0  0  0  0  0  0  0  0  0  0
    3.6386   -4.2586    1.3423 O   0  0  0  0  0  0  0  0  0  0  0  0
  1  2  1  0
  2  3  1  0
  3  4  1  0
  4  5  1  0
  5  6  1  0
  6  7  1  0
  7  8  1  0
  8  9  2  0
  8 10  1  0
 10 11  1  0
 11 12  1  0
 12 13  2  0
 13 14  1  0
 14 15  2  0
 15 16  1  0
 16 17  2  0
 17 18  1  0
 17 19  1  0
 19 20  1  0
 20 21  1  0
 20 22  1  0
 20 23  1  0
 19 24  2  0
 13 25  1  0
 25 26  1  0
 26 27  1  0
 27 28  2  0
 27 29  1  0
 26 11  2  0
 24 14  1  0
M  END
>  <score>  (16) 
-0.415373

$$$$
HIPS408
     RDKit          3D

 28 30  0  0  0  0  0  0  0  0999 V2000
   -0.3135   -2.0391    0.1185 O   0  0  0  0  0  0  0  0  0  0  0  0
    0.5910   -2.0305    0.9977 C   0  0  0  0  0  0  0  0  0  0  0  0
    0.3653   -2.6563    2.2678 N   0  0  0  0  0  0  0  0  0  0  0  0
   -0.9764   -2.9811    2.7516 C   0  0  0  0  0  0  0  0  0  0  0  0
   -1.5073   -1.8723    3.6674 C   0  0  0  0  0  0  0  0  0  0  0  0
   -1.6179   -0.5517    2.9471 C   0  0  0  0  0  0  0  0  0  0  0  0
   -0.6206    0.4274    3.0991 C   0  0  0  0  0  0  0  0  0  0  0  0
   -0.7162    1.6432    2.4148 C   0  0  0  0  0  0  0  0  0  0  0  0
   -1.8011    1.8873    1.5686 C   0  0  0  0  0  0  0  0  0  0  0  0
   -2.7881    0.9126    1.3988 C   0  0  0  0  0  0  0  0  0  0  0  0
   -2.6983   -0.3036    2.0839 C   0  0  0  0  0  0  0  0  0  0  0  0
    1.8521   -1.4033    0.7283 N   0  0  0  0  0  0  0  0  0  0  0  0
    2.0216   -0.3770   -0.2641 C   0  0  0  0  0  0  0  0  0  0  0  0
    0.9943    0.5161   -0.6205 C   0  0  0  0  0  0  0  0  0  0  0  0
    1.3908    1.5035   -1.5205 C   0  0  0  0  0  0  0  0  0  0  0  0
    0.5460    2.5991   -2.0594 C   0  0  0  0  0  0  0  0  0  0  0  0
   -0.8569    2.5472   -1.9583 C   0  0  0  0  0  0  0  0  0  0  0  0
   -1.6435    3.5879   -2.4575 C   0  0  0  0  0  0  0  0  0  0  0  0
   -1.0473    4.6936   -3.0698 C   0  0  0  0  0  0  0  0  0  0  0  0
   -2.0725    5.9828   -3.6853 Cl  0  0  0  0  0  0  0  0  0  0  0  0
    0.3503    4.7552   -3.1851 C   0  0  0  0  0  0  0  0  0  0  0  0
    1.1409    6.1277   -3.9495 Cl  0  0  0  0  0  0  0  0  0  0  0  0
    1.1384    3.7124   -2.6835 C   0  0  0  0  0  0  0  0  0  0  0  0
    3.0238    1.2614   -1.8603 S   0  0  0  0  0  0  0  0  0  0  0  0
    3.2432   -0.0893   -0.8826 C   0  0  0  0  0  0  0  0  0  0  0  0
    4.5153   -0.8231   -0.7718 C   0  0  0  0  0  0  0  0  0  0  0  0
    4.5758   -1.9244   -0.1639 O   0  0  0  0  0  0  0  0  0  0  0  0
    5.6611   -0.3050   -1.3678 O   0  0  0  0  0  0  0  0  0  0  0  0
  1  2  2  0
  2  3  1  0
  3  4  1  0
  4  5  1  0
  5  6  1  0
  6  7  2  0
  7  8  1  0
  8  9  2  0
  9 10  1  0
 10 11  2  0
  2 12  1  0
 12 13  1  0
 13 14  1  0
 14 15  2  0
 15 16  1  0
 16 17  2  0
 17 18  1  0
 18 19  2  0
 19 20  1  0
 19 21  1  0
 21 22  1  0
 21 23  2  0
 15 24  1  0
 24 25  1  0
 25 26  1  0
 26 27  2  0
 26 28  1  0
 11  6  1  0
 25 13  2  0
 23 16  1  0
M  END
>  <score>  (17) 
-0.565669

$$$$
HIPS410
     RDKit          3D

 27 28  0  0  0  0  0  0  0  0999 V2000
    1.8041    3.7537   -0.7067 C   0  0  0  0  0  0  0  0  0  0  0  0
    0.9670    3.0278   -1.7562 C   0  0  0  0  0  0  0  0  0  0  0  0
    0.0643    1.9702   -1.1062 C   0  0  0  0  0  0  0  0  0  0  0  0
   -0.9346    1.3454   -2.0967 C   0  0  0  0  0  0  0  0  0  0  0  0
   -0.2955    0.5264   -3.2367 C   0  0  0  0  0  0  0  0  0  0  0  0
    0.4778   -0.7156   -2.7686 C   0  0  0  0  0  0  0  0  0  0  0  0
   -0.3905   -1.6158   -2.0095 N   0  0  0  0  0  0  0  0  0  0  0  0
   -0.3293   -1.7177   -0.5815 C   0  0  0  0  0  0  0  0  0  0  0  0
    0.7121   -1.3639    0.0360 O   0  0  0  0  0  0  0  0  0  0  0  0
   -1.4535   -2.2292    0.1450 N   0  0  0  0  0  0  0  0  0  0  0  0
   -1.7222   -1.8574    1.5059 C   0  0  0  0  0  0  0  0  0  0  0  0
   -1.3965   -0.5905    2.0241 C   0  0  0  0  0  0  0  0  0  0  0  0
   -1.8078   -0.3976    3.3426 C   0  0  0  0  0  0  0  0  0  0  0  0
   -1.6211    0.8290    4.1601 C   0  0  0  0  0  0  0  0  0  0  0  0
   -2.3326    0.9942    5.3615 C   0  0  0  0  0  0  0  0  0  0  0  0
   -2.1648    2.1452    6.1327 C   0  0  0  0  0  0  0  0  0  0  0  0
   -1.2848    3.1463    5.7207 C   0  0  0  0  0  0  0  0  0  0  0  0
   -0.5560    3.0056    4.5273 C   0  0  0  0  0  0  0  0  0  0  0  0
    0.3579    4.0335    4.1009 N   0  0  0  0  0  4  0  0  0  0  0  0
    0.5162    5.0676    4.7826 O   0  0  0  0  0  0  0  0  0  0  0  0
    1.0726    3.8949    2.9330 O   0  0  0  0  0  1  0  0  0  0  0  0
   -0.7296    1.8427    3.7547 C   0  0  0  0  0  0  0  0  0  0  0  0
   -2.5894   -1.8053    3.8448 S   0  0  0  0  0  0  0  0  0  0  0  0
   -2.4111   -2.6686    2.4128 C   0  0  0  0  0  0  0  0  0  0  0  0
   -2.8786   -4.0518    2.2221 C   0  0  0  0  0  0  0  0  0  0  0  0
   -2.5834   -4.6958    1.1808 O   0  0  0  0  0  0  0  0  0  0  0  0
   -3.6393   -4.6628    3.2142 O   0  0  0  0  0  0  0  0  0  0  0  0
  1  2  1  0
  2  3  1  0
  3  4  1  0
  4  5  1  0
  5  6  1  0
  6  7  1  0
  7  8  1  0
  8  9  2  0
  8 10  1  0
 10 11  1  0
 11 12  1  0
 12 13  2  0
 13 14  1  0
 14 15  2  0
 15 16  1  0
 16 17  2  0
 17 18  1  0
 18 19  1  0
 19 20  2  0
 19 21  1  0
 18 22  2  0
 13 23  1  0
 23 24  1  0
 24 25  1  0
 25 26  2  0
 25 27  1  0
 24 11  2  0
 22 14  1  0
M  CHG  2  19   1  21  -1
M  END
>  <score>  (18) 
-0.291397

$$$$
HIPS412
     RDKit          3D

 26 27  0  0  0  0  0  0  0  0999 V2000
    2.1833   -0.1074   -2.0186 C   0  0  0  0  0  0  0  0  0  0  0  0
    2.2470   -1.6239   -2.1951 C   0  0  0  0  0  0  0  0  0  0  0  0
    0.9358   -2.3216   -1.8009 C   0  0  0  0  0  0  0  0  0  0  0  0
    0.6932   -2.3086   -0.2812 C   0  0  0  0  0  0  0  0  0  0  0  0
   -0.4898   -3.2017    0.1350 C   0  0  0  0  0  0  0  0  0  0  0  0
   -1.8625   -2.6491   -0.2758 C   0  0  0  0  0  0  0  0  0  0  0  0
   -2.1685   -1.4175    0.4523 N   0  0  0  0  0  0  0  0  0  0  0  0
   -2.0250   -0.1136   -0.1268 C   0  0  0  0  0  0  0  0  0  0  0  0
   -1.7713    0.0100   -1.3563 O   0  0  0  0  0  0  0  0  0  0  0  0
   -2.1851    1.0507    0.6953 N   0  0  0  0  0  0  0  0  0  0  0  0
   -1.6590    2.3374    0.3346 C   0  0  0  0  0  0  0  0  0  0  0  0
   -0.4553    2.4930   -0.3735 C   0  0  0  0  0  0  0  0  0  0  0  0
   -0.0749    3.8187   -0.5470 C   0  0  0  0  0  0  0  0  0  0  0  0
    1.1083    4.2745   -1.3102 C   0  0  0  0  0  0  0  0  0  0  0  0
    1.4310    3.6169   -2.5113 C   0  0  0  0  0  0  0  0  0  0  0  0
    2.5397    4.0109   -3.2647 C   0  0  0  0  0  0  0  0  0  0  0  0
    2.9265    3.1755   -4.7579 Cl  0  0  0  0  0  0  0  0  0  0  0  0
    3.3390    5.0683   -2.8284 C   0  0  0  0  0  0  0  0  0  0  0  0
    3.0385    5.7245   -1.6338 C   0  0  0  0  0  0  0  0  0  0  0  0
    1.9330    5.3350   -0.8670 C   0  0  0  0  0  0  0  0  0  0  0  0
    1.6797    6.1489    0.6737 Cl  0  0  0  0  0  0  0  0  0  0  0  0
   -1.2481    4.7969    0.1627 S   0  0  0  0  0  0  0  0  0  0  0  0
   -2.2348    3.5518    0.7221 C   0  0  0  0  0  0  0  0  0  0  0  0
   -3.5064    3.7631    1.4343 C   0  0  0  0  0  0  0  0  0  0  0  0
   -3.8224    4.9211    1.8176 O   0  0  0  0  0  0  0  0  0  0  0  0
   -4.3759    2.7036    1.6697 O   0  0  0  0  0  0  0  0  0  0  0  0
  1  2  1  0
  2  3  1  0
  3  4  1  0
  4  5  1  0
  5  6  1  0
  6  7  1  0
  7  8  1  0
  8  9  2  0
  8 10  1  0
 10 11  1  0
 11 12  1  0
 12 13  2  0
 13 14  1  0
 14 15  2  0
 15 16  1  0
 16 17  1  0
 16 18  2  0
 18 19  1  0
 19 20  2  0
 20 21  1  0
 13 22  1  0
 22 23  1  0
 23 24  1  0
 24 25  2  0
 24 26  1  0
 23 11  2  0
 20 14  1  0
M  END
>  <score>  (19) 
-0.60433

$$$$
HIPS414
     RDKit          3D

 28 29  0  0  0  0  0  0  0  0999 V2000
   -5.5518    0.3097   -2.7775 C   0  0  0  0  0  0  0  0  0  0  0  0
   -6.0403   -0.8780   -1.9485 C   0  0  0  0  0  0  0  0  0  0  0  0
   -5.1742   -1.1323   -0.7054 C   0  0  0  0  0  0  0  0  0  0  0  0
   -3.7680   -1.6449   -1.0610 C   0  0  0  0  0  0  0  0  0  0  0  0
   -2.9899   -2.1395    0.1708 C   0  0  0  0  0  0  0  0  0  0  0  0
   -2.6331   -1.0245    1.1672 C   0  0  0  0  0  0  0  0  0  0  0  0
   -1.8705    0.0451    0.5241 N   0  0  0  0  0  0  0  0  0  0  0  0
   -0.5038   -0.1132    0.1198 C   0  0  0  0  0  0  0  0  0  0  0  0
    0.1049   -1.1918    0.3595 O   0  0  0  0  0  0  0  0  0  0  0  0
    0.1557    0.9488   -0.5838 N   0  0  0  0  0  0  0  0  0  0  0  0
    1.5533    0.9259   -0.9116 C   0  0  0  0  0  0  0  0  0  0  0  0
    2.5397    0.4673   -0.0203 C   0  0  0  0  0  0  0  0  0  0  0  0
    3.8414    0.5906   -0.5091 C   0  0  0  0  0  0  0  0  0  0  0  0
    5.0953    0.1914    0.1818 C   0  0  0  0  0  0  0  0  0  0  0  0
    6.2980    0.0894   -0.5401 C   0  0  0  0  0  0  0  0  0  0  0  0
    7.4760   -0.3078    0.0937 C   0  0  0  0  0  0  0  0  0  0  0  0
    7.4757   -0.5996    1.4579 C   0  0  0  0  0  0  0  0  0  0  0  0
    6.2968   -0.4711    2.2108 C   0  0  0  0  0  0  0  0  0  0  0  0
    6.2804   -0.8205    3.6782 C   0  0  0  0  0  0  0  0  0  0  0  0
    5.8858   -2.1369    3.8287 F   0  0  0  0  0  0  0  0  0  0  0  0
    5.3952   -0.0036    4.3610 F   0  0  0  0  0  0  0  0  0  0  0  0
    7.5356   -0.6601    4.2385 F   0  0  0  0  0  0  0  0  0  0  0  0
    5.1072   -0.0956    1.5610 C   0  0  0  0  0  0  0  0  0  0  0  0
    3.7476    1.2796   -2.0455 S   0  0  0  0  0  0  0  0  0  0  0  0
    2.0738    1.4280   -2.1074 C   0  0  0  0  0  0  0  0  0  0  0  0
    1.3310    1.9428   -3.2704 C   0  0  0  0  0  0  0  0  0  0  0  0
    1.9573    2.4789   -4.2247 O   0  0  0  0  0  0  0  0  0  0  0  0
   -0.0531    1.8216   -3.3422 O   0  0  0  0  0  0  0  0  0  0  0  0
  1  2  1  0
  2  3  1  0
  3  4  1  0
  4  5  1  0
  5  6  1  0
  6  7  1  0
  7  8  1  0
  8  9  2  0
  8 10  1  0
 10 11  1  0
 11 12  1  0
 12 13  2  0
 13 14  1  0
 14 15  2  0
 15 16  1  0
 16 17  2  0
 17 18  1  0
 18 19  1  0
 19 20  1  0
 19 21  1  0
 19 22  1  0
 18 23  2  0
 13 24  1  0
 24 25  1  0
 25 26  1  0
 26 27  2  0
 26 28  1  0
 25 11  2  0
 23 14  1  0
M  END
>  <score>  (20) 
-0.287427

$$$$
HIPS418
     RDKit          3D

 27 28  0  0  0  0  0  0  0  0999 V2000
   -2.3745    4.7923    2.8599 C   0  0  0  0  0  0  0  0  0  0  0  0
   -1.2160    3.7956    2.8248 C   0  0  0  0  0  0  0  0  0  0  0  0
   -0.7584    3.3802    4.2348 C   0  0  0  0  0  0  0  0  0  0  0  0
   -1.6717    2.3232    4.8920 C   0  0  0  0  0  0  0  0  0  0  0  0
   -1.1608    0.8747    4.7577 C   0  0  0  0  0  0  0  0  0  0  0  0
   -1.3319    0.2820    3.3486 C   0  0  0  0  0  0  0  0  0  0  0  0
   -0.2179    0.6356    2.4680 N   0  0  0  0  0  0  0  0  0  0  0  0
   -0.2452    0.3344    1.0678 C   0  0  0  0  0  0  0  0  0  0  0  0
   -1.2235   -0.2926    0.5766 O   0  0  0  0  0  0  0  0  0  0  0  0
    0.8250    0.7843    0.2248 N   0  0  0  0  0  0  0  0  0  0  0  0
    0.9580    0.4035   -1.1537 C   0  0  0  0  0  0  0  0  0  0  0  0
    0.6805   -0.8955   -1.6176 C   0  0  0  0  0  0  0  0  0  0  0  0
    0.9486   -1.0768   -2.9752 C   0  0  0  0  0  0  0  0  0  0  0  0
    0.7687   -2.3261   -3.7585 C   0  0  0  0  0  0  0  0  0  0  0  0
    0.0156   -3.3997   -3.2489 C   0  0  0  0  0  0  0  0  0  0  0  0
   -0.1496   -4.5711   -3.9937 C   0  0  0  0  0  0  0  0  0  0  0  0
    0.4315   -4.6977   -5.2656 C   0  0  0  0  0  0  0  0  0  0  0  0
    0.2592   -5.9060   -6.0288 N   0  0  0  0  0  4  0  0  0  0  0  0
    0.7726   -6.0231   -7.1609 O   0  0  0  0  0  0  0  0  0  0  0  0
   -0.4749   -6.9542   -5.5225 O   0  0  0  0  0  1  0  0  0  0  0  0
    1.1803   -3.6250   -5.7786 C   0  0  0  0  0  0  0  0  0  0  0  0
    1.3453   -2.4533   -5.0348 C   0  0  0  0  0  0  0  0  0  0  0  0
    1.5426    0.3809   -3.5796 S   0  0  0  0  0  0  0  0  0  0  0  0
    1.4625    1.2519   -2.1445 C   0  0  0  0  0  0  0  0  0  0  0  0
    1.8231    2.6750   -2.0260 C   0  0  0  0  0  0  0  0  0  0  0  0
    1.5822    3.3171   -0.9696 O   0  0  0  0  0  0  0  0  0  0  0  0
    2.4171    3.3250   -3.1035 O   0  0  0  0  0  0  0  0  0  0  0  0
  1  2  1  0
  2  3  1  0
  3  4  1  0
  4  5  1  0
  5  6  1  0
  6  7  1  0
  7  8  1  0
  8  9  2  0
  8 10  1  0
 10 11  1  0
 11 12  1  0
 12 13  2  0
 13 14  1  0
 14 15  2  0
 15 16  1  0
 16 17  2  0
 17 18  1  0
 18 19  2  0
 18 20  1  0
 17 21  1  0
 21 22  2  0
 13 23  1  0
 23 24  1  0
 24 25  1  0
 25 26  2  0
 25 27  1  0
 24 11  2  0
 22 14  1  0
M  CHG  2  18   1  20  -1
M  END
>  <score>  (21) 
-0.526963

$$$$
HIPS422
     RDKit          3D

 31 33  0  0  0  0  0  0  0  0999 V2000
    4.5552   -0.8655   -2.7784 C   0  0  0  0  0  0  0  0  0  0  0  0
    4.7370    0.1435   -1.6473 C   0  0  0  0  0  0  0  0  0  0  0  0
    3.4374    0.3983   -0.8707 C   0  0  0  0  0  0  0  0  0  0  0  0
    3.0462   -0.7836    0.0295 C   0  0  0  0  0  0  0  0  0  0  0  0
    1.8075   -0.4841    0.7634 N   0  0  0  0  0  0  0  0  0  0  0  0
    1.8745   -0.2640    2.2155 C   0  0  0  0  0  0  0  0  0  0  0  0
    1.3202   -1.4520    2.9516 C   0  0  0  0  0  0  0  0  0  0  0  0
    0.1039   -1.3566    3.6467 C   0  0  0  0  0  0  0  0  0  0  0  0
   -0.4076   -2.4676    4.3223 C   0  0  0  0  0  0  0  0  0  0  0  0
    0.2883   -3.6796    4.3085 C   0  0  0  0  0  0  0  0  0  0  0  0
    1.4922   -3.7841    3.6095 C   0  0  0  0  0  0  0  0  0  0  0  0
    2.0066   -2.6766    2.9299 C   0  0  0  0  0  0  0  0  0  0  0  0
    0.5248   -0.4138    0.0937 C   0  0  0  0  0  0  0  0  0  0  0  0
   -0.4868   -0.0147    0.7359 O   0  0  0  0  0  0  0  0  0  0  0  0
    0.3705   -0.8245   -1.2788 N   0  0  0  0  0  0  0  0  0  0  0  0
   -0.8059   -0.5343   -2.0500 C   0  0  0  0  0  0  0  0  0  0  0  0
   -1.4880    0.6933   -1.9651 C   0  0  0  0  0  0  0  0  0  0  0  0
   -2.5614    0.8055   -2.8509 C   0  0  0  0  0  0  0  0  0  0  0  0
   -3.4698    1.9715   -3.0134 C   0  0  0  0  0  0  0  0  0  0  0  0
   -4.3633    2.0269   -4.1002 C   0  0  0  0  0  0  0  0  0  0  0  0
   -5.2167    3.1183   -4.2642 C   0  0  0  0  0  0  0  0  0  0  0  0
   -5.1966    4.1711   -3.3483 C   0  0  0  0  0  0  0  0  0  0  0  0
   -6.2838    5.5287   -3.5915 Cl  0  0  0  0  0  0  0  0  0  0  0  0
   -4.3150    4.1295   -2.2561 C   0  0  0  0  0  0  0  0  0  0  0  0
   -4.2597    5.4338   -1.0788 Cl  0  0  0  0  0  0  0  0  0  0  0  0
   -3.4606    3.0355   -2.0910 C   0  0  0  0  0  0  0  0  0  0  0  0
   -2.6349   -0.6225   -3.7436 S   0  0  0  0  0  0  0  0  0  0  0  0
   -1.3284   -1.3939   -3.0188 C   0  0  0  0  0  0  0  0  0  0  0  0
   -0.8913   -2.7598   -3.3478 C   0  0  0  0  0  0  0  0  0  0  0  0
   -1.3923   -3.3497   -4.3395 O   0  0  0  0  0  0  0  0  0  0  0  0
    0.0538   -3.4158   -2.5669 O   0  0  0  0  0  0  0  0  0  0  0  0
  1  2  1  0
  2  3  1  0
  3  4  1  0
  4  5  1  0
  5  6  1  0
  6  7  1  0
  7  8  2  0
  8  9  1  0
  9 10  2  0
 10 11  1  0
 11 12  2  0
  5 13  1  0
 13 14  2  0
 13 15  1  0
 15 16  1  0
 16 17  1  0
 17 18  2  0
 18 19  1  0
 19 20  2  0
 20 21  1  0
 21 22  2  0
 22 23  1  0
 22 24  1  0
 24 25  1  0
 24 26  2  0
 18 27  1  0
 27 28  1  0
 28 29  1  0
 29 30  2  0
 29 31  1  0
 12  7  1  0
 28 16  2  0
 26 19  1  0
M  END
>  <score>  (22) 
-0.001231

$$$$
HIPS424
     RDKit          3D

 28 29  0  0  0  0  0  0  0  0999 V2000
    3.4253   -1.0484   -0.0828 C   0  0  0  0  0  0  0  0  0  0  0  0
    3.7761    0.3484    0.4249 C   0  0  0  0  0  0  0  0  0  0  0  0
    3.1203    1.4692   -0.3993 C   0  0  0  0  0  0  0  0  0  0  0  0
    3.6787    1.5899   -1.8355 C   0  0  0  0  0  0  0  0  0  0  0  0
    2.8167    0.8800   -2.9005 C   0  0  0  0  0  0  0  0  0  0  0  0
    1.7016    1.7713   -3.4723 C   0  0  0  0  0  0  0  0  0  0  0  0
    0.6798    2.0640   -2.4696 N   0  0  0  0  0  0  0  0  0  0  0  0
   -0.2581    1.0802   -2.0132 C   0  0  0  0  0  0  0  0  0  0  0  0
   -0.2885   -0.0621   -2.5485 O   0  0  0  0  0  0  0  0  0  0  0  0
   -1.1405    1.3919   -0.9267 N   0  0  0  0  0  0  0  0  0  0  0  0
   -2.0314    0.4204   -0.3661 C   0  0  0  0  0  0  0  0  0  0  0  0
   -1.9483    0.0360    0.9801 C   0  0  0  0  0  0  0  0  0  0  0  0
   -2.8684   -0.9512    1.3398 C   0  0  0  0  0  0  0  0  0  0  0  0
   -3.0262   -1.5825    2.6770 C   0  0  0  0  0  0  0  0  0  0  0  0
   -2.1024   -1.3404    3.7111 C   0  0  0  0  0  0  0  0  0  0  0  0
   -2.2605   -1.9411    4.9636 C   0  0  0  0  0  0  0  0  0  0  0  0
   -3.3329   -2.8136    5.2069 C   0  0  0  0  0  0  0  0  0  0  0  0
   -3.5296   -3.4209    6.5733 C   0  0  0  0  0  0  0  0  0  0  0  0
   -4.1779   -4.6402    6.4784 F   0  0  0  0  0  0  0  0  0  0  0  0
   -4.2915   -2.5650    7.3460 F   0  0  0  0  0  0  0  0  0  0  0  0
   -2.3112   -3.6273    7.1963 F   0  0  0  0  0  0  0  0  0  0  0  0
   -4.2696   -3.0383    4.1862 C   0  0  0  0  0  0  0  0  0  0  0  0
   -4.1130   -2.4384    2.9335 C   0  0  0  0  0  0  0  0  0  0  0  0
   -3.7900   -1.3107   -0.0281 S   0  0  0  0  0  0  0  0  0  0  0  0
   -3.0372   -0.2368   -1.0800 C   0  0  0  0  0  0  0  0  0  0  0  0
   -3.4684    0.0064   -2.4664 C   0  0  0  0  0  0  0  0  0  0  0  0
   -4.2987   -0.7708   -3.0090 O   0  0  0  0  0  0  0  0  0  0  0  0
   -2.9919    1.1048   -3.1752 O   0  0  0  0  0  0  0  0  0  0  0  0
  1  2  1  0
  2  3  1  0
  3  4  1  0
  4  5  1  0
  5  6  1  0
  6  7  1  0
  7  8  1  0
  8  9  2  0
  8 10  1  0
 10 11  1  0
 11 12  1  0
 12 13  2  0
 13 14  1  0
 14 15  2  0
 15 16  1  0
 16 17  2  0
 17 18  1  0
 18 19  1  0
 18 20  1  0
 18 21  1  0
 17 22  1  0
 22 23  2  0
 13 24  1  0
 24 25  1  0
 25 26  1  0
 26 27  2  0
 26 28  1  0
 25 11  2  0
 23 14  1  0
M  END
>  <score>  (23) 
0.153651

$$$$
HIPS431
     RDKit          3D

 34 37  0  0  0  0  0  0  0  0999 V2000
   -0.0469    3.6811   -1.0811 O   0  0  0  0  0  0  0  0  0  0  0  0
    1.2064    3.7828   -1.0104 C   0  0  0  0  0  0  0  0  0  0  0  0
    1.7855    5.0408   -0.8748 O   0  0  0  0  0  0  0  0  0  0  0  0
    2.0663    2.5876   -1.0539 C   0  0  0  0  0  0  0  0  0  0  0  0
    3.7310    2.6214   -0.8262 S   0  0  0  0  0  0  0  0  0  0  0  0
    3.9966    0.9628   -0.9706 C   0  0  0  0  0  0  0  0  0  0  0  0
    5.3176    0.2899   -0.8809 C   0  0  0  0  0  0  0  0  0  0  0  0
    6.5038    1.0432   -0.9477 C   0  0  0  0  0  0  0  0  0  0  0  0
    7.7496    0.4167   -0.8630 C   0  0  0  0  0  0  0  0  0  0  0  0
    7.8343   -0.9693   -0.7067 C   0  0  0  0  0  0  0  0  0  0  0  0
    9.4211   -1.7201   -0.6036 Cl  0  0  0  0  0  0  0  0  0  0  0  0
    6.6595   -1.7339   -0.6327 C   0  0  0  0  0  0  0  0  0  0  0  0
    6.7216   -3.4796   -0.4272 Cl  0  0  0  0  0  0  0  0  0  0  0  0
    5.4112   -1.1058   -0.7184 C   0  0  0  0  0  0  0  0  0  0  0  0
    2.7635    0.3539   -1.2076 C   0  0  0  0  0  0  0  0  0  0  0  0
    1.6840    1.2556   -1.2418 C   0  0  0  0  0  0  0  0  0  0  0  0
    0.3361    0.8542   -1.5330 N   0  0  0  0  0  0  0  0  0  0  0  0
   -0.2756   -0.3247   -0.9807 C   0  0  0  0  0  0  0  0  0  0  0  0
    0.4106   -1.1247   -0.2885 O   0  0  0  0  0  0  0  0  0  0  0  0
   -1.6730   -0.6036   -1.2040 N   0  0  0  0  0  0  0  0  0  0  0  0
   -2.6798    0.4694   -1.1388 C   0  0  0  0  0  0  0  0  0  0  0  0
   -3.0006    0.8118    0.2949 C   0  0  0  0  0  0  0  0  0  0  0  0
   -4.2294    0.4293    0.8611 C   0  0  0  0  0  0  0  0  0  0  0  0
   -4.5065    0.7079    2.2026 C   0  0  0  0  0  0  0  0  0  0  0  0
   -3.5654    1.3790    2.9871 C   0  0  0  0  0  0  0  0  0  0  0  0
   -2.3473    1.7760    2.4300 C   0  0  0  0  0  0  0  0  0  0  0  0
   -2.0649    1.4960    1.0897 C   0  0  0  0  0  0  0  0  0  0  0  0
   -2.1070   -1.9920   -1.4222 C   0  0  0  0  0  0  0  0  0  0  0  0
   -2.9512   -2.4835   -0.2741 C   0  0  0  0  0  0  0  0  0  0  0  0
   -4.3088   -2.7907   -0.4697 C   0  0  0  0  0  0  0  0  0  0  0  0
   -5.0982   -3.2114    0.6051 C   0  0  0  0  0  0  0  0  0  0  0  0
   -4.5398   -3.3303    1.8804 C   0  0  0  0  0  0  0  0  0  0  0  0
   -3.1892   -3.0346    2.0820 C   0  0  0  0  0  0  0  0  0  0  0  0
   -2.3954   -2.6164    1.0099 C   0  0  0  0  0  0  0  0  0  0  0  0
  1  2  2  0
  2  3  1  0
  2  4  1  0
  4  5  1  0
  5  6  1  0
  6  7  1  0
  7  8  2  0
  8  9  1  0
  9 10  2  0
 10 11  1  0
 10 12  1  0
 12 13  1  0
 12 14  2  0
  6 15  2  0
 15 16  1  0
 16 17  1  0
 17 18  1  0
 18 19  2  0
 18 20  1  0
 20 21  1  0
 21 22  1  0
 22 23  2  0
 23 24  1  0
 24 25  2  0
 25 26  1  0
 26 27  2  0
 20 28  1  0
 28 29  1  0
 29 30  2  0
 30 31  1  0
 31 32  2  0
 32 33  1  0
 33 34  2  0
 16  4  2  0
 27 22  1  0
 34 29  1  0
 14  7  1  0
M  END
>  <score>  (24) 
-0.154405

$$$$
HIPS435
     RDKit          3D

 28 30  0  0  0  0  0  0  0  0999 V2000
    0.0958    3.9625   -1.0277 C   0  0  0  0  0  0  0  0  0  0  0  0
    1.4820    3.4896   -0.5958 C   0  0  0  0  0  0  0  0  0  0  0  0
    1.7671    2.1429   -1.1181 N   0  0  0  0  0  0  0  0  0  0  0  0
    0.9941    1.0015   -0.6848 C   0  0  0  0  0  0  0  0  0  0  0  0
    0.9151   -0.0151   -1.4287 O   0  0  0  0  0  0  0  0  0  0  0  0
    0.3246    1.0000    0.5865 N   0  0  0  0  0  0  0  0  0  0  0  0
   -0.7869    0.1382    0.8763 C   0  0  0  0  0  0  0  0  0  0  0  0
   -1.7649   -0.1886   -0.0812 C   0  0  0  0  0  0  0  0  0  0  0  0
   -2.8059   -0.9713    0.4209 C   0  0  0  0  0  0  0  0  0  0  0  0
   -3.9863   -1.4755   -0.3287 C   0  0  0  0  0  0  0  0  0  0  0  0
   -4.2887   -0.9962   -1.6175 C   0  0  0  0  0  0  0  0  0  0  0  0
   -5.4014   -1.4779   -2.3116 C   0  0  0  0  0  0  0  0  0  0  0  0
   -6.2316   -2.4427   -1.7351 C   0  0  0  0  0  0  0  0  0  0  0  0
   -7.6222   -3.0228   -2.6419 Cl  0  0  0  0  0  0  0  0  0  0  0  0
   -5.9450   -2.9282   -0.4500 C   0  0  0  0  0  0  0  0  0  0  0  0
   -6.9636   -4.1424    0.3124 Cl  0  0  0  0  0  0  0  0  0  0  0  0
   -4.8303   -2.4450    0.2456 C   0  0  0  0  0  0  0  0  0  0  0  0
   -2.4969   -1.2423    2.0563 S   0  0  0  0  0  0  0  0  0  0  0  0
   -1.0570   -0.3789    2.1470 C   0  0  0  0  0  0  0  0  0  0  0  0
   -0.2332   -0.2735    3.3637 C   0  0  0  0  0  0  0  0  0  0  0  0
   -0.6910   -0.6822    4.4642 O   0  0  0  0  0  0  0  0  0  0  0  0
    1.0560    0.2459    3.3100 O   0  0  0  0  0  0  0  0  0  0  0  0
    2.7848    1.9691   -2.1268 C   0  0  0  0  0  0  0  0  0  0  0  0
    3.7378    0.9426   -2.0000 C   0  0  0  0  0  0  0  0  0  0  0  0
    4.7265    0.7708   -2.9736 C   0  0  0  0  0  0  0  0  0  0  0  0
    4.7737    1.6208   -4.0813 C   0  0  0  0  0  0  0  0  0  0  0  0
    3.8325    2.6443   -4.2170 C   0  0  0  0  0  0  0  0  0  0  0  0
    2.8422    2.8201   -3.2456 C   0  0  0  0  0  0  0  0  0  0  0  0
  1  2  1  0
  2  3  1  0
  3  4  1  0
  4  5  2  0
  4  6  1  0
  6  7  1  0
  7  8  1  0
  8  9  2  0
  9 10  1  0
 10 11  2  0
 11 12  1  0
 12 13  2  0
 13 14  1  0
 13 15  1  0
 15 16  1  0
 15 17  2  0
  9 18  1  0
 18 19  1  0
 19 20  1  0
 20 21  2  0
 20 22  1  0
  3 23  1  0
 23 24  2  0
 24 25  1  0
 25 26  2  0
 26 27  1  0
 27 28  2  0
 19  7  2  0
 28 23  1  0
 17 10  1  0
M  END
>  <score>  (25) 
-0.57467

$$$$
HIPS440
     RDKit          3D

 30 32  0  0  0  0  0  0  0  0999 V2000
   -5.5544   -1.1450   -2.2671 C   0  0  0  0  0  0  0  0  0  0  0  0
   -4.8843    0.1601   -1.8377 C   0  0  0  0  0  0  0  0  0  0  0  0
   -3.5140   -0.0648   -1.1811 C   0  0  0  0  0  0  0  0  0  0  0  0
   -2.4333   -0.4716   -2.1949 C   0  0  0  0  0  0  0  0  0  0  0  0
   -1.1339   -0.6443   -1.5271 N   0  0  0  0  0  0  0  0  0  0  0  0
   -0.4092    0.5154   -1.0622 C   0  0  0  0  0  0  0  0  0  0  0  0
   -0.6991    1.6577   -1.5141 O   0  0  0  0  0  0  0  0  0  0  0  0
    0.6053    0.3869   -0.0525 N   0  0  0  0  0  0  0  0  0  0  0  0
    1.3630    1.5070    0.4235 C   0  0  0  0  0  0  0  0  0  0  0  0
    1.4039    1.8392    1.7859 C   0  0  0  0  0  0  0  0  0  0  0  0
    2.1672    2.9741    2.0649 C   0  0  0  0  0  0  0  0  0  0  0  0
    2.3978    3.5885    3.3980 C   0  0  0  0  0  0  0  0  0  0  0  0
    3.3942    4.5678    3.5646 C   0  0  0  0  0  0  0  0  0  0  0  0
    3.6173    5.1504    4.8146 C   0  0  0  0  0  0  0  0  0  0  0  0
    2.8501    4.7696    5.9186 C   0  0  0  0  0  0  0  0  0  0  0  0
    3.1614    5.5266    7.4750 Cl  0  0  0  0  0  0  0  0  0  0  0  0
    1.8492    3.7974    5.7678 C   0  0  0  0  0  0  0  0  0  0  0  0
    0.8561    3.2952    7.1298 Cl  0  0  0  0  0  0  0  0  0  0  0  0
    1.6263    3.2132    4.5149 C   0  0  0  0  0  0  0  0  0  0  0  0
    2.8043    3.5320    0.6059 S   0  0  0  0  0  0  0  0  0  0  0  0
    2.1216    2.3600   -0.3866 C   0  0  0  0  0  0  0  0  0  0  0  0
    2.4043    2.2416   -1.8265 C   0  0  0  0  0  0  0  0  0  0  0  0
    2.0894    1.2014   -2.4624 O   0  0  0  0  0  0  0  0  0  0  0  0
    3.0566    3.2784   -2.4864 O   0  0  0  0  0  0  0  0  0  0  0  0
   -0.5753   -1.9674   -1.3821 C   0  0  0  0  0  0  0  0  0  0  0  0
    0.7604   -2.2185   -1.7446 C   0  0  0  0  0  0  0  0  0  0  0  0
    1.3015   -3.5005   -1.6103 C   0  0  0  0  0  0  0  0  0  0  0  0
    0.5144   -4.5448   -1.1193 C   0  0  0  0  0  0  0  0  0  0  0  0
   -0.8160   -4.3091   -0.7643 C   0  0  0  0  0  0  0  0  0  0  0  0
   -1.3611   -3.0283   -0.8966 C   0  0  0  0  0  0  0  0  0  0  0  0
  1  2  1  0
  2  3  1  0
  3  4  1  0
  4  5  1  0
  5  6  1  0
  6  7  2  0
  6  8  1  0
  8  9  1  0
  9 10  1  0
 10 11  2  0
 11 12  1  0
 12 13  2  0
 13 14  1  0
 14 15  2  0
 15 16  1  0
 15 17  1  0
 17 18  1  0
 17 19  2  0
 11 20  1  0
 20 21  1  0
 21 22  1  0
 22 23  2  0
 22 24  1  0
  5 25  1  0
 25 26  2  0
 26 27  1  0
 27 28  2  0
 28 29  1  0
 29 30  2  0
 21  9  2  0
 30 25  1  0
 19 12  1  0
M  END
>  <score>  (26) 
-0.726353

$$$$
HIPS441
     RDKit          3D

 29 31  0  0  0  0  0  0  0  0999 V2000
   -1.9613    2.5520   -4.0210 C   0  0  0  0  0  0  0  0  0  0  0  0
   -2.0679    1.1516   -3.4245 C   0  0  0  0  0  0  0  0  0  0  0  0
   -1.8804    1.1910   -1.9665 N   0  0  0  0  0  0  0  0  0  0  0  0
   -3.0780    1.2704   -1.1155 C   0  0  0  0  0  0  0  0  0  0  0  0
   -3.7804   -0.0643   -1.0264 C   0  0  0  0  0  0  0  0  0  0  0  0
   -5.1789   -0.1296   -1.1612 C   0  0  0  0  0  0  0  0  0  0  0  0
   -5.8432   -1.3556   -1.0567 C   0  0  0  0  0  0  0  0  0  0  0  0
   -5.1210   -2.5250   -0.8074 C   0  0  0  0  0  0  0  0  0  0  0  0
   -3.7330   -2.4703   -0.6598 C   0  0  0  0  0  0  0  0  0  0  0  0
   -3.0638   -1.2469   -0.7642 C   0  0  0  0  0  0  0  0  0  0  0  0
   -0.5392    1.1812   -1.4204 C   0  0  0  0  0  0  0  0  0  0  0  0
    0.4312    1.4845   -2.1678 O   0  0  0  0  0  0  0  0  0  0  0  0
   -0.2867    0.8305   -0.0458 N   0  0  0  0  0  0  0  0  0  0  0  0
    1.0370    0.6828    0.4912 C   0  0  0  0  0  0  0  0  0  0  0  0
    2.0780    0.0410   -0.2041 C   0  0  0  0  0  0  0  0  0  0  0  0
    3.2593   -0.0693    0.5305 C   0  0  0  0  0  0  0  0  0  0  0  0
    4.5286   -0.6974    0.0831 C   0  0  0  0  0  0  0  0  0  0  0  0
    5.5316   -1.0168    1.0184 C   0  0  0  0  0  0  0  0  0  0  0  0
    6.7293   -1.6090    0.6033 C   0  0  0  0  0  0  0  0  0  0  0  0
    7.9659   -2.0073    1.7821 Cl  0  0  0  0  0  0  0  0  0  0  0  0
    6.9413   -1.8856   -0.7493 C   0  0  0  0  0  0  0  0  0  0  0  0
    5.9576   -1.5693   -1.6895 C   0  0  0  0  0  0  0  0  0  0  0  0
    6.2295   -1.9102   -3.3888 Cl  0  0  0  0  0  0  0  0  0  0  0  0
    4.7581   -0.9777   -1.2782 C   0  0  0  0  0  0  0  0  0  0  0  0
    2.9878    0.6186    2.0462 S   0  0  0  0  0  0  0  0  0  0  0  0
    1.3881    1.0651    1.7891 C   0  0  0  0  0  0  0  0  0  0  0  0
    0.5611    1.7752    2.7795 C   0  0  0  0  0  0  0  0  0  0  0  0
   -0.5789    2.2147    2.4725 O   0  0  0  0  0  0  0  0  0  0  0  0
    1.0524    1.9803    4.0654 O   0  0  0  0  0  0  0  0  0  0  0  0
  1  2  1  0
  2  3  1  0
  3  4  1  0
  4  5  1  0
  5  6  2  0
  6  7  1  0
  7  8  2  0
  8  9  1  0
  9 10  2  0
  3 11  1  0
 11 12  2  0
 11 13  1  0
 13 14  1  0
 14 15  1  0
 15 16  2  0
 16 17  1  0
 17 18  2  0
 18 19  1  0
 19 20  1  0
 19 21  2  0
 21 22  1  0
 22 23  1  0
 22 24  2  0
 16 25  1  0
 25 26  1  0
 26 27  1  0
 27 28  2  0
 27 29  1  0
 10  5  1  0
 26 14  2  0
 24 17  1  0
M  END
>  <score>  (27) 
0.315267

$$$$
HIPS448
     RDKit          3D

 27 29  0  0  0  0  0  0  0  0999 V2000
    2.0290    0.4974   -3.1174 C   0  0  0  0  0  0  0  0  0  0  0  0
    0.7410    0.2255   -2.4722 N   0  0  0  0  0  0  0  0  0  0  0  0
    0.6825   -0.1334   -1.0749 C   0  0  0  0  0  0  0  0  0  0  0  0
   -0.4305   -0.1373   -0.4797 O   0  0  0  0  0  0  0  0  0  0  0  0
    1.8726   -0.5015   -0.3557 N   0  0  0  0  0  0  0  0  0  0  0  0
    1.9310   -0.5589    1.0787 C   0  0  0  0  0  0  0  0  0  0  0  0
    1.2684    0.3667    1.9058 C   0  0  0  0  0  0  0  0  0  0  0  0
    1.5174    0.1841    3.2667 C   0  0  0  0  0  0  0  0  0  0  0  0
    0.9753    0.9952    4.3868 C   0  0  0  0  0  0  0  0  0  0  0  0
    1.5383    0.8958    5.6722 C   0  0  0  0  0  0  0  0  0  0  0  0
    1.0331    1.6553    6.7303 C   0  0  0  0  0  0  0  0  0  0  0  0
   -0.0428    2.5234    6.5265 C   0  0  0  0  0  0  0  0  0  0  0  0
   -0.6499    3.4619    7.8840 Cl  0  0  0  0  0  0  0  0  0  0  0  0
   -0.6188    2.6294    5.2509 C   0  0  0  0  0  0  0  0  0  0  0  0
   -1.9797    3.7032    4.9536 Cl  0  0  0  0  0  0  0  0  0  0  0  0
   -0.1118    1.8686    4.1905 C   0  0  0  0  0  0  0  0  0  0  0  0
    2.5734   -1.1206    3.4240 S   0  0  0  0  0  0  0  0  0  0  0  0
    2.7211   -1.4708    1.7868 C   0  0  0  0  0  0  0  0  0  0  0  0
    3.5171   -2.5911    1.2567 C   0  0  0  0  0  0  0  0  0  0  0  0
    3.4499   -2.9143    0.0413 O   0  0  0  0  0  0  0  0  0  0  0  0
    4.3364   -3.3178    2.1152 O   0  0  0  0  0  0  0  0  0  0  0  0
   -0.4675    0.2736   -3.2543 C   0  0  0  0  0  0  0  0  0  0  0  0
   -0.7995    1.4298   -3.9807 C   0  0  0  0  0  0  0  0  0  0  0  0
   -1.9743    1.4735   -4.7380 C   0  0  0  0  0  0  0  0  0  0  0  0
   -2.8252    0.3655   -4.7757 C   0  0  0  0  0  0  0  0  0  0  0  0
   -2.5032   -0.7879   -4.0554 C   0  0  0  0  0  0  0  0  0  0  0  0
   -1.3296   -0.8354   -3.2966 C   0  0  0  0  0  0  0  0  0  0  0  0
  1  2  1  0
  2  3  1  0
  3  4  2  0
  3  5  1  0
  5  6  1  0
  6  7  1  0
  7  8  2  0
  8  9  1  0
  9 10  2  0
 10 11  1  0
 11 12  2  0
 12 13  1  0
 12 14  1  0
 14 15  1  0
 14 16  2  0
  8 17  1  0
 17 18  1  0
 18 19  1  0
 19 20  2  0
 19 21  1  0
  2 22  1  0
 22 23  2  0
 23 24  1  0
 24 25  2  0
 25 26  1  0
 26 27  2  0
 18  6  2  0
 27 22  1  0
 16  9  1  0
M  END
>  <score>  (28) 
-0.496417

$$$$
HIPS449
     RDKit          3D

 33 36  0  0  0  0  0  0  0  0999 V2000
   -1.1672   -2.1332    4.2799 O   0  0  0  0  0  0  0  0  0  0  0  0
   -0.9013   -1.8201    3.0888 C   0  0  0  0  0  0  0  0  0  0  0  0
   -1.9282   -1.4224    2.2387 O   0  0  0  0  0  0  0  0  0  0  0  0
    0.4845   -1.9154    2.6005 C   0  0  0  0  0  0  0  0  0  0  0  0
    1.7090   -2.7521    3.3928 S   0  0  0  0  0  0  0  0  0  0  0  0
    2.8991   -2.5547    2.2130 C   0  0  0  0  0  0  0  0  0  0  0  0
    4.2867   -3.0811    2.2904 C   0  0  0  0  0  0  0  0  0  0  0  0
    5.2747   -2.6610    1.3799 C   0  0  0  0  0  0  0  0  0  0  0  0
    6.5764   -3.1619    1.4630 C   0  0  0  0  0  0  0  0  0  0  0  0
    6.9164   -4.0870    2.4535 C   0  0  0  0  0  0  0  0  0  0  0  0
    8.5656   -4.6931    2.5241 Cl  0  0  0  0  0  0  0  0  0  0  0  0
    5.9432   -4.5128    3.3706 C   0  0  0  0  0  0  0  0  0  0  0  0
    6.3287   -5.6754    4.6328 Cl  0  0  0  0  0  0  0  0  0  0  0  0
    4.6391   -4.0104    3.2875 C   0  0  0  0  0  0  0  0  0  0  0  0
    2.3379   -1.8229    1.1649 C   0  0  0  0  0  0  0  0  0  0  0  0
    1.0033   -1.4527    1.3870 C   0  0  0  0  0  0  0  0  0  0  0  0
    0.2722   -0.6680    0.4365 N   0  0  0  0  0  0  0  0  0  0  0  0
   -0.3704    0.5649    0.7949 C   0  0  0  0  0  0  0  0  0  0  0  0
   -0.1312    1.0844    1.9204 O   0  0  0  0  0  0  0  0  0  0  0  0
   -1.2848    1.2186   -0.1115 N   0  0  0  0  0  0  0  0  0  0  0  0
   -1.8909    0.4922   -1.2399 C   0  0  0  0  0  0  0  0  0  0  0  0
   -1.0831    0.6771   -2.5008 C   0  0  0  0  0  0  0  0  0  0  0  0
   -0.9676    1.9487   -3.0899 C   0  0  0  0  0  0  0  0  0  0  0  0
   -0.2243    2.1198   -4.2616 C   0  0  0  0  0  0  0  0  0  0  0  0
    0.3985    1.0234   -4.8626 C   0  0  0  0  0  0  0  0  0  0  0  0
    0.2720   -0.2479   -4.2974 C   0  0  0  0  0  0  0  0  0  0  0  0
   -0.4705   -0.4237   -3.1257 C   0  0  0  0  0  0  0  0  0  0  0  0
   -1.6125    2.6051    0.1025 C   0  0  0  0  0  0  0  0  0  0  0  0
   -2.9488    3.0092    0.2627 C   0  0  0  0  0  0  0  0  0  0  0  0
   -3.2576    4.3585    0.4612 C   0  0  0  0  0  0  0  0  0  0  0  0
   -2.2369    5.3122    0.5034 C   0  0  0  0  0  0  0  0  0  0  0  0
   -0.9050    4.9178    0.3505 C   0  0  0  0  0  0  0  0  0  0  0  0
   -0.5921    3.5697    0.1531 C   0  0  0  0  0  0  0  0  0  0  0  0
  1  2  2  0
  2  3  1  0
  2  4  1  0
  4  5  1  0
  5  6  1  0
  6  7  1  0
  7  8  2  0
  8  9  1  0
  9 10  2  0
 10 11  1  0
 10 12  1  0
 12 13  1  0
 12 14  2  0
  6 15  2  0
 15 16  1  0
 16 17  1  0
 17 18  1  0
 18 19  2  0
 18 20  1  0
 20 21  1  0
 21 22  1  0
 22 23  2  0
 23 24  1  0
 24 25  2  0
 25 26  1  0
 26 27  2  0
 20 28  1  0
 28 29  2  0
 29 30  1  0
 30 31  2  0
 31 32  1  0
 32 33  2  0
 16  4  2  0
 27 22  1  0
 33 28  1  0
 14  7  1  0
M  END
>  <score>  (29) 
-0.677065

$$$$
HIPS450
     RDKit          3D

 27 29  0  0  0  0  0  0  0  0999 V2000
   -0.5155   -1.3760   -0.7560 O   0  0  0  0  0  0  0  0  0  0  0  0
   -1.6836   -0.9122   -0.6493 C   0  0  0  0  0  0  0  0  0  0  0  0
   -2.8155   -1.7459   -0.9317 N   0  0  0  0  0  0  0  0  0  0  0  0
   -2.6818   -3.1491   -1.3163 C   0  0  0  0  0  0  0  0  0  0  0  0
   -2.2832   -3.9799   -0.1272 C   0  0  0  0  0  0  0  0  0  0  0  0
   -3.1996   -4.2095    0.9092 C   0  0  0  0  0  0  0  0  0  0  0  0
   -2.8098   -4.9653    2.0175 C   0  0  0  0  0  0  0  0  0  0  0  0
   -1.5494   -5.4698    2.0900 N   0  0  0  0  0  0  0  0  0  0  0  0
   -0.6395   -5.2587    1.1021 C   0  0  0  0  0  0  0  0  0  0  0  0
   -0.9880   -4.5085   -0.0238 C   0  0  0  0  0  0  0  0  0  0  0  0
   -1.8891    0.4400   -0.2162 N   0  0  0  0  0  0  0  0  0  0  0  0
   -0.8256    1.3957   -0.0809 C   0  0  0  0  0  0  0  0  0  0  0  0
    0.2395    1.4878   -0.9959 C   0  0  0  0  0  0  0  0  0  0  0  0
    1.1255    2.5325   -0.7256 C   0  0  0  0  0  0  0  0  0  0  0  0
    2.3413    2.8963   -1.4997 C   0  0  0  0  0  0  0  0  0  0  0  0
    3.2646    3.8198   -0.9756 C   0  0  0  0  0  0  0  0  0  0  0  0
    4.4105    4.1671   -1.6951 C   0  0  0  0  0  0  0  0  0  0  0  0
    4.6553    3.6027   -2.9495 C   0  0  0  0  0  0  0  0  0  0  0  0
    6.1090    4.0658   -3.8238 Cl  0  0  0  0  0  0  0  0  0  0  0  0
    3.7423    2.6829   -3.4881 C   0  0  0  0  0  0  0  0  0  0  0  0
    4.0093    1.9543   -5.0665 Cl  0  0  0  0  0  0  0  0  0  0  0  0
    2.5940    2.3345   -2.7665 C   0  0  0  0  0  0  0  0  0  0  0  0
    0.5653    3.3341    0.6481 S   0  0  0  0  0  0  0  0  0  0  0  0
   -0.7926    2.3786    0.9124 C   0  0  0  0  0  0  0  0  0  0  0  0
   -1.7174    2.5518    2.0458 C   0  0  0  0  0  0  0  0  0  0  0  0
   -1.6155    3.5670    2.7850 O   0  0  0  0  0  0  0  0  0  0  0  0
   -2.6873    1.5951    2.3271 O   0  0  0  0  0  0  0  0  0  0  0  0
  1  2  2  0
  2  3  1  0
  3  4  1  0
  4  5  1  0
  5  6  2  0
  6  7  1  0
  7  8  2  0
  8  9  1  0
  9 10  2  0
  2 11  1  0
 11 12  1  0
 12 13  1  0
 13 14  2  0
 14 15  1  0
 15 16  2  0
 16 17  1  0
 17 18  2  0
 18 19  1  0
 18 20  1  0
 20 21  1  0
 20 22  2  0
 14 23  1  0
 23 24  1  0
 24 25  1  0
 25 26  2  0
 25 27  1  0
 10  5  1  0
 24 12  2  0
 22 15  1  0
M  END
>  <score>  (30) 
-0.438614

$$$$
HIPS451
     RDKit          3D

 28 30  0  0  0  0  0  0  0  0999 V2000
   -1.4391    3.5545   -2.7343 C   0  0  0  0  0  0  0  0  0  0  0  0
   -0.8101    3.8513   -1.3762 C   0  0  0  0  0  0  0  0  0  0  0  0
   -1.1606    2.8180   -0.3918 N   0  0  0  0  0  0  0  0  0  0  0  0
   -2.4028    2.9383    0.3891 C   0  0  0  0  0  0  0  0  0  0  0  0
   -3.4660    2.0157   -0.1512 C   0  0  0  0  0  0  0  0  0  0  0  0
   -4.5042    2.5189   -0.9542 C   0  0  0  0  0  0  0  0  0  0  0  0
   -5.4786    1.6584   -1.4694 C   0  0  0  0  0  0  0  0  0  0  0  0
   -5.4258    0.2911   -1.1870 C   0  0  0  0  0  0  0  0  0  0  0  0
   -4.3993   -0.2177   -0.3875 C   0  0  0  0  0  0  0  0  0  0  0  0
   -3.4231    0.6393    0.1293 C   0  0  0  0  0  0  0  0  0  0  0  0
   -0.3164    1.6564   -0.2659 C   0  0  0  0  0  0  0  0  0  0  0  0
    0.1578    1.1235   -1.3055 O   0  0  0  0  0  0  0  0  0  0  0  0
   -0.0116    1.1078    1.0289 N   0  0  0  0  0  0  0  0  0  0  0  0
    0.8037   -0.0593    1.2256 C   0  0  0  0  0  0  0  0  0  0  0  0
    1.9682   -0.3178    0.4782 C   0  0  0  0  0  0  0  0  0  0  0  0
    2.6463   -1.4715    0.8732 C   0  0  0  0  0  0  0  0  0  0  0  0
    3.9016   -2.0093    0.2891 C   0  0  0  0  0  0  0  0  0  0  0  0
    4.3806   -1.5471   -0.9527 C   0  0  0  0  0  0  0  0  0  0  0  0
    5.5626   -2.0618   -1.4941 C   0  0  0  0  0  0  0  0  0  0  0  0
    6.2806   -3.0438   -0.8075 C   0  0  0  0  0  0  0  0  0  0  0  0
    7.8944   -3.7445   -1.5505 Br  0  0  0  0  0  0  0  0  0  0  0  0
    5.8144   -3.5141    0.4223 C   0  0  0  0  0  0  0  0  0  0  0  0
    4.6328   -3.0033    0.9677 C   0  0  0  0  0  0  0  0  0  0  0  0
    1.8002   -2.1466    2.1651 S   0  0  0  0  0  0  0  0  0  0  0  0
    0.5730   -1.0005    2.2354 C   0  0  0  0  0  0  0  0  0  0  0  0
   -0.5423   -1.0540    3.1967 C   0  0  0  0  0  0  0  0  0  0  0  0
   -1.4814   -0.2166    3.1471 O   0  0  0  0  0  0  0  0  0  0  0  0
   -0.5650   -2.0516    4.1665 O   0  0  0  0  0  0  0  0  0  0  0  0
  1  2  1  0
  2  3  1  0
  3  4  1  0
  4  5  1  0
  5  6  2  0
  6  7  1  0
  7  8  2  0
  8  9  1  0
  9 10  2  0
  3 11  1  0
 11 12  2  0
 11 13  1  0
 13 14  1  0
 14 15  1  0
 15 16  2  0
 16 17  1  0
 17 18  2  0
 18 19  1  0
 19 20  2  0
 20 21  1  0
 20 22  1  0
 22 23  2  0
 16 24  1  0
 24 25  1  0
 25 26  1  0
 26 27  2  0
 26 28  1  0
 10  5  1  0
 25 14  2  0
 23 17  1  0
M  END
>  <score>  (31) 
-0.300895

$$$$
HIPS452
     RDKit          3D

 28 30  0  0  0  0  0  0  0  0999 V2000
   -3.4894    2.0131   -2.6466 C   0  0  0  0  0  0  0  0  0  0  0  0
   -3.0355    2.5199   -1.2806 C   0  0  0  0  0  0  0  0  0  0  0  0
   -2.7327    1.4040   -0.3736 N   0  0  0  0  0  0  0  0  0  0  0  0
   -3.8061    0.8013    0.4334 C   0  0  0  0  0  0  0  0  0  0  0  0
   -4.2970   -0.4767   -0.1982 C   0  0  0  0  0  0  0  0  0  0  0  0
   -3.5286   -1.6508   -0.1179 C   0  0  0  0  0  0  0  0  0  0  0  0
   -3.9782   -2.8314   -0.7168 C   0  0  0  0  0  0  0  0  0  0  0  0
   -5.1968   -2.8503   -1.4000 C   0  0  0  0  0  0  0  0  0  0  0  0
   -5.9688   -1.6888   -1.4833 C   0  0  0  0  0  0  0  0  0  0  0  0
   -5.5233   -0.5062   -0.8848 C   0  0  0  0  0  0  0  0  0  0  0  0
   -1.4009    0.8529   -0.3590 C   0  0  0  0  0  0  0  0  0  0  0  0
   -0.7756    0.7210   -1.4458 O   0  0  0  0  0  0  0  0  0  0  0  0
   -0.7862    0.4571    0.8798 N   0  0  0  0  0  0  0  0  0  0  0  0
    0.4916   -0.1944    0.9603 C   0  0  0  0  0  0  0  0  0  0  0  0
    1.5981    0.1859    0.1780 C   0  0  0  0  0  0  0  0  0  0  0  0
    2.7613   -0.5303    0.4626 C   0  0  0  0  0  0  0  0  0  0  0  0
    4.0889   -0.3631   -0.1820 C   0  0  0  0  0  0  0  0  0  0  0  0
    5.2382   -0.9275    0.4020 C   0  0  0  0  0  0  0  0  0  0  0  0
    6.4909   -0.7751   -0.1992 C   0  0  0  0  0  0  0  0  0  0  0  0
    6.6173   -0.0703   -1.4037 C   0  0  0  0  0  0  0  0  0  0  0  0
    7.9674    0.1263   -2.0271 C   0  0  0  0  0  0  0  0  0  0  0  0
    5.4797    0.5056   -1.9850 C   0  0  0  0  0  0  0  0  0  0  0  0
    4.2259    0.3551   -1.3852 C   0  0  0  0  0  0  0  0  0  0  0  0
    2.4047   -1.6160    1.7016 S   0  0  0  0  0  0  0  0  0  0  0  0
    0.7859   -1.2003    1.8865 C   0  0  0  0  0  0  0  0  0  0  0  0
   -0.1264   -1.8445    2.8480 C   0  0  0  0  0  0  0  0  0  0  0  0
    0.3245   -2.6932    3.6628 O   0  0  0  0  0  0  0  0  0  0  0  0
   -1.4835   -1.5405    2.8599 O   0  0  0  0  0  0  0  0  0  0  0  0
  1  2  1  0
  2  3  1  0
  3  4  1  0
  4  5  1  0
  5  6  2  0
  6  7  1  0
  7  8  2  0
  8  9  1  0
  9 10  2  0
  3 11  1  0
 11 12  2  0
 11 13  1  0
 13 14  1  0
 14 15  1  0
 15 16  2  0
 16 17  1  0
 17 18  2  0
 18 19  1  0
 19 20  2  0
 20 21  1  0
 20 22  1  0
 22 23  2  0
 16 24  1  0
 24 25  1  0
 25 26  1  0
 26 27  2  0
 26 28  1  0
 10  5  1  0
 25 14  2  0
 23 17  1  0
M  END
>  <score>  (32) 
-0.065204

$$$$
HIPS456
     RDKit          3D

 32 34  0  0  0  0  0  0  0  0999 V2000
   -1.4097    4.3506   -3.1048 C   0  0  0  0  0  0  0  0  0  0  0  0
   -1.4792    3.9151   -1.6443 C   0  0  0  0  0  0  0  0  0  0  0  0
   -2.0598    2.5653   -1.5331 N   0  0  0  0  0  0  0  0  0  0  0  0
   -3.4388    2.4578   -1.0187 C   0  0  0  0  0  0  0  0  0  0  0  0
   -3.4531    2.4852    0.4915 C   0  0  0  0  0  0  0  0  0  0  0  0
   -2.8818    1.4354    1.2315 C   0  0  0  0  0  0  0  0  0  0  0  0
   -2.8973    1.4683    2.6315 C   0  0  0  0  0  0  0  0  0  0  0  0
   -3.4914    2.5418    3.3032 C   0  0  0  0  0  0  0  0  0  0  0  0
   -4.0670    3.5866    2.5770 C   0  0  0  0  0  0  0  0  0  0  0  0
   -4.0450    3.5632    1.1772 C   0  0  0  0  0  0  0  0  0  0  0  0
   -1.2272    1.4127   -1.8308 C   0  0  0  0  0  0  0  0  0  0  0  0
   -0.0256    1.5979   -2.1720 O   0  0  0  0  0  0  0  0  0  0  0  0
   -1.7363    0.0638   -1.7794 N   0  0  0  0  0  0  0  0  0  0  0  0
   -0.8908   -1.0930   -1.8927 C   0  0  0  0  0  0  0  0  0  0  0  0
    0.3723   -1.1819   -1.2779 C   0  0  0  0  0  0  0  0  0  0  0  0
    0.9930   -2.4234   -1.4404 C   0  0  0  0  0  0  0  0  0  0  0  0
    2.3156   -2.8451   -0.9043 C   0  0  0  0  0  0  0  0  0  0  0  0
    2.8292   -4.1205   -1.2070 C   0  0  0  0  0  0  0  0  0  0  0  0
    4.0685   -4.5278   -0.7026 C   0  0  0  0  0  0  0  0  0  0  0  0
    4.8167   -3.6839    0.1217 C   0  0  0  0  0  0  0  0  0  0  0  0
    6.0451   -4.1552    0.6148 O   0  0  0  0  0  0  0  0  0  0  0  0
    6.9320   -3.4209    1.4553 C   0  0  0  0  0  0  0  0  0  0  0  0
    6.2970   -3.0735    2.6339 F   0  0  0  0  0  0  0  0  0  0  0  0
    7.3700   -2.2802    0.8046 F   0  0  0  0  0  0  0  0  0  0  0  0
    8.0249   -4.2102    1.7555 F   0  0  0  0  0  0  0  0  0  0  0  0
    4.3136   -2.4053    0.4245 C   0  0  0  0  0  0  0  0  0  0  0  0
    3.0761   -1.9937   -0.0803 C   0  0  0  0  0  0  0  0  0  0  0  0
   -0.0504   -3.3992   -2.3368 S   0  0  0  0  0  0  0  0  0  0  0  0
   -1.2836   -2.2750   -2.5301 C   0  0  0  0  0  0  0  0  0  0  0  0
   -2.5294   -2.5418   -3.2693 C   0  0  0  0  0  0  0  0  0  0  0  0
   -3.3309   -1.6083   -3.5448 O   0  0  0  0  0  0  0  0  0  0  0  0
   -2.8187   -3.8402   -3.6810 O   0  0  0  0  0  0  0  0  0  0  0  0
  1  2  1  0
  2  3  1  0
  3  4  1  0
  4  5  1  0
  5  6  2  0
  6  7  1  0
  7  8  2  0
  8  9  1  0
  9 10  2  0
  3 11  1  0
 11 12  2  0
 11 13  1  0
 13 14  1  0
 14 15  1  0
 15 16  2  0
 16 17  1  0
 17 18  2  0
 18 19  1  0
 19 20  2  0
 20 21  1  0
 21 22  1  0
 22 23  1  0
 22 24  1  0
 22 25  1  0
 20 26  1  0
 26 27  2  0
 16 28  1  0
 28 29  1  0
 29 30  1  0
 30 31  2  0
 30 32  1  0
 10  5  1  0
 29 14  2  0
 27 17  1  0
M  END
>  <score>  (33) 
-0.506282

$$$$
HIPS470
     RDKit          3D

 30 33  0  0  0  0  0  0  0  0999 V2000
   -0.5648    0.4752   -1.5810 O   0  0  0  0  0  0  0  0  0  0  0  0
   -0.3082    0.0916   -0.4068 C   0  0  0  0  0  0  0  0  0  0  0  0
   -1.0934    0.5814    0.6951 N   0  0  0  0  0  0  0  0  0  0  0  0
   -2.1719    1.5163    0.5382 C   0  0  0  0  0  0  0  0  0  0  0  0
   -2.0935    2.6426   -0.3010 C   0  0  0  0  0  0  0  0  0  0  0  0
   -3.2190    3.4659   -0.2425 C   0  0  0  0  0  0  0  0  0  0  0  0
   -3.4395    4.7258   -0.9976 C   0  0  0  0  0  0  0  0  0  0  0  0
   -2.6238    5.0670   -2.0946 C   0  0  0  0  0  0  0  0  0  0  0  0
   -2.8415    6.2548   -2.7994 C   0  0  0  0  0  0  0  0  0  0  0  0
   -3.8746    7.1163   -2.4223 C   0  0  0  0  0  0  0  0  0  0  0  0
   -4.1450    8.6056   -3.3088 Cl  0  0  0  0  0  0  0  0  0  0  0  0
   -4.6935    6.7879   -1.3392 C   0  0  0  0  0  0  0  0  0  0  0  0
   -4.4803    5.6011   -0.6318 C   0  0  0  0  0  0  0  0  0  0  0  0
   -4.2924    2.7897    0.8687 S   0  0  0  0  0  0  0  0  0  0  0  0
   -3.3548    1.4556    1.2792 C   0  0  0  0  0  0  0  0  0  0  0  0
   -3.7742    0.4054    2.2228 C   0  0  0  0  0  0  0  0  0  0  0  0
   -4.8307    0.5533    2.8933 O   0  0  0  0  0  0  0  0  0  0  0  0
   -3.0287   -0.7604    2.3672 O   0  0  0  0  0  0  0  0  0  0  0  0
    0.8008   -0.8679   -0.1901 C   0  0  0  0  0  0  0  0  0  0  0  0
    1.8831   -0.8998   -1.0856 C   0  0  0  0  0  0  0  0  0  0  0  0
    2.9349   -1.8008   -0.8989 C   0  0  0  0  0  0  0  0  0  0  0  0
    2.9233   -2.6985    0.1823 C   0  0  0  0  0  0  0  0  0  0  0  0
    4.0407   -3.6571    0.3801 C   0  0  0  0  0  0  0  0  0  0  0  0
    3.7848   -4.9833    0.7780 C   0  0  0  0  0  0  0  0  0  0  0  0
    4.8388   -5.8833    0.9628 C   0  0  0  0  0  0  0  0  0  0  0  0
    6.1569   -5.4716    0.7542 C   0  0  0  0  0  0  0  0  0  0  0  0
    6.4240   -4.1588    0.3596 C   0  0  0  0  0  0  0  0  0  0  0  0
    5.3739   -3.2547    0.1724 C   0  0  0  0  0  0  0  0  0  0  0  0
    1.8334   -2.6771    1.0695 C   0  0  0  0  0  0  0  0  0  0  0  0
    0.7825   -1.7743    0.8844 C   0  0  0  0  0  0  0  0  0  0  0  0
  1  2  2  0
  2  3  1  0
  3  4  1  0
  4  5  1  0
  5  6  2  0
  6  7  1  0
  7  8  2  0
  8  9  1  0
  9 10  2  0
 10 11  1  0
 10 12  1  0
 12 13  2  0
  6 14  1  0
 14 15  1  0
 15 16  1  0
 16 17  2  0
 16 18  1  0
  2 19  1  0
 19 20  2  0
 20 21  1  0
 21 22  2  0
 22 23  1  0
 23 24  2  0
 24 25  1  0
 25 26  2  0
 26 27  1  0
 27 28  2  0
 22 29  1  0
 29 30  2  0
 15  4  2  0
 30 19  1  0
 13  7  1  0
 28 23  1  0
M  END
>  <score>  (34) 
-0.799211

$$$$
HIPS477
     RDKit          3D

 29 31  0  0  0  0  0  0  0  0999 V2000
   -2.2758    2.8466   -2.1112 C   0  0  0  0  0  0  0  0  0  0  0  0
   -3.3828    2.4039   -1.1540 C   0  0  0  0  0  0  0  0  0  0  0  0
   -2.8413    1.6009   -0.0435 N   0  0  0  0  0  0  0  0  0  0  0  0
   -2.8288    2.1623    1.3200 C   0  0  0  0  0  0  0  0  0  0  0  0
   -1.4315    2.5544    1.7253 C   0  0  0  0  0  0  0  0  0  0  0  0
   -0.6737    1.7376    2.5828 C   0  0  0  0  0  0  0  0  0  0  0  0
    0.6369    2.0913    2.9178 C   0  0  0  0  0  0  0  0  0  0  0  0
    1.1977    3.2653    2.4088 C   0  0  0  0  0  0  0  0  0  0  0  0
    0.4455    4.0923    1.5706 C   0  0  0  0  0  0  0  0  0  0  0  0
   -0.8649    3.7415    1.2324 C   0  0  0  0  0  0  0  0  0  0  0  0
   -2.3722    0.2557   -0.3010 C   0  0  0  0  0  0  0  0  0  0  0  0
   -2.3780   -0.1983   -1.4784 O   0  0  0  0  0  0  0  0  0  0  0  0
   -1.9110   -0.5860    0.7645 N   0  0  0  0  0  0  0  0  0  0  0  0
   -0.9449   -1.6258    0.5643 C   0  0  0  0  0  0  0  0  0  0  0  0
   -1.0857   -3.1556    1.2376 S   0  0  0  0  0  0  0  0  0  0  0  0
    0.3022   -3.7903    0.5392 C   0  0  0  0  0  0  0  0  0  0  0  0
    0.9190   -2.7969   -0.2205 C   0  0  0  0  0  0  0  0  0  0  0  0
    2.2193   -3.0329   -0.8861 C   0  0  0  0  0  0  0  0  0  0  0  0
    3.3013   -2.1644   -0.6707 C   0  0  0  0  0  0  0  0  0  0  0  0
    4.5322   -2.4055   -1.2860 C   0  0  0  0  0  0  0  0  0  0  0  0
    4.7016   -3.5206   -2.1134 C   0  0  0  0  0  0  0  0  0  0  0  0
    6.2659   -3.7905   -2.8697 Cl  0  0  0  0  0  0  0  0  0  0  0  0
    3.6291   -4.4043   -2.3210 C   0  0  0  0  0  0  0  0  0  0  0  0
    3.8018   -5.8218   -3.3471 Cl  0  0  0  0  0  0  0  0  0  0  0  0
    2.3966   -4.1608   -1.7033 C   0  0  0  0  0  0  0  0  0  0  0  0
    0.2179   -1.5649   -0.2141 C   0  0  0  0  0  0  0  0  0  0  0  0
    0.6685   -0.3527   -0.9290 C   0  0  0  0  0  0  0  0  0  0  0  0
    1.2346   -0.4508   -2.0505 O   0  0  0  0  0  0  0  0  0  0  0  0
    0.4766    0.9044   -0.3654 O   0  0  0  0  0  0  0  0  0  0  0  0
  1  2  1  0
  2  3  1  0
  3  4  1  0
  4  5  1  0
  5  6  2  0
  6  7  1  0
  7  8  2  0
  8  9  1  0
  9 10  2  0
  3 11  1  0
 11 12  2  0
 11 13  1  0
 13 14  1  0
 14 15  1  0
 15 16  1  0
 16 17  2  0
 17 18  1  0
 18 19  2  0
 19 20  1  0
 20 21  2  0
 21 22  1  0
 21 23  1  0
 23 24  1  0
 23 25  2  0
 17 26  1  0
 26 27  1  0
 27 28  2  0
 27 29  1  0
 10  5  1  0
 26 14  2  0
 25 18  1  0
M  END
>  <score>  (35) 
-0.169582

$$$$
HIPS478
     RDKit          3D

 26 27  0  0  0  0  0  0  0  0999 V2000
    5.8694   -0.2847    2.6249 C   0  0  0  0  0  0  0  0  0  0  0  0
    4.9756    0.7924    3.2355 C   0  0  0  0  0  0  0  0  0  0  0  0
    4.4155    1.7733    2.1919 C   0  0  0  0  0  0  0  0  0  0  0  0
    3.4175    1.1254    1.2094 C   0  0  0  0  0  0  0  0  0  0  0  0
    4.0576    0.8274   -0.1567 C   0  0  0  0  0  0  0  0  0  0  0  0
    3.1066    0.0653   -1.0857 C   0  0  0  0  0  0  0  0  0  0  0  0
    1.9592    0.8955   -1.4519 N   0  0  0  0  0  0  0  0  0  0  0  0
    0.6646    0.7471   -0.8528 C   0  0  0  0  0  0  0  0  0  0  0  0
    0.4593   -0.1620   -0.0024 O   0  0  0  0  0  0  0  0  0  0  0  0
   -0.3864    1.6579   -1.2023 N   0  0  0  0  0  0  0  0  0  0  0  0
   -1.7168    1.5449   -0.6829 C   0  0  0  0  0  0  0  0  0  0  0  0
   -2.5128    2.7970    0.0986 S   0  0  0  0  0  0  0  0  0  0  0  0
   -3.9067    1.9300    0.4507 C   0  0  0  0  0  0  0  0  0  0  0  0
   -3.7795    0.6409   -0.0661 C   0  0  0  0  0  0  0  0  0  0  0  0
   -4.8936   -0.3290    0.0066 C   0  0  0  0  0  0  0  0  0  0  0  0
   -5.3765   -0.9513   -1.1556 C   0  0  0  0  0  0  0  0  0  0  0  0
   -6.4437   -1.8500   -1.0825 C   0  0  0  0  0  0  0  0  0  0  0  0
   -7.0490   -2.1287    0.1476 C   0  0  0  0  0  0  0  0  0  0  0  0
   -8.3898   -3.2652    0.1992 Cl  0  0  0  0  0  0  0  0  0  0  0  0
   -6.5836   -1.4966    1.3130 C   0  0  0  0  0  0  0  0  0  0  0  0
   -7.3214   -1.8122    2.8776 Cl  0  0  0  0  0  0  0  0  0  0  0  0
   -5.5138   -0.5966    1.2373 C   0  0  0  0  0  0  0  0  0  0  0  0
   -2.5382    0.4120   -0.7101 C   0  0  0  0  0  0  0  0  0  0  0  0
   -2.1570   -0.8640   -1.3518 C   0  0  0  0  0  0  0  0  0  0  0  0
   -1.3977   -0.8665   -2.3576 O   0  0  0  0  0  0  0  0  0  0  0  0
   -2.6282   -2.0719   -0.8460 O   0  0  0  0  0  0  0  0  0  0  0  0
  1  2  1  0
  2  3  1  0
  3  4  1  0
  4  5  1  0
  5  6  1  0
  6  7  1  0
  7  8  1  0
  8  9  2  0
  8 10  1  0
 10 11  1  0
 11 12  1  0
 12 13  1  0
 13 14  2  0
 14 15  1  0
 15 16  2  0
 16 17  1  0
 17 18  2  0
 18 19  1  0
 18 20  1  0
 20 21  1  0
 20 22  2  0
 14 23  1  0
 23 24  1  0
 24 25  2  0
 24 26  1  0
 23 11  2  0
 22 15  1  0
M  END
>  <score>  (36) 
-1.455511

$$$$
HIPS482
     RDKit          3D

 29 31  0  0  0  0  0  0  0  0999 V2000
   -3.7798   -2.5317   -1.6587 C   0  0  0  0  0  0  0  0  0  0  0  0
   -3.7514   -2.7384   -0.1492 C   0  0  0  0  0  0  0  0  0  0  0  0
   -2.8069   -1.8151    0.4939 N   0  0  0  0  0  0  0  0  0  0  0  0
   -3.2989   -0.5687    1.1073 C   0  0  0  0  0  0  0  0  0  0  0  0
   -2.5259    0.6269    0.6037 C   0  0  0  0  0  0  0  0  0  0  0  0
   -1.5918    1.2795    1.4308 C   0  0  0  0  0  0  0  0  0  0  0  0
   -0.8256    2.3355    0.9332 C   0  0  0  0  0  0  0  0  0  0  0  0
   -0.9974    2.7609   -0.3861 C   0  0  0  0  0  0  0  0  0  0  0  0
   -1.9399    2.1340   -1.2087 C   0  0  0  0  0  0  0  0  0  0  0  0
   -2.7006    1.0704   -0.7189 C   0  0  0  0  0  0  0  0  0  0  0  0
   -1.4146   -2.1795    0.5903 C   0  0  0  0  0  0  0  0  0  0  0  0
   -0.8873   -2.9038   -0.2974 O   0  0  0  0  0  0  0  0  0  0  0  0
   -0.6194   -1.7282    1.6931 N   0  0  0  0  0  0  0  0  0  0  0  0
    0.6957   -1.1793    1.5168 C   0  0  0  0  0  0  0  0  0  0  0  0
    1.0919   -0.5306    0.3325 C   0  0  0  0  0  0  0  0  0  0  0  0
    2.3337    0.0925    0.4215 C   0  0  0  0  0  0  0  0  0  0  0  0
    2.9957    0.9111   -0.6242 C   0  0  0  0  0  0  0  0  0  0  0  0
    4.3671    1.2111   -0.5227 C   0  0  0  0  0  0  0  0  0  0  0  0
    4.9975    1.9955   -1.4921 C   0  0  0  0  0  0  0  0  0  0  0  0
    4.2668    2.4960   -2.5746 C   0  0  0  0  0  0  0  0  0  0  0  0
    4.9158    3.3073   -3.5699 C   0  0  0  0  0  0  0  0  0  0  0  0
    5.4368    3.9595   -4.3710 N   0  0  0  0  0  0  0  0  0  0  0  0
    2.9026    2.2060   -2.6862 C   0  0  0  0  0  0  0  0  0  0  0  0
    2.2703    1.4176   -1.7200 C   0  0  0  0  0  0  0  0  0  0  0  0
    2.9371   -0.1865    1.9697 S   0  0  0  0  0  0  0  0  0  0  0  0
    1.6364   -1.0829    2.5439 C   0  0  0  0  0  0  0  0  0  0  0  0
    1.5651   -1.6750    3.8905 C   0  0  0  0  0  0  0  0  0  0  0  0
    2.4570   -1.4071    4.7385 O   0  0  0  0  0  0  0  0  0  0  0  0
    0.5363   -2.5459    4.2329 O   0  0  0  0  0  0  0  0  0  0  0  0
  1  2  1  0
  2  3  1  0
  3  4  1  0
  4  5  1  0
  5  6  2  0
  6  7  1  0
  7  8  2  0
  8  9  1  0
  9 10  2  0
  3 11  1  0
 11 12  2  0
 11 13  1  0
 13 14  1  0
 14 15  1  0
 15 16  2  0
 16 17  1  0
 17 18  2  0
 18 19  1  0
 19 20  2  0
 20 21  1  0
 21 22  3  0
 20 23  1  0
 23 24  2  0
 16 25  1  0
 25 26  1  0
 26 27  1  0
 27 28  2  0
 27 29  1  0
 10  5  1  0
 26 14  2  0
 24 17  1  0
M  END
>  <score>  (37) 
0.342203

$$$$
HIPS495
     RDKit          3D

 26 27  0  0  0  0  0  0  0  0999 V2000
    6.2154    4.1798   -0.6664 C   0  0  0  0  0  0  0  0  0  0  0  0
    4.9131    3.3984   -0.5188 C   0  0  0  0  0  0  0  0  0  0  0  0
    4.0061    3.5982   -1.7384 C   0  0  0  0  0  0  0  0  0  0  0  0
    2.6994    2.8111   -1.5862 C   0  0  0  0  0  0  0  0  0  0  0  0
    1.7949    3.0030   -2.8113 C   0  0  0  0  0  0  0  0  0  0  0  0
    0.4477    2.2904   -2.6506 C   0  0  0  0  0  0  0  0  0  0  0  0
    0.6254    0.8384   -2.6313 N   0  0  0  0  0  0  0  0  0  0  0  0
    0.5888    0.0621   -1.4253 C   0  0  0  0  0  0  0  0  0  0  0  0
    0.3399    0.6199   -0.3219 O   0  0  0  0  0  0  0  0  0  0  0  0
    0.8702   -1.3440   -1.4798 N   0  0  0  0  0  0  0  0  0  0  0  0
    0.7017   -2.2312   -0.3621 C   0  0  0  0  0  0  0  0  0  0  0  0
   -0.4337   -2.0301    0.8636 S   0  0  0  0  0  0  0  0  0  0  0  0
   -0.1370   -3.4911    1.6500 C   0  0  0  0  0  0  0  0  0  0  0  0
   -0.8305   -3.9643    2.8761 C   0  0  0  0  0  0  0  0  0  0  0  0
   -0.3327   -5.0522    3.6178 C   0  0  0  0  0  0  0  0  0  0  0  0
   -0.9925   -5.4876    4.7699 C   0  0  0  0  0  0  0  0  0  0  0  0
   -2.1562   -4.8469    5.2034 C   0  0  0  0  0  0  0  0  0  0  0  0
   -2.9565   -5.4254    6.6584 Cl  0  0  0  0  0  0  0  0  0  0  0  0
   -2.6624   -3.7583    4.4767 C   0  0  0  0  0  0  0  0  0  0  0  0
   -4.1236   -2.9233    4.9874 Cl  0  0  0  0  0  0  0  0  0  0  0  0
   -2.0008   -3.3219    3.3226 C   0  0  0  0  0  0  0  0  0  0  0  0
    0.8581   -4.1653    0.9383 C   0  0  0  0  0  0  0  0  0  0  0  0
    1.3317   -3.4690   -0.1888 C   0  0  0  0  0  0  0  0  0  0  0  0
    2.4095   -4.0100   -1.0427 C   0  0  0  0  0  0  0  0  0  0  0  0
    3.0036   -3.2765   -1.8768 O   0  0  0  0  0  0  0  0  0  0  0  0
    2.7991   -5.3393   -0.9049 O   0  0  0  0  0  0  0  0  0  0  0  0
  1  2  1  0
  2  3  1  0
  3  4  1  0
  4  5  1  0
  5  6  1  0
  6  7  1  0
  7  8  1  0
  8  9  2  0
  8 10  1  0
 10 11  1  0
 11 12  1  0
 12 13  1  0
 13 14  1  0
 14 15  2  0
 15 16  1  0
 16 17  2  0
 17 18  1  0
 17 19  1  0
 19 20  1  0
 19 21  2  0
 13 22  2  0
 22 23  1  0
 23 24  1  0
 24 25  2  0
 24 26  1  0
 23 11  2  0
 21 14  1  0
M  END
>  <score>  (38) 
0.554324

$$$$
HIPS5021
     RDKit          3D

 21 23  0  0  0  0  0  0  0  0999 V2000
    5.3302    1.8908   -0.7220 O   0  0  0  0  0  0  0  0  0  0  0  0
    5.3073    0.5639   -0.2725 C   0  0  0  0  0  0  0  0  0  0  0  0
    3.9125    0.0047   -0.3819 C   0  0  0  0  0  0  0  0  0  0  0  0
    3.0173    0.1567    0.6897 C   0  0  0  0  0  0  0  0  0  0  0  0
    1.7053   -0.3227    0.6038 C   0  0  0  0  0  0  0  0  0  0  0  0
    0.8584   -0.1419    1.7105 O   0  0  0  0  0  0  0  0  0  0  0  0
   -0.5066   -0.5611    1.7785 C   0  0  0  0  0  0  0  0  0  0  0  0
   -1.4196    0.2846    0.9049 C   0  0  0  0  0  0  0  0  0  0  0  0
   -1.0079    1.5774    0.5230 C   0  0  0  0  0  0  0  0  0  0  0  0
   -1.8062    2.3730   -0.2964 C   0  0  0  0  0  0  0  0  0  0  0  0
   -3.0430    1.9111   -0.7355 C   0  0  0  0  0  0  0  0  0  0  0  0
   -3.5086    0.6525   -0.3355 C   0  0  0  0  0  0  0  0  0  0  0  0
   -4.7727    0.2111   -0.7579 C   0  0  0  0  0  0  0  0  0  0  0  0
   -5.2611   -1.0270   -0.3423 C   0  0  0  0  0  0  0  0  0  0  0  0
   -4.4991   -1.8311    0.5035 C   0  0  0  0  0  0  0  0  0  0  0  0
   -3.2373   -1.4102    0.9307 C   0  0  0  0  0  0  0  0  0  0  0  0
   -2.7092   -0.1695    0.5071 C   0  0  0  0  0  0  0  0  0  0  0  0
    1.2818   -0.9562   -0.5792 C   0  0  0  0  0  0  0  0  0  0  0  0
    2.1602   -1.0955   -1.6557 C   0  0  0  0  0  0  0  0  0  0  0  0
    3.4725   -0.6130   -1.5678 C   0  0  0  0  0  0  0  0  0  0  0  0
    4.3370   -0.7443   -2.6546 O   0  0  0  0  0  0  0  0  0  0  0  0
  1  2  1  0
  2  3  1  0
  3  4  2  0
  4  5  1  0
  5  6  1  0
  6  7  1  0
  7  8  1  0
  8  9  2  0
  9 10  1  0
 10 11  2  0
 11 12  1  0
 12 13  2  0
 13 14  1  0
 14 15  2  0
 15 16  1  0
 16 17  2  0
  5 18  2  0
 18 19  1  0
 19 20  2  0
 20 21  1  0
 20  3  1  0
 17  8  1  0
 17 12  1  0
M  END
>  <score>  (39) 
1.153769

$$$$
HIPS5022
     RDKit          3D

 22 24  0  0  0  0  0  0  0  0999 V2000
    2.3961    1.9253   -1.7136 O   0  0  0  0  0  0  0  0  0  0  0  0
    2.8842    0.7704   -1.5801 C   0  0  0  0  0  0  0  0  0  0  0  0
    3.3861    0.1091   -2.6972 O   0  0  0  0  0  0  0  0  0  0  0  0
    2.8591    0.1045   -0.2589 C   0  0  0  0  0  0  0  0  0  0  0  0
    1.7630    0.3379    0.5918 C   0  0  0  0  0  0  0  0  0  0  0  0
    1.6422   -0.3356    1.8215 C   0  0  0  0  0  0  0  0  0  0  0  0
    0.5137   -0.1304    2.6947 N   0  0  0  0  0  0  0  0  0  0  0  0
   -0.6726    0.6525    2.3400 C   0  0  0  0  0  0  0  0  0  0  0  0
   -1.4634   -0.0378    1.2402 C   0  0  0  0  0  0  0  0  0  0  0  0
   -1.7813   -1.3946    1.4412 C   0  0  0  0  0  0  0  0  0  0  0  0
   -2.4709   -2.1250    0.4776 C   0  0  0  0  0  0  0  0  0  0  0  0
   -2.8727   -1.5185   -0.7068 C   0  0  0  0  0  0  0  0  0  0  0  0
   -2.6062   -0.1623   -0.9326 C   0  0  0  0  0  0  0  0  0  0  0  0
   -3.0361    0.4352   -2.1281 C   0  0  0  0  0  0  0  0  0  0  0  0
   -2.7984    1.7872   -2.3650 C   0  0  0  0  0  0  0  0  0  0  0  0
   -2.1389    2.5570   -1.4105 C   0  0  0  0  0  0  0  0  0  0  0  0
   -1.7022    1.9812   -0.2149 C   0  0  0  0  0  0  0  0  0  0  0  0
   -1.9111    0.6059    0.0463 C   0  0  0  0  0  0  0  0  0  0  0  0
    2.6427   -1.2391    2.2005 C   0  0  0  0  0  0  0  0  0  0  0  0
    3.7466   -1.4611    1.3773 C   0  0  0  0  0  0  0  0  0  0  0  0
    3.8776   -0.7850    0.1604 C   0  0  0  0  0  0  0  0  0  0  0  0
    5.0433   -0.9957   -0.5790 O   0  0  0  0  0  0  0  0  0  0  0  0
  1  2  2  0
  2  3  1  0
  2  4  1  0
  4  5  2  0
  5  6  1  0
  6  7  1  0
  7  8  1  0
  8  9  1  0
  9 10  2  0
 10 11  1  0
 11 12  2  0
 12 13  1  0
 13 14  2  0
 14 15  1  0
 15 16  2  0
 16 17  1  0
 17 18  2  0
  6 19  2  0
 19 20  1  0
 20 21  2  0
 21 22  1  0
 21  4  1  0
 18  9  1  0
 18 13  1  0
M  END
>  <score>  (40) 
0.427273

$$$$
HIPS5023
     RDKit          3D

 21 23  0  0  0  0  0  0  0  0999 V2000
    5.3203    4.1828   -3.0394 O   0  0  0  0  0  0  0  0  0  0  0  0
    4.7527    3.3182   -2.3184 C   0  0  0  0  0  0  0  0  0  0  0  0
    5.3532    2.9267   -1.1244 O   0  0  0  0  0  0  0  0  0  0  0  0
    3.4621    2.7252   -2.7348 C   0  0  0  0  0  0  0  0  0  0  0  0
    2.8580    3.1059   -3.9462 C   0  0  0  0  0  0  0  0  0  0  0  0
    1.6399    2.5444   -4.3348 C   0  0  0  0  0  0  0  0  0  0  0  0
    1.0114    1.5996   -3.5219 C   0  0  0  0  0  0  0  0  0  0  0  0
    1.5922    1.2062   -2.3119 C   0  0  0  0  0  0  0  0  0  0  0  0
    0.9174    0.2567   -1.5306 O   0  0  0  0  0  0  0  0  0  0  0  0
    1.3695   -0.2181   -0.2648 C   0  0  0  0  0  0  0  0  0  0  0  0
    0.3521   -1.1777    0.3025 C   0  0  0  0  0  0  0  0  0  0  0  0
    0.6785   -2.5436    0.3675 C   0  0  0  0  0  0  0  0  0  0  0  0
   -0.2279   -3.4718    0.8785 C   0  0  0  0  0  0  0  0  0  0  0  0
   -1.4792   -3.0585    1.3292 C   0  0  0  0  0  0  0  0  0  0  0  0
   -1.8412   -1.7061    1.2670 C   0  0  0  0  0  0  0  0  0  0  0  0
   -3.1082   -1.2991    1.7147 C   0  0  0  0  0  0  0  0  0  0  0  0
   -3.4801    0.0439    1.6485 C   0  0  0  0  0  0  0  0  0  0  0  0
   -2.5949    0.9911    1.1350 C   0  0  0  0  0  0  0  0  0  0  0  0
   -1.3294    0.6045    0.6869 C   0  0  0  0  0  0  0  0  0  0  0  0
   -0.9281   -0.7483    0.7469 C   0  0  0  0  0  0  0  0  0  0  0  0
    2.8222    1.7722   -1.9211 C   0  0  0  0  0  0  0  0  0  0  0  0
  1  2  2  0
  2  3  1  0
  2  4  1  0
  4  5  2  0
  5  6  1  0
  6  7  2  0
  7  8  1  0
  8  9  1  0
  9 10  1  0
 10 11  1  0
 11 12  2  0
 12 13  1  0
 13 14  2  0
 14 15  1  0
 15 16  2  0
 16 17  1  0
 17 18  2  0
 18 19  1  0
 19 20  2  0
  8 21  2  0
 21  4  1  0
 20 11  1  0
 20 15  1  0
M  END
>  <score>  (41) 
0.410179

$$$$
HIPS5024
     RDKit          3D

 25 27  0  0  0  0  0  0  0  0999 V2000
    3.9881    0.6647   -1.1937 O   0  0  0  0  0  0  0  0  0  0  0  0
    2.9926   -0.0082   -1.5694 C   0  0  0  0  0  0  0  0  0  0  0  0
    2.6064    0.0316   -2.9073 O   0  0  0  0  0  0  0  0  0  0  0  0
    2.1775   -0.7614   -0.5918 C   0  0  0  0  0  0  0  0  0  0  0  0
    0.7894   -0.8360   -0.8031 C   0  0  0  0  0  0  0  0  0  0  0  0
   -0.0607   -1.4195    0.1481 C   0  0  0  0  0  0  0  0  0  0  0  0
   -1.4830   -1.3989   -0.0809 N   0  0  0  0  0  0  0  0  0  0  0  0
   -2.4977   -1.7650    0.9104 C   0  0  0  0  0  0  0  0  0  0  0  0
   -2.5027   -0.8200    2.1011 C   0  0  0  0  0  0  0  0  0  0  0  0
   -2.3426   -1.3684    3.3911 C   0  0  0  0  0  0  0  0  0  0  0  0
   -2.3711   -0.5531    4.5262 C   0  0  0  0  0  0  0  0  0  0  0  0
   -2.5725    0.8203    4.3963 C   0  0  0  0  0  0  0  0  0  0  0  0
   -2.7524    1.3836    3.1314 C   0  0  0  0  0  0  0  0  0  0  0  0
   -2.7289    0.5811    1.9730 C   0  0  0  0  0  0  0  0  0  0  0  0
   -2.8961    1.2696    0.6322 C   0  0  0  0  0  0  0  0  0  0  0  0
   -1.6071    1.8129    0.0440 C   0  0  0  0  0  0  0  0  0  0  0  0
   -1.6442    2.3490   -1.2561 C   0  0  0  0  0  0  0  0  0  0  0  0
   -0.4956    2.8987   -1.8367 C   0  0  0  0  0  0  0  0  0  0  0  0
    0.7046    2.9229   -1.1230 C   0  0  0  0  0  0  0  0  0  0  0  0
    0.7569    2.4012    0.1735 C   0  0  0  0  0  0  0  0  0  0  0  0
   -0.3872    1.8527    0.7619 C   0  0  0  0  0  0  0  0  0  0  0  0
    0.4977   -1.9798    1.3078 C   0  0  0  0  0  0  0  0  0  0  0  0
    1.8775   -1.9439    1.5138 C   0  0  0  0  0  0  0  0  0  0  0  0
    2.7275   -1.3539    0.5718 C   0  0  0  0  0  0  0  0  0  0  0  0
    4.1022   -1.4057    0.8111 O   0  0  0  0  0  0  0  0  0  0  0  0
  1  2  2  0
  2  3  1  0
  2  4  1  0
  4  5  2  0
  5  6  1  0
  6  7  1  0
  7  8  1  0
  8  9  1  0
  9 10  2  0
 10 11  1  0
 11 12  2  0
 12 13  1  0
 13 14  2  0
 14 15  1  0
 15 16  1  0
 16 17  2  0
 17 18  1  0
 18 19  2  0
 19 20  1  0
 20 21  2  0
  6 22  2  0
 22 23  1  0
 23 24  2  0
 24 25  1  0
 24  4  1  0
 14  9  1  0
 21 16  1  0
M  END
>  <score>  (42) 
0.00847

$$$$
HIPS5025
     RDKit          3D

 22 24  0  0  0  0  0  0  0  0999 V2000
    3.7046    2.3829    2.9718 O   0  0  0  0  0  0  0  0  0  0  0  0
    3.1984    2.5246    1.8263 C   0  0  0  0  0  0  0  0  0  0  0  0
    3.9345    3.1767    0.8399 O   0  0  0  0  0  0  0  0  0  0  0  0
    1.8388    2.0081    1.5228 C   0  0  0  0  0  0  0  0  0  0  0  0
    1.3081    2.1867    0.2311 C   0  0  0  0  0  0  0  0  0  0  0  0
    0.0308    1.7113   -0.1038 C   0  0  0  0  0  0  0  0  0  0  0  0
   -0.4653    1.9138   -1.4420 N   0  0  0  0  0  0  0  0  0  0  0  0
   -1.6643    1.2743   -1.9866 C   0  0  0  0  0  0  0  0  0  0  0  0
   -1.4573   -0.2114   -2.1275 C   0  0  0  0  0  0  0  0  0  0  0  0
   -0.3965   -0.7005   -2.9062 C   0  0  0  0  0  0  0  0  0  0  0  0
   -0.1922   -2.0757   -3.0438 C   0  0  0  0  0  0  0  0  0  0  0  0
   -1.0514   -2.9833   -2.4088 C   0  0  0  0  0  0  0  0  0  0  0  0
   -0.8538   -4.3669   -2.5382 C   0  0  0  0  0  0  0  0  0  0  0  0
   -1.7186   -5.2616   -1.9013 C   0  0  0  0  0  0  0  0  0  0  0  0
   -2.7840   -4.7841   -1.1333 C   0  0  0  0  0  0  0  0  0  0  0  0
   -2.9920   -3.4086   -0.9967 C   0  0  0  0  0  0  0  0  0  0  0  0
   -2.1307   -2.4991   -1.6305 C   0  0  0  0  0  0  0  0  0  0  0  0
   -2.3289   -1.1163   -1.4997 C   0  0  0  0  0  0  0  0  0  0  0  0
   -0.7311    1.0565    0.8779 C   0  0  0  0  0  0  0  0  0  0  0  0
   -0.2185    0.8719    2.1616 C   0  0  0  0  0  0  0  0  0  0  0  0
    1.0594    1.3397    2.4940 C   0  0  0  0  0  0  0  0  0  0  0  0
    1.5456    1.1391    3.7861 O   0  0  0  0  0  0  0  0  0  0  0  0
  1  2  2  0
  2  3  1  0
  2  4  1  0
  4  5  2  0
  5  6  1  0
  6  7  1  0
  7  8  1  0
  8  9  1  0
  9 10  2  0
 10 11  1  0
 11 12  2  0
 12 13  1  0
 13 14  2  0
 14 15  1  0
 15 16  2  0
 16 17  1  0
 17 18  2  0
  6 19  2  0
 19 20  1  0
 20 21  2  0
 21 22  1  0
 21  4  1  0
 18  9  1  0
 17 12  1  0
M  END
>  <score>  (43) 
0.564025

$$$$
HIPS5026
     RDKit          3D

 23 25  0  0  0  0  0  0  0  0999 V2000
    1.3269    3.3182    0.6248 C   0  0  0  0  0  0  0  0  0  0  0  0
    0.4657    2.3827   -0.0111 O   0  0  0  0  0  0  0  0  0  0  0  0
    0.7208    1.8607   -1.2856 C   0  0  0  0  0  0  0  0  0  0  0  0
    1.7661    2.1961   -1.9051 O   0  0  0  0  0  0  0  0  0  0  0  0
   -0.1928    0.8387   -1.8493 C   0  0  0  0  0  0  0  0  0  0  0  0
   -0.8969    0.0136   -0.9540 C   0  0  0  0  0  0  0  0  0  0  0  0
   -1.6908   -1.0510   -1.4166 C   0  0  0  0  0  0  0  0  0  0  0  0
   -2.3822   -1.9132   -0.5479 O   0  0  0  0  0  0  0  0  0  0  0  0
   -2.3633   -1.8316    0.8792 C   0  0  0  0  0  0  0  0  0  0  0  0
   -1.0225   -2.2971    1.4186 C   0  0  0  0  0  0  0  0  0  0  0  0
   -0.5836   -3.5639    0.9946 C   0  0  0  0  0  0  0  0  0  0  0  0
    0.6517   -4.0694    1.3903 C   0  0  0  0  0  0  0  0  0  0  0  0
    1.4804   -3.3228    2.2203 C   0  0  0  0  0  0  0  0  0  0  0  0
    1.0725   -2.0640    2.6812 C   0  0  0  0  0  0  0  0  0  0  0  0
    1.9222   -1.3289    3.5237 C   0  0  0  0  0  0  0  0  0  0  0  0
    1.5303   -0.0818    4.0056 C   0  0  0  0  0  0  0  0  0  0  0  0
    0.2868    0.4404    3.6585 C   0  0  0  0  0  0  0  0  0  0  0  0
   -0.5750   -0.2777    2.8245 C   0  0  0  0  0  0  0  0  0  0  0  0
   -0.1963   -1.5380    2.3026 C   0  0  0  0  0  0  0  0  0  0  0  0
   -1.7922   -1.2740   -2.7907 C   0  0  0  0  0  0  0  0  0  0  0  0
   -1.1278   -0.4433   -3.6946 C   0  0  0  0  0  0  0  0  0  0  0  0
   -0.3461    0.6257   -3.2420 C   0  0  0  0  0  0  0  0  0  0  0  0
    0.2269    1.4639   -4.2005 O   0  0  0  0  0  0  0  0  0  0  0  0
  1  2  1  0
  2  3  1  0
  3  4  2  0
  3  5  1  0
  5  6  2  0
  6  7  1  0
  7  8  1  0
  8  9  1  0
  9 10  1  0
 10 11  2  0
 11 12  1  0
 12 13  2  0
 13 14  1  0
 14 15  2  0
 15 16  1  0
 16 17  2  0
 17 18  1  0
 18 19  2  0
  7 20  2  0
 20 21  1  0
 21 22  2  0
 22 23  1  0
 22  5  1  0
 19 10  1  0
 19 14  1  0
M  END
>  <score>  (44) 
1.153769

$$$$
HIPS5027
     RDKit          3D

 22 24  0  0  0  0  0  0  0  0999 V2000
   -4.5376    1.6301    1.4284 C   0  0  0  0  0  0  0  0  0  0  0  0
   -3.4420    0.7938    0.8198 C   0  0  0  0  0  0  0  0  0  0  0  0
   -2.2969    1.4466    0.3327 C   0  0  0  0  0  0  0  0  0  0  0  0
   -1.2666    0.7288   -0.2729 C   0  0  0  0  0  0  0  0  0  0  0  0
   -1.3566   -0.6658   -0.4022 C   0  0  0  0  0  0  0  0  0  0  0  0
   -0.3467   -1.4369   -1.0028 O   0  0  0  0  0  0  0  0  0  0  0  0
    0.8713   -0.9199   -1.5440 C   0  0  0  0  0  0  0  0  0  0  0  0
    1.8341   -0.4490   -0.4655 C   0  0  0  0  0  0  0  0  0  0  0  0
    1.7008   -0.9481    0.8460 C   0  0  0  0  0  0  0  0  0  0  0  0
    2.5486   -0.5221    1.8665 C   0  0  0  0  0  0  0  0  0  0  0  0
    3.5637    0.3918    1.6017 C   0  0  0  0  0  0  0  0  0  0  0  0
    3.7596    0.8714    0.3007 C   0  0  0  0  0  0  0  0  0  0  0  0
    4.8082    1.7676    0.0394 C   0  0  0  0  0  0  0  0  0  0  0  0
    5.0330    2.2294   -1.2569 C   0  0  0  0  0  0  0  0  0  0  0  0
    4.2216    1.7961   -2.3040 C   0  0  0  0  0  0  0  0  0  0  0  0
    3.1708    0.9077   -2.0622 C   0  0  0  0  0  0  0  0  0  0  0  0
    2.9075    0.4409   -0.7544 C   0  0  0  0  0  0  0  0  0  0  0  0
   -2.4859   -1.3251    0.0905 C   0  0  0  0  0  0  0  0  0  0  0  0
   -3.5323   -0.6206    0.7172 C   0  0  0  0  0  0  0  0  0  0  0  0
   -4.6861   -1.3949    1.2459 C   0  0  0  0  0  0  0  0  0  0  0  0
   -4.9530   -2.5316    0.7696 O   0  0  0  0  0  0  0  0  0  0  0  0
   -5.4642   -0.9030    2.2897 O   0  0  0  0  0  0  0  0  0  0  0  0
  1  2  1  0
  2  3  2  0
  3  4  1  0
  4  5  2  0
  5  6  1  0
  6  7  1  0
  7  8  1  0
  8  9  2  0
  9 10  1  0
 10 11  2  0
 11 12  1  0
 12 13  2  0
 13 14  1  0
 14 15  2  0
 15 16  1  0
 16 17  2  0
  5 18  1  0
 18 19  2  0
 19 20  1  0
 20 21  2  0
 20 22  1  0
 19  2  1  0
 17  8  1  0
 17 12  1  0
M  END
>  <score>  (45) 
0.632401

$$$$
HIPS5028
     RDKit          3D

 22 24  0  0  0  0  0  0  0  0999 V2000
   -4.0023    1.5867    2.9889 N   0  0  0  0  0  0  0  0  0  0  0  0
   -3.0266    1.0513    3.8849 C   0  0  0  0  0  0  0  0  0  0  0  0
   -3.3862    0.6724    5.0316 O   0  0  0  0  0  0  0  0  0  0  0  0
   -1.6167    0.9001    3.4623 C   0  0  0  0  0  0  0  0  0  0  0  0
   -1.3445    0.4076    2.1735 C   0  0  0  0  0  0  0  0  0  0  0  0
   -0.0308    0.1890    1.7460 C   0  0  0  0  0  0  0  0  0  0  0  0
    0.1725   -0.3058    0.4495 O   0  0  0  0  0  0  0  0  0  0  0  0
    1.4510   -0.5537   -0.1299 C   0  0  0  0  0  0  0  0  0  0  0  0
    1.2726   -1.0128   -1.5565 C   0  0  0  0  0  0  0  0  0  0  0  0
    1.5610   -2.3517   -1.8739 C   0  0  0  0  0  0  0  0  0  0  0  0
    1.4055   -2.8274   -3.1753 C   0  0  0  0  0  0  0  0  0  0  0  0
    0.9532   -1.9807   -4.1846 C   0  0  0  0  0  0  0  0  0  0  0  0
    0.6451   -0.6436   -3.8997 C   0  0  0  0  0  0  0  0  0  0  0  0
    0.1810    0.2007   -4.9207 C   0  0  0  0  0  0  0  0  0  0  0  0
   -0.1353    1.5311   -4.6443 C   0  0  0  0  0  0  0  0  0  0  0  0
    0.0077    2.0308   -3.3504 C   0  0  0  0  0  0  0  0  0  0  0  0
    0.4702    1.2053   -2.3224 C   0  0  0  0  0  0  0  0  0  0  0  0
    0.7992   -0.1442   -2.5773 C   0  0  0  0  0  0  0  0  0  0  0  0
    1.0318    0.4652    2.6228 C   0  0  0  0  0  0  0  0  0  0  0  0
    0.7758    0.9644    3.9005 C   0  0  0  0  0  0  0  0  0  0  0  0
   -0.5358    1.1999    4.3261 C   0  0  0  0  0  0  0  0  0  0  0  0
   -0.7221    1.7572    5.5931 O   0  0  0  0  0  0  0  0  0  0  0  0
  1  2  1  0
  2  3  2  0
  2  4  1  0
  4  5  2  0
  5  6  1  0
  6  7  1  0
  7  8  1  0
  8  9  1  0
  9 10  2  0
 10 11  1  0
 11 12  2  0
 12 13  1  0
 13 14  2  0
 14 15  1  0
 15 16  2  0
 16 17  1  0
 17 18  2  0
  6 19  2  0
 19 20  1  0
 20 21  2  0
 21 22  1  0
 21  4  1  0
 18  9  1  0
 18 13  1  0
M  END
>  <score>  (46) 
1.153769

$$$$
HIPS5029
     RDKit          3D

 29 31  0  0  0  0  0  0  0  0999 V2000
    6.2725    1.4450   -0.2823 C   0  0  0  0  0  0  0  0  0  0  0  0
    5.9747    1.0562    1.1794 C   0  0  0  0  0  0  0  0  0  0  0  0
    6.4060   -0.3986    1.4529 C   0  0  0  0  0  0  0  0  0  0  0  0
    6.7624    1.9911    2.1103 C   0  0  0  0  0  0  0  0  0  0  0  0
    4.5811    1.2348    1.4771 O   0  0  0  0  0  0  0  0  0  0  0  0
    3.5101    0.5826    0.8482 C   0  0  0  0  0  0  0  0  0  0  0  0
    3.7104   -0.2528   -0.0756 O   0  0  0  0  0  0  0  0  0  0  0  0
    2.1727    0.8889    1.2615 N   0  0  0  0  0  0  0  0  0  0  0  0
    1.0256    0.3431    0.5947 C   0  0  0  0  0  0  0  0  0  0  0  0
    0.1808    1.2197   -0.0977 C   0  0  0  0  0  0  0  0  0  0  0  0
   -0.8932    0.7346   -0.8426 C   0  0  0  0  0  0  0  0  0  0  0  0
   -1.1481   -0.6451   -0.8992 C   0  0  0  0  0  0  0  0  0  0  0  0
   -2.2009   -1.1919   -1.6503 O   0  0  0  0  0  0  0  0  0  0  0  0
   -3.2148   -0.4491   -2.3296 C   0  0  0  0  0  0  0  0  0  0  0  0
   -4.1762    0.1825   -1.3450 C   0  0  0  0  0  0  0  0  0  0  0  0
   -4.3177    1.5822   -1.3459 C   0  0  0  0  0  0  0  0  0  0  0  0
   -5.1743    2.2165   -0.4470 C   0  0  0  0  0  0  0  0  0  0  0  0
   -5.9165    1.4686    0.4640 C   0  0  0  0  0  0  0  0  0  0  0  0
   -5.8155    0.0706    0.4784 C   0  0  0  0  0  0  0  0  0  0  0  0
   -6.5779   -0.6758    1.3910 C   0  0  0  0  0  0  0  0  0  0  0  0
   -6.4957   -2.0688    1.4037 C   0  0  0  0  0  0  0  0  0  0  0  0
   -5.6571   -2.7289    0.5068 C   0  0  0  0  0  0  0  0  0  0  0  0
   -4.8899   -2.0017   -0.4075 C   0  0  0  0  0  0  0  0  0  0  0  0
   -4.9474   -0.5906   -0.4340 C   0  0  0  0  0  0  0  0  0  0  0  0
   -0.3233   -1.5232   -0.1871 C   0  0  0  0  0  0  0  0  0  0  0  0
    0.7539   -1.0488    0.5833 C   0  0  0  0  0  0  0  0  0  0  0  0
    1.5345   -2.0183    1.3913 C   0  0  0  0  0  0  0  0  0  0  0  0
    2.2175   -1.6336    2.3782 O   0  0  0  0  0  0  0  0  0  0  0  0
    1.4936   -3.3759    1.0835 O   0  0  0  0  0  0  0  0  0  0  0  0
  1  2  1  0
  2  3  1  0
  2  4  1  0
  2  5  1  0
  5  6  1  0
  6  7  2  0
  6  8  1  0
  8  9  1  0
  9 10  2  0
 10 11  1  0
 11 12  2  0
 12 13  1  0
 13 14  1  0
 14 15  1  0
 15 16  2  0
 16 17  1  0
 17 18  2  0
 18 19  1  0
 19 20  2  0
 20 21  1  0
 21 22  2  0
 22 23  1  0
 23 24  2  0
 12 25  1  0
 25 26  2  0
 26 27  1  0
 27 28  2  0
 27 29  1  0
 26  9  1  0
 24 15  1  0
 24 19  1  0
M  END
>  <score>  (47) 
1.153769

$$$$
HIPS5030
     RDKit          3D

 23 25  0  0  0  0  0  0  0  0999 V2000
   -1.1588   -1.7858   -3.3369 C   0  0  0  0  0  0  0  0  0  0  0  0
   -2.1391   -1.8819   -2.3084 O   0  0  0  0  0  0  0  0  0  0  0  0
   -2.1374   -1.1242   -1.1247 C   0  0  0  0  0  0  0  0  0  0  0  0
   -1.1252   -0.1795   -0.8657 C   0  0  0  0  0  0  0  0  0  0  0  0
   -1.1309    0.5677    0.3115 C   0  0  0  0  0  0  0  0  0  0  0  0
   -2.1496    0.3873    1.2602 C   0  0  0  0  0  0  0  0  0  0  0  0
   -2.1976    1.1087    2.4654 O   0  0  0  0  0  0  0  0  0  0  0  0
   -1.2420    2.0896    2.8760 C   0  0  0  0  0  0  0  0  0  0  0  0
    0.0937    1.4748    3.2629 C   0  0  0  0  0  0  0  0  0  0  0  0
    0.1477    0.1157    3.6328 C   0  0  0  0  0  0  0  0  0  0  0  0
    1.3566   -0.4897    3.9700 C   0  0  0  0  0  0  0  0  0  0  0  0
    2.5363    0.2480    3.9705 C   0  0  0  0  0  0  0  0  0  0  0  0
    2.5150    1.6129    3.6581 C   0  0  0  0  0  0  0  0  0  0  0  0
    3.7067    2.3542    3.6944 C   0  0  0  0  0  0  0  0  0  0  0  0
    3.6948    3.7203    3.4151 C   0  0  0  0  0  0  0  0  0  0  0  0
    2.4958    4.3602    3.1061 C   0  0  0  0  0  0  0  0  0  0  0  0
    1.3008    3.6379    3.0612 C   0  0  0  0  0  0  0  0  0  0  0  0
    1.2879    2.2483    3.3188 C   0  0  0  0  0  0  0  0  0  0  0  0
   -3.1574   -0.5476    1.0096 C   0  0  0  0  0  0  0  0  0  0  0  0
   -3.1695   -1.3111   -0.1730 C   0  0  0  0  0  0  0  0  0  0  0  0
   -4.2672   -2.2916   -0.3839 C   0  0  0  0  0  0  0  0  0  0  0  0
   -4.3177   -2.9957   -1.4281 O   0  0  0  0  0  0  0  0  0  0  0  0
   -5.2616   -2.4444    0.5795 O   0  0  0  0  0  0  0  0  0  0  0  0
  1  2  1  0
  2  3  1  0
  3  4  2  0
  4  5  1  0
  5  6  2  0
  6  7  1  0
  7  8  1  0
  8  9  1  0
  9 10  2  0
 10 11  1  0
 11 12  2  0
 12 13  1  0
 13 14  2  0
 14 15  1  0
 15 16  2  0
 16 17  1  0
 17 18  2  0
  6 19  1  0
 19 20  2  0
 20 21  1  0
 21 22  2  0
 21 23  1  0
 20  3  1  0
 18  9  1  0
 18 13  1  0
M  END
>  <score>  (48) 
1.153769

$$$$
HIPS5031
     RDKit          3D

 23 25  0  0  0  0  0  0  0  0999 V2000
    5.7654    1.1953    1.5657 O   0  0  0  0  0  0  0  0  0  0  0  0
    4.5878    1.6195    1.4214 C   0  0  0  0  0  0  0  0  0  0  0  0
    4.0156    2.3979    2.4242 O   0  0  0  0  0  0  0  0  0  0  0  0
    3.7886    1.2461    0.2334 C   0  0  0  0  0  0  0  0  0  0  0  0
    2.4032    1.0635    0.3932 C   0  0  0  0  0  0  0  0  0  0  0  0
    1.6012    0.6393   -0.6712 C   0  0  0  0  0  0  0  0  0  0  0  0
    0.2287    0.4656   -0.4409 O   0  0  0  0  0  0  0  0  0  0  0  0
   -0.7050    0.0176   -1.4204 C   0  0  0  0  0  0  0  0  0  0  0  0
   -2.0733   -0.0970   -0.7920 C   0  0  0  0  0  0  0  0  0  0  0  0
   -3.0610    0.8248   -1.1699 C   0  0  0  0  0  0  0  0  0  0  0  0
   -4.3376    0.7707   -0.6182 C   0  0  0  0  0  0  0  0  0  0  0  0
   -4.6641   -0.1988    0.3299 C   0  0  0  0  0  0  0  0  0  0  0  0
   -6.4568   -0.1801    1.0227 Br  0  0  0  0  0  0  0  0  0  0  0  0
   -3.6910   -1.1356    0.7430 C   0  0  0  0  0  0  0  0  0  0  0  0
   -3.9918   -2.1204    1.7053 C   0  0  0  0  0  0  0  0  0  0  0  0
   -3.0220   -3.0363    2.1119 C   0  0  0  0  0  0  0  0  0  0  0  0
   -1.7407   -2.9869    1.5705 C   0  0  0  0  0  0  0  0  0  0  0  0
   -1.4177   -2.0232    0.6153 C   0  0  0  0  0  0  0  0  0  0  0  0
   -2.3810   -1.0850    0.1820 C   0  0  0  0  0  0  0  0  0  0  0  0
    2.1923    0.3964   -1.9220 C   0  0  0  0  0  0  0  0  0  0  0  0
    3.5618    0.5937   -2.1009 C   0  0  0  0  0  0  0  0  0  0  0  0
    4.3652    1.0366   -1.0446 C   0  0  0  0  0  0  0  0  0  0  0  0
    5.7124    1.2871   -1.3150 O   0  0  0  0  0  0  0  0  0  0  0  0
  1  2  2  0
  2  3  1  0
  2  4  1  0
  4  5  2  0
  5  6  1  0
  6  7  1  0
  7  8  1  0
  8  9  1  0
  9 10  2  0
 10 11  1  0
 11 12  2  0
 12 13  1  0
 12 14  1  0
 14 15  2  0
 15 16  1  0
 16 17  2  0
 17 18  1  0
 18 19  2  0
  6 20  2  0
 20 21  1  0
 21 22  2  0
 22 23  1  0
 22  4  1  0
 19  9  1  0
 19 14  1  0
M  END
>  <score>  (49) 
-0.584178

$$$$
HIPS5038
     RDKit          3D

 22 24  0  0  0  0  0  0  0  0999 V2000
    6.6449    0.5564    1.1274 O   0  0  0  0  0  0  0  0  0  0  0  0
    5.4368    0.6252    1.5011 C   0  0  0  0  0  0  0  0  0  0  0  0
    5.2204    1.2029    2.7414 O   0  0  0  0  0  0  0  0  0  0  0  0
    4.3577    0.1202    0.6680 C   0  0  0  0  0  0  0  0  0  0  0  0
    3.0273    0.2751    0.9952 C   0  0  0  0  0  0  0  0  0  0  0  0
    2.0177   -0.1670    0.1406 C   0  0  0  0  0  0  0  0  0  0  0  0
    0.6537    0.0580    0.4957 N   0  0  0  0  0  0  0  0  0  0  0  0
   -0.4273   -0.3330   -0.3747 C   0  0  0  0  0  0  0  0  0  0  0  0
   -1.6655    0.4316    0.0102 C   0  0  0  0  0  0  0  0  0  0  0  0
   -1.5422    1.6888    0.5740 C   0  0  0  0  0  0  0  0  0  0  0  0
   -2.6695    2.4381    0.9390 C   0  0  0  0  0  0  0  0  0  0  0  0
   -3.9270    1.8959    0.7267 C   0  0  0  0  0  0  0  0  0  0  0  0
   -4.0878    0.6350    0.1624 C   0  0  0  0  0  0  0  0  0  0  0  0
   -2.9470   -0.0642   -0.1812 C   0  0  0  0  0  0  0  0  0  0  0  0
   -3.1254   -1.3140   -0.7387 O   0  0  0  0  0  0  0  0  0  0  0  0
   -4.3794   -1.7577   -1.2268 C   0  0  0  0  0  0  0  0  0  0  0  0
   -5.4530   -1.2953   -0.2717 C   0  0  0  0  0  0  0  0  0  0  0  0
   -5.3692    0.1022   -0.0422 O   0  0  0  0  0  0  0  0  0  0  0  0
    2.3487   -0.7678   -1.0388 C   0  0  0  0  0  0  0  0  0  0  0  0
    3.6869   -0.9381   -1.3950 C   0  0  0  0  0  0  0  0  0  0  0  0
    4.6694   -0.4830   -0.5193 C   0  0  0  0  0  0  0  0  0  0  0  0
    5.9964   -0.6521   -0.8708 O   0  0  0  0  0  0  0  0  0  0  0  0
  1  2  2  0
  2  3  1  0
  2  4  1  0
  4  5  2  0
  5  6  1  0
  6  7  1  0
  7  8  1  0
  8  9  1  0
  9 10  2  0
 10 11  1  0
 11 12  2  0
 12 13  1  0
 13 14  2  0
 14 15  1  0
 15 16  1  0
 16 17  1  0
 17 18  1  0
  6 19  2  0
 19 20  1  0
 20 21  2  0
 21 22  1  0
 21  4  1  0
 14  9  1  0
 18 13  1  0
M  END
>  <score>  (50) 
1.153769

$$$$
HIPS5039
     RDKit          3D

 21 23  0  0  0  0  0  0  0  0999 V2000
    1.0392   -1.8840   -1.9562 O   0  0  0  0  0  0  0  0  0  0  0  0
    1.0222   -1.5414   -0.7438 C   0  0  0  0  0  0  0  0  0  0  0  0
    2.2129   -1.5316   -0.0217 O   0  0  0  0  0  0  0  0  0  0  0  0
   -0.2319   -1.0857   -0.1027 C   0  0  0  0  0  0  0  0  0  0  0  0
   -0.1496   -0.0849    0.8821 C   0  0  0  0  0  0  0  0  0  0  0  0
   -1.3087    0.4546    1.4691 C   0  0  0  0  0  0  0  0  0  0  0  0
   -1.2458    1.4998    2.4600 N   0  0  0  0  0  0  0  0  0  0  0  0
   -0.0278    2.2281    2.8207 C   0  0  0  0  0  0  0  0  0  0  0  0
    0.4408    3.0865    1.6719 C   0  0  0  0  0  0  0  0  0  0  0  0
   -0.4421    4.0094    1.0666 C   0  0  0  0  0  0  0  0  0  0  0  0
   -0.0158    4.8194   -0.0071 C   0  0  0  0  0  0  0  0  0  0  0  0
    1.3002    4.7297   -0.4889 C   0  0  0  0  0  0  0  0  0  0  0  0
    2.1606    3.8254    0.1290 C   0  0  0  0  0  0  0  0  0  0  0  0
    3.4485    3.5980   -0.1759 N   0  0  0  0  0  0  0  0  0  0  0  0
    3.8721    2.6496    0.6879 C   0  0  0  0  0  0  0  0  0  0  0  0
    2.8470    2.2730    1.5472 C   0  0  0  0  0  0  0  0  0  0  0  0
    1.7535    3.0343    1.1749 C   0  0  0  0  0  0  0  0  0  0  0  0
   -2.5594   -0.0336    1.0714 C   0  0  0  0  0  0  0  0  0  0  0  0
   -2.6549   -1.0440    0.1149 C   0  0  0  0  0  0  0  0  0  0  0  0
   -1.5056   -1.5912   -0.4638 C   0  0  0  0  0  0  0  0  0  0  0  0
   -1.6714   -2.6507   -1.3586 O   0  0  0  0  0  0  0  0  0  0  0  0
  1  2  2  0
  2  3  1  0
  2  4  1  0
  4  5  2  0
  5  6  1  0
  6  7  1  0
  7  8  1  0
  8  9  1  0
  9 10  2  0
 10 11  1  0
 11 12  2  0
 12 13  1  0
 13 14  1  0
 14 15  1  0
 15 16  2  0
 16 17  1  0
  6 18  2  0
 18 19  1  0
 19 20  2  0
 20 21  1  0
 20  4  1  0
 17  9  1  0
 17 13  2  0
M  END
>  <score>  (51) 
1.153769

$$$$
HIPS505
     RDKit          3D

 29 31  0  0  0  0  0  0  0  0999 V2000
   -1.9671    0.9158    0.5413 O   0  0  0  0  0  0  0  0  0  0  0  0
   -2.4454    0.9071   -0.6260 C   0  0  0  0  0  0  0  0  0  0  0  0
   -3.7547    1.4393   -0.8688 N   0  0  0  0  0  0  0  0  0  0  0  0
   -4.5867    1.9925    0.1962 C   0  0  0  0  0  0  0  0  0  0  0  0
   -5.1160    0.8918    1.0595 C   0  0  0  0  0  0  0  0  0  0  0  0
   -4.7131    0.6085    2.3490 C   0  0  0  0  0  0  0  0  0  0  0  0
   -5.4514   -0.4899    2.7338 C   0  0  0  0  0  0  0  0  0  0  0  0
   -6.2549   -0.8081    1.6571 C   0  0  0  0  0  0  0  0  0  0  0  0
   -6.0309    0.0329    0.6736 O   0  0  0  0  0  0  0  0  0  0  0  0
   -1.6985    0.3376   -1.7106 N   0  0  0  0  0  0  0  0  0  0  0  0
   -0.3189   -0.0485   -1.6034 C   0  0  0  0  0  0  0  0  0  0  0  0
    0.6296    0.6971   -0.8790 C   0  0  0  0  0  0  0  0  0  0  0  0
    1.9267    0.1872   -0.9586 C   0  0  0  0  0  0  0  0  0  0  0  0
    3.1452    0.7434   -0.3138 C   0  0  0  0  0  0  0  0  0  0  0  0
    3.1477    2.0393    0.2294 C   0  0  0  0  0  0  0  0  0  0  0  0
    4.2955    2.5532    0.8321 C   0  0  0  0  0  0  0  0  0  0  0  0
    5.4631    1.7898    0.9052 C   0  0  0  0  0  0  0  0  0  0  0  0
    6.8724    2.5069    1.6820 Cl  0  0  0  0  0  0  0  0  0  0  0  0
    5.4899    0.4857    0.3642 C   0  0  0  0  0  0  0  0  0  0  0  0
    6.7489   -0.3530    0.4364 C   0  0  0  0  0  0  0  0  0  0  0  0
    6.5766   -1.5958   -0.1487 F   0  0  0  0  0  0  0  0  0  0  0  0
    7.7774    0.2961   -0.2222 F   0  0  0  0  0  0  0  0  0  0  0  0
    7.1044   -0.5432    1.7595 F   0  0  0  0  0  0  0  0  0  0  0  0
    4.3236   -0.0230   -0.2425 C   0  0  0  0  0  0  0  0  0  0  0  0
    1.8773   -1.1842   -1.9386 S   0  0  0  0  0  0  0  0  0  0  0  0
    0.2307   -1.1471   -2.2721 C   0  0  0  0  0  0  0  0  0  0  0  0
   -0.4648   -2.1586   -3.0860 C   0  0  0  0  0  0  0  0  0  0  0  0
   -1.7217   -2.1727   -3.1646 O   0  0  0  0  0  0  0  0  0  0  0  0
    0.2754   -3.1251   -3.7600 O   0  0  0  0  0  0  0  0  0  0  0  0
  1  2  2  0
  2  3  1  0
  3  4  1  0
  4  5  1  0
  5  6  2  0
  6  7  1  0
  7  8  2  0
  8  9  1  0
  2 10  1  0
 10 11  1  0
 11 12  1  0
 12 13  2  0
 13 14  1  0
 14 15  2  0
 15 16  1  0
 16 17  2  0
 17 18  1  0
 17 19  1  0
 19 20  1  0
 20 21  1  0
 20 22  1  0
 20 23  1  0
 19 24  2  0
 13 25  1  0
 25 26  1  0
 26 27  1  0
 27 28  2  0
 27 29  1  0
  9  5  1  0
 26 11  2  0
 24 14  1  0
M  END
>  <score>  (52) 
-0.479346

$$$$
HIPS5076
     RDKit          3D

 19 21  0  0  0  0  0  0  0  0999 V2000
    0.9108    5.3810    2.7749 O   0  0  0  0  0  0  0  0  0  0  0  0
    0.3600    4.1516    2.4203 C   0  0  0  0  0  0  0  0  0  0  0  0
    0.6192    3.5878    1.1642 C   0  0  0  0  0  0  0  0  0  0  0  0
    0.0612    2.3530    0.8187 C   0  0  0  0  0  0  0  0  0  0  0  0
   -0.7644    1.6670    1.7320 C   0  0  0  0  0  0  0  0  0  0  0  0
   -1.3454    0.4214    1.4401 O   0  0  0  0  0  0  0  0  0  0  0  0
   -1.1813   -0.2947    0.2138 C   0  0  0  0  0  0  0  0  0  0  0  0
    0.2137   -0.8807    0.0635 C   0  0  0  0  0  0  0  0  0  0  0  0
    1.0035   -1.0888    1.2123 C   0  0  0  0  0  0  0  0  0  0  0  0
    2.2954   -1.6016    1.1127 C   0  0  0  0  0  0  0  0  0  0  0  0
    2.8231   -1.9416   -0.1289 C   0  0  0  0  0  0  0  0  0  0  0  0
    2.0503   -1.7968   -1.2877 C   0  0  0  0  0  0  0  0  0  0  0  0
    2.5819   -2.1745   -2.5310 C   0  0  0  0  0  0  0  0  0  0  0  0
    1.8124   -2.0638   -3.6885 C   0  0  0  0  0  0  0  0  0  0  0  0
    0.5056   -1.5846   -3.6161 C   0  0  0  0  0  0  0  0  0  0  0  0
   -0.0387   -1.2000   -2.3882 C   0  0  0  0  0  0  0  0  0  0  0  0
    0.7266   -1.2817   -1.2028 C   0  0  0  0  0  0  0  0  0  0  0  0
   -1.0176    2.2390    2.9849 C   0  0  0  0  0  0  0  0  0  0  0  0
   -0.4593    3.4740    3.3280 C   0  0  0  0  0  0  0  0  0  0  0  0
  1  2  1  0
  2  3  2  0
  3  4  1  0
  4  5  2  0
  5  6  1  0
  6  7  1  0
  7  8  1  0
  8  9  2  0
  9 10  1  0
 10 11  2  0
 11 12  1  0
 12 13  2  0
 13 14  1  0
 14 15  2  0
 15 16  1  0
 16 17  2  0
  5 18  1  0
 18 19  2  0
 19  2  1  0
 17  8  1  0
 17 12  1  0
M  END
>  <score>  (53) 
-0.008624

$$$$
HIPS5160
     RDKit          3D

 25 27  0  0  0  0  0  0  0  0999 V2000
    3.3065   -3.9504    1.1397 O   0  0  0  0  0  0  0  0  0  0  0  0
    3.7357   -2.7890    1.3774 C   0  0  0  0  0  0  0  0  0  0  0  0
    5.0702   -2.4891    1.1198 O   0  0  0  0  0  0  0  0  0  0  0  0
    2.8091   -1.7427    1.8626 C   0  0  0  0  0  0  0  0  0  0  0  0
    1.4828   -1.7461    1.3923 C   0  0  0  0  0  0  0  0  0  0  0  0
    0.5840   -0.7260    1.7519 C   0  0  0  0  0  0  0  0  0  0  0  0
   -0.7701   -0.6980    1.2614 N   0  0  0  0  0  0  0  0  0  0  0  0
   -1.2461   -1.4480    0.0973 C   0  0  0  0  0  0  0  0  0  0  0  0
   -0.5373   -1.0049   -1.1629 C   0  0  0  0  0  0  0  0  0  0  0  0
    0.2280   -1.9418   -1.8818 C   0  0  0  0  0  0  0  0  0  0  0  0
    0.9409   -1.5565   -3.0186 C   0  0  0  0  0  0  0  0  0  0  0  0
    0.9005   -0.2327   -3.4537 C   0  0  0  0  0  0  0  0  0  0  0  0
    0.1342    0.7065   -2.7626 C   0  0  0  0  0  0  0  0  0  0  0  0
   -0.6057    0.3301   -1.6323 C   0  0  0  0  0  0  0  0  0  0  0  0
   -1.5948    1.5909   -0.8066 S   0  0  0  0  0  0  0  0  0  0  0  0
   -2.9851    1.4172   -1.9298 C   0  0  0  0  0  0  0  0  0  0  0  0
   -2.9985    2.1204   -3.1423 C   0  0  0  0  0  0  0  0  0  0  0  0
   -4.0811    1.9894   -4.0178 C   0  0  0  0  0  0  0  0  0  0  0  0
   -5.1589    1.1657   -3.6795 C   0  0  0  0  0  0  0  0  0  0  0  0
   -5.1578    0.4782   -2.4621 C   0  0  0  0  0  0  0  0  0  0  0  0
   -4.0756    0.6074   -1.5856 C   0  0  0  0  0  0  0  0  0  0  0  0
    1.0188    0.2906    2.6107 C   0  0  0  0  0  0  0  0  0  0  0  0
    2.3239    0.2930    3.1024 C   0  0  0  0  0  0  0  0  0  0  0  0
    3.2201   -0.7220    2.7538 C   0  0  0  0  0  0  0  0  0  0  0  0
    4.4873   -0.7010    3.3401 O   0  0  0  0  0  0  0  0  0  0  0  0
  1  2  2  0
  2  3  1  0
  2  4  1  0
  4  5  2  0
  5  6  1  0
  6  7  1  0
  7  8  1  0
  8  9  1  0
  9 10  2  0
 10 11  1  0
 11 12  2  0
 12 13  1  0
 13 14  2  0
 14 15  1  0
 15 16  1  0
 16 17  2  0
 17 18  1  0
 18 19  2  0
 19 20  1  0
 20 21  2  0
  6 22  2  0
 22 23  1  0
 23 24  2  0
 24 25  1  0
 24  4  1  0
 14  9  1  0
 21 16  1  0
M  END
>  <score>  (54) 
-0.102641

$$$$
HIPS5163
     RDKit          3D

 18 19  0  0  0  0  0  0  0  0999 V2000
    2.2805   -2.1952   -1.1483 O   0  0  0  0  0  0  0  0  0  0  0  0
    2.5654   -1.6995   -0.0246 C   0  0  0  0  0  0  0  0  0  0  0  0
    2.6778   -2.5369    1.0815 O   0  0  0  0  0  0  0  0  0  0  0  0
    2.7126   -0.2347    0.1221 C   0  0  0  0  0  0  0  0  0  0  0  0
    1.8890    0.6062   -0.6494 C   0  0  0  0  0  0  0  0  0  0  0  0
    1.9269    2.0038   -0.4897 C   0  0  0  0  0  0  0  0  0  0  0  0
    1.0778    2.8828   -1.2542 N   0  0  0  0  0  0  0  0  0  0  0  0
   -0.0265    2.4373   -2.1059 C   0  0  0  0  0  0  0  0  0  0  0  0
   -1.1423    1.8600   -1.2744 C   0  0  0  0  0  0  0  0  0  0  0  0
   -1.6228    0.5630   -1.5237 C   0  0  0  0  0  0  0  0  0  0  0  0
   -2.6617    0.0358   -0.7502 C   0  0  0  0  0  0  0  0  0  0  0  0
   -3.2339    0.8008    0.2697 C   0  0  0  0  0  0  0  0  0  0  0  0
   -2.7707    2.0960    0.5157 C   0  0  0  0  0  0  0  0  0  0  0  0
   -1.7316    2.6269   -0.2548 C   0  0  0  0  0  0  0  0  0  0  0  0
    2.8128    2.5553    0.4444 C   0  0  0  0  0  0  0  0  0  0  0  0
    3.6502    1.7341    1.1989 C   0  0  0  0  0  0  0  0  0  0  0  0
    3.6255    0.3459    1.0351 C   0  0  0  0  0  0  0  0  0  0  0  0
    4.5431   -0.4120    1.7656 O   0  0  0  0  0  0  0  0  0  0  0  0
  1  2  2  0
  2  3  1  0
  2  4  1  0
  4  5  2  0
  5  6  1  0
  6  7  1  0
  7  8  1  0
  8  9  1  0
  9 10  2  0
 10 11  1  0
 11 12  2  0
 12 13  1  0
 13 14  2  0
  6 15  2  0
 15 16  1  0
 16 17  2  0
 17 18  1  0
 17  4  1  0
 14  9  1  0
M  END
>  <score>  (55) 
0.931547

$$$$
HIPS5164
     RDKit          3D

 20 21  0  0  0  0  0  0  0  0999 V2000
   -2.2637    3.7438    0.4016 C   0  0  0  0  0  0  0  0  0  0  0  0
   -1.5051    2.7808    1.2794 C   0  0  0  0  0  0  0  0  0  0  0  0
   -2.1861    2.1738    2.3458 C   0  0  0  0  0  0  0  0  0  0  0  0
   -1.5350    1.2760    3.1846 C   0  0  0  0  0  0  0  0  0  0  0  0
   -0.2028    0.9474    2.9583 C   0  0  0  0  0  0  0  0  0  0  0  0
    0.5069    1.5114    1.8832 C   0  0  0  0  0  0  0  0  0  0  0  0
    1.9488    1.0839    1.6667 C   0  0  0  0  0  0  0  0  0  0  0  0
    2.1123   -0.3595    1.8584 N   0  0  0  0  0  0  0  0  0  0  0  0
    1.5390   -1.3648    0.9983 C   0  0  0  0  0  0  0  0  0  0  0  0
    1.6769   -2.7149    1.3426 C   0  0  0  0  0  0  0  0  0  0  0  0
    1.1259   -3.7116    0.5384 C   0  0  0  0  0  0  0  0  0  0  0  0
    0.4246   -3.3797   -0.6281 C   0  0  0  0  0  0  0  0  0  0  0  0
   -0.1191   -4.3987   -1.4102 O   0  0  0  0  0  0  0  0  0  0  0  0
    0.2752   -2.0244   -0.9981 C   0  0  0  0  0  0  0  0  0  0  0  0
   -0.4626   -1.6279   -2.2268 C   0  0  0  0  0  0  0  0  0  0  0  0
   -0.6003   -0.4088   -2.5189 O   0  0  0  0  0  0  0  0  0  0  0  0
   -1.0120   -2.5877   -3.0725 O   0  0  0  0  0  0  0  0  0  0  0  0
    0.8407   -1.0286   -0.1770 C   0  0  0  0  0  0  0  0  0  0  0  0
   -0.1268    2.4953    1.0713 C   0  0  0  0  0  0  0  0  0  0  0  0
    0.6513    3.1989   -0.0211 C   0  0  0  0  0  0  0  0  0  0  0  0
  1  2  1  0
  2  3  2  0
  3  4  1  0
  4  5  2  0
  5  6  1  0
  6  7  1  0
  7  8  1  0
  8  9  1  0
  9 10  2  0
 10 11  1  0
 11 12  2  0
 12 13  1  0
 12 14  1  0
 14 15  1  0
 15 16  2  0
 15 17  1  0
 14 18  2  0
  6 19  2  0
 19 20  1  0
 19  2  1  0
 18  9  1  0
M  END
>  <score>  (56) 
0.247786

$$$$
HIPS5165
     RDKit          3D

 25 27  0  0  0  0  0  0  0  0999 V2000
   -1.9032    3.5727    0.0056 O   0  0  0  0  0  0  0  0  0  0  0  0
   -1.6491    2.9517    1.0729 C   0  0  0  0  0  0  0  0  0  0  0  0
   -1.1174    3.6464    2.1554 O   0  0  0  0  0  0  0  0  0  0  0  0
   -1.8535    1.4883    1.1434 C   0  0  0  0  0  0  0  0  0  0  0  0
   -1.6147    0.7189   -0.0103 C   0  0  0  0  0  0  0  0  0  0  0  0
   -1.6848   -0.6803    0.0275 C   0  0  0  0  0  0  0  0  0  0  0  0
   -1.3841   -1.4371   -1.1563 N   0  0  0  0  0  0  0  0  0  0  0  0
   -0.5066   -2.6078   -1.1416 C   0  0  0  0  0  0  0  0  0  0  0  0
    0.9184   -2.1803   -1.3839 C   0  0  0  0  0  0  0  0  0  0  0  0
    1.4457   -2.2219   -2.6858 C   0  0  0  0  0  0  0  0  0  0  0  0
    2.7486   -1.7840   -2.9355 C   0  0  0  0  0  0  0  0  0  0  0  0
    3.5346   -1.2942   -1.8914 C   0  0  0  0  0  0  0  0  0  0  0  0
    3.0169   -1.2321   -0.5960 C   0  0  0  0  0  0  0  0  0  0  0  0
    1.7026   -1.6568   -0.3351 C   0  0  0  0  0  0  0  0  0  0  0  0
    1.1759   -1.6004    0.9630 O   0  0  0  0  0  0  0  0  0  0  0  0
    1.3117   -0.5181    1.8456 C   0  0  0  0  0  0  0  0  0  0  0  0
    1.0936   -0.7381    3.2113 C   0  0  0  0  0  0  0  0  0  0  0  0
    1.1680    0.3218    4.1200 C   0  0  0  0  0  0  0  0  0  0  0  0
    1.4592    1.6116    3.6685 C   0  0  0  0  0  0  0  0  0  0  0  0
    1.6736    1.8430    2.3075 C   0  0  0  0  0  0  0  0  0  0  0  0
    1.5962    0.7860    1.3959 C   0  0  0  0  0  0  0  0  0  0  0  0
   -2.0430   -1.3169    1.2241 C   0  0  0  0  0  0  0  0  0  0  0  0
   -2.3091   -0.5645    2.3682 C   0  0  0  0  0  0  0  0  0  0  0  0
   -2.2314    0.8318    2.3401 C   0  0  0  0  0  0  0  0  0  0  0  0
   -2.5706    1.5249    3.5038 O   0  0  0  0  0  0  0  0  0  0  0  0
  1  2  2  0
  2  3  1  0
  2  4  1  0
  4  5  2  0
  5  6  1  0
  6  7  1  0
  7  8  1  0
  8  9  1  0
  9 10  2  0
 10 11  1  0
 11 12  2  0
 12 13  1  0
 13 14  2  0
 14 15  1  0
 15 16  1  0
 16 17  2  0
 17 18  1  0
 18 19  2  0
 19 20  1  0
 20 21  2  0
  6 22  2  0
 22 23  1  0
 23 24  2  0
 24 25  1  0
 24  4  1  0
 14  9  1  0
 21 16  1  0
M  END
>  <score>  (57) 
0.444367

$$$$
HIPS5238
     RDKit          3D

 29 31  0  0  0  0  0  0  0  0999 V2000
   -7.7275   -0.7007    1.0469 C   0  0  0  0  0  0  0  0  0  0  0  0
   -6.5630   -0.0365    0.2950 C   0  0  0  0  0  0  0  0  0  0  0  0
   -6.4643    1.4350    0.7379 C   0  0  0  0  0  0  0  0  0  0  0  0
   -6.8329   -0.1344   -1.2189 C   0  0  0  0  0  0  0  0  0  0  0  0
   -5.3676   -0.7535    0.6450 O   0  0  0  0  0  0  0  0  0  0  0  0
   -4.0726   -0.4658    0.1926 C   0  0  0  0  0  0  0  0  0  0  0  0
   -3.8687    0.4465   -0.6529 O   0  0  0  0  0  0  0  0  0  0  0  0
   -2.9729   -1.2404    0.6921 N   0  0  0  0  0  0  0  0  0  0  0  0
   -1.5943   -0.8794    0.4806 C   0  0  0  0  0  0  0  0  0  0  0  0
   -1.1961    0.4576    0.6439 C   0  0  0  0  0  0  0  0  0  0  0  0
    0.1383    0.8280    0.5176 C   0  0  0  0  0  0  0  0  0  0  0  0
    1.1194   -0.1387    0.2334 C   0  0  0  0  0  0  0  0  0  0  0  0
    2.4707    0.1910    0.0577 O   0  0  0  0  0  0  0  0  0  0  0  0
    2.9772    1.5227    0.0079 C   0  0  0  0  0  0  0  0  0  0  0  0
    4.4265    1.5055   -0.4128 C   0  0  0  0  0  0  0  0  0  0  0  0
    4.7750    2.0741   -1.6506 C   0  0  0  0  0  0  0  0  0  0  0  0
    6.0996    2.0873   -2.0825 C   0  0  0  0  0  0  0  0  0  0  0  0
    7.1054    1.5332   -1.2937 C   0  0  0  0  0  0  0  0  0  0  0  0
    6.7920    0.9460   -0.0586 C   0  0  0  0  0  0  0  0  0  0  0  0
    7.8107    0.3767    0.7218 C   0  0  0  0  0  0  0  0  0  0  0  0
    7.5109   -0.2042    1.9516 C   0  0  0  0  0  0  0  0  0  0  0  0
    6.1945   -0.2251    2.4129 C   0  0  0  0  0  0  0  0  0  0  0  0
    5.1654    0.3292    1.6431 C   0  0  0  0  0  0  0  0  0  0  0  0
    5.4452    0.9317    0.3982 C   0  0  0  0  0  0  0  0  0  0  0  0
    0.7378   -1.4805    0.1175 C   0  0  0  0  0  0  0  0  0  0  0  0
   -0.6099   -1.8669    0.2252 C   0  0  0  0  0  0  0  0  0  0  0  0
   -0.9541   -3.2958    0.0187 C   0  0  0  0  0  0  0  0  0  0  0  0
   -2.0810   -3.6265   -0.4362 O   0  0  0  0  0  0  0  0  0  0  0  0
   -0.0286   -4.2868    0.3326 O   0  0  0  0  0  0  0  0  0  0  0  0
  1  2  1  0
  2  3  1  0
  2  4  1  0
  2  5  1  0
  5  6  1  0
  6  7  2  0
  6  8  1  0
  8  9  1  0
  9 10  2  0
 10 11  1  0
 11 12  2  0
 12 13  1  0
 13 14  1  0
 14 15  1  0
 15 16  2  0
 16 17  1  0
 17 18  2  0
 18 19  1  0
 19 20  2  0
 20 21  1  0
 21 22  2  0
 22 23  1  0
 23 24  2  0
 12 25  1  0
 25 26  2  0
 26 27  1  0
 27 28  2  0
 27 29  1  0
 26  9  1  0
 24 15  1  0
 24 19  1  0
M  END
>  <score>  (58) 
0.047072

$$$$
HIPS5239
     RDKit          3D

 23 25  0  0  0  0  0  0  0  0999 V2000
   -2.9788   -2.2851    2.1951 O   0  0  0  0  0  0  0  0  0  0  0  0
   -2.5150   -1.8209    1.1184 C   0  0  0  0  0  0  0  0  0  0  0  0
   -1.7134   -2.6304    0.3172 O   0  0  0  0  0  0  0  0  0  0  0  0
   -2.8135   -0.4293    0.7117 C   0  0  0  0  0  0  0  0  0  0  0  0
   -3.5895    0.4057    1.5337 C   0  0  0  0  0  0  0  0  0  0  0  0
   -3.8606    1.7198    1.1491 C   0  0  0  0  0  0  0  0  0  0  0  0
   -3.3556    2.2186   -0.0527 C   0  0  0  0  0  0  0  0  0  0  0  0
   -2.5720    1.4084   -0.8878 C   0  0  0  0  0  0  0  0  0  0  0  0
   -2.0500    1.9617   -2.1128 N   0  0  0  0  0  0  0  0  0  0  0  0
   -1.0328    1.3188   -2.9450 C   0  0  0  0  0  0  0  0  0  0  0  0
    0.2701    1.2514   -2.2123 C   0  0  0  0  0  0  0  0  0  0  0  0
    1.1504    2.2980   -2.0303 C   0  0  0  0  0  0  0  0  0  0  0  0
    2.1795    1.7916   -1.2645 C   0  0  0  0  0  0  0  0  0  0  0  0
    1.8577    0.4640   -1.0226 C   0  0  0  0  0  0  0  0  0  0  0  0
    2.6331   -0.5152   -0.2274 C   0  0  0  0  0  0  0  0  0  0  0  0
    2.1040   -1.7989   -0.0028 C   0  0  0  0  0  0  0  0  0  0  0  0
    2.8149   -2.7374    0.7507 C   0  0  0  0  0  0  0  0  0  0  0  0
    4.0622   -2.4064    1.2872 C   0  0  0  0  0  0  0  0  0  0  0  0
    4.9529   -3.5856    2.2324 Cl  0  0  0  0  0  0  0  0  0  0  0  0
    4.5988   -1.1343    1.0692 C   0  0  0  0  0  0  0  0  0  0  0  0
    3.8905   -0.1919    0.3169 C   0  0  0  0  0  0  0  0  0  0  0  0
    0.7149    0.1774   -1.6045 O   0  0  0  0  0  0  0  0  0  0  0  0
   -2.3176    0.0765   -0.5033 C   0  0  0  0  0  0  0  0  0  0  0  0
  1  2  2  0
  2  3  1  0
  2  4  1  0
  4  5  2  0
  5  6  1  0
  6  7  2  0
  7  8  1  0
  8  9  1  0
  9 10  1  0
 10 11  1  0
 11 12  2  0
 12 13  1  0
 13 14  2  0
 14 15  1  0
 15 16  2  0
 16 17  1  0
 17 18  2  0
 18 19  1  0
 18 20  1  0
 20 21  2  0
 14 22  1  0
  8 23  2  0
 23  4  1  0
 22 11  1  0
 21 15  1  0
M  END
>  <score>  (59) 
0.010774

$$$$
HIPS529
     RDKit          3D

 29 31  0  0  0  0  0  0  0  0999 V2000
    2.9962    2.7399   -0.3094 C   0  0  0  0  0  0  0  0  0  0  0  0
    1.9240    2.6926    0.7776 C   0  0  0  0  0  0  0  0  0  0  0  0
    0.7250    1.9816    0.3037 N   0  0  0  0  0  0  0  0  0  0  0  0
   -0.5711    2.6820    0.2749 C   0  0  0  0  0  0  0  0  0  0  0  0
   -0.8281    3.3158   -1.0706 C   0  0  0  0  0  0  0  0  0  0  0  0
   -1.8847    2.8658   -1.8829 C   0  0  0  0  0  0  0  0  0  0  0  0
   -2.1228    3.4590   -3.1264 C   0  0  0  0  0  0  0  0  0  0  0  0
   -1.3217    4.5168   -3.5627 C   0  0  0  0  0  0  0  0  0  0  0  0
   -0.2877    4.9899   -2.7514 C   0  0  0  0  0  0  0  0  0  0  0  0
   -0.0458    4.3989   -1.5076 C   0  0  0  0  0  0  0  0  0  0  0  0
    0.7946    0.5575    0.0669 C   0  0  0  0  0  0  0  0  0  0  0  0
    1.7530   -0.1090    0.5463 O   0  0  0  0  0  0  0  0  0  0  0  0
   -0.1941   -0.1050   -0.7361 N   0  0  0  0  0  0  0  0  0  0  0  0
   -0.3958   -1.5273   -0.7186 C   0  0  0  0  0  0  0  0  0  0  0  0
   -0.2713   -2.3002    0.4508 C   0  0  0  0  0  0  0  0  0  0  0  0
   -0.5811   -3.6493    0.2702 C   0  0  0  0  0  0  0  0  0  0  0  0
   -0.5519   -4.7189    1.3020 C   0  0  0  0  0  0  0  0  0  0  0  0
   -0.6539   -6.0704    0.9243 C   0  0  0  0  0  0  0  0  0  0  0  0
   -0.6266   -7.0824    1.8868 C   0  0  0  0  0  0  0  0  0  0  0  0
   -0.4996   -6.7658    3.2418 C   0  0  0  0  0  0  0  0  0  0  0  0
   -0.4696   -8.0702    4.4206 Cl  0  0  0  0  0  0  0  0  0  0  0  0
   -0.4006   -5.4220    3.6356 C   0  0  0  0  0  0  0  0  0  0  0  0
   -0.2322   -4.9312    5.4805 Br  0  0  0  0  0  0  0  0  0  0  0  0
   -0.4275   -4.4083    2.6702 C   0  0  0  0  0  0  0  0  0  0  0  0
   -1.0137   -3.8615   -1.3455 S   0  0  0  0  0  0  0  0  0  0  0  0
   -0.8180   -2.2645   -1.8304 C   0  0  0  0  0  0  0  0  0  0  0  0
   -1.0181   -1.7985   -3.2137 C   0  0  0  0  0  0  0  0  0  0  0  0
   -0.6826   -0.6351   -3.5606 O   0  0  0  0  0  0  0  0  0  0  0  0
   -1.5635   -2.6640   -4.1569 O   0  0  0  0  0  0  0  0  0  0  0  0
  1  2  1  0
  2  3  1  0
  3  4  1  0
  4  5  1  0
  5  6  2  0
  6  7  1  0
  7  8  2  0
  8  9  1  0
  9 10  2  0
  3 11  1  0
 11 12  2  0
 11 13  1  0
 13 14  1  0
 14 15  1  0
 15 16  2  0
 16 17  1  0
 17 18  2  0
 18 19  1  0
 19 20  2  0
 20 21  1  0
 20 22  1  0
 22 23  1  0
 22 24  2  0
 16 25  1  0
 25 26  1  0
 26 27  1  0
 27 28  2  0
 27 29  1  0
 10  5  1  0
 26 14  2  0
 24 17  1  0
M  END
>  <score>  (60) 
-1.456417

$$$$
HIPS550
     RDKit          3D

 37 39  0  0  0  0  0  0  0  0999 V2000
    3.9027   -2.0218   -0.8406 C   0  0  0  0  0  0  0  0  0  0  0  0
    4.1534   -2.2660    0.6447 C   0  0  0  0  0  0  0  0  0  0  0  0
    2.9854   -2.9039    1.2703 N   0  0  0  0  0  0  0  0  0  0  0  0
    3.1187   -4.2848    1.7581 C   0  0  0  0  0  0  0  0  0  0  0  0
    3.2416   -5.2461    0.6024 C   0  0  0  0  0  0  0  0  0  0  0  0
    2.1951   -5.3823   -0.3268 C   0  0  0  0  0  0  0  0  0  0  0  0
    2.3257   -6.2521   -1.4134 C   0  0  0  0  0  0  0  0  0  0  0  0
    3.4952   -6.9989   -1.5780 C   0  0  0  0  0  0  0  0  0  0  0  0
    4.5385   -6.8741   -0.6574 C   0  0  0  0  0  0  0  0  0  0  0  0
    4.4149   -6.0012    0.4282 C   0  0  0  0  0  0  0  0  0  0  0  0
    1.7748   -2.1333    1.4557 C   0  0  0  0  0  0  0  0  0  0  0  0
    1.8500   -0.8743    1.5144 O   0  0  0  0  0  0  0  0  0  0  0  0
    0.4867   -2.7670    1.5592 N   0  0  0  0  0  0  0  0  0  0  0  0
   -0.7444   -2.0426    1.4165 C   0  0  0  0  0  0  0  0  0  0  0  0
   -0.9188   -1.0161    0.4713 C   0  0  0  0  0  0  0  0  0  0  0  0
   -2.2106   -0.4890    0.4482 C   0  0  0  0  0  0  0  0  0  0  0  0
   -2.7044    0.6242   -0.4028 C   0  0  0  0  0  0  0  0  0  0  0  0
   -4.0789    0.9012   -0.4768 C   0  0  0  0  0  0  0  0  0  0  0  0
   -4.5467    1.9800   -1.2274 C   0  0  0  0  0  0  0  0  0  0  0  0
   -3.6556    2.8133   -1.9090 C   0  0  0  0  0  0  0  0  0  0  0  0
   -4.3262    4.1821   -2.7914 Cl  0  0  0  0  0  0  0  0  0  0  0  0
   -2.2681    2.5538   -1.8507 C   0  0  0  0  0  0  0  0  0  0  0  0
   -1.2527    3.4453   -2.5336 C   0  0  0  0  0  0  0  0  0  0  0  0
   -0.3025    4.1499   -1.5475 C   0  0  0  0  0  0  0  0  0  0  0  0
   -0.9871    5.1881   -0.6322 C   0  0  0  0  0  0  0  0  0  0  0  0
   -1.6473    4.5932    0.6234 C   0  0  0  0  0  0  0  0  0  0  0  0
   -0.6975    3.8063    1.4117 N   0  0  0  0  0  0  0  0  0  0  0  0
   -1.1188    2.7699    2.3052 C   0  0  0  0  0  0  0  0  0  0  0  0
   -2.3435    2.4918    2.4284 O   0  0  0  0  0  0  0  0  0  0  0  0
   -0.1578    2.0690    3.0397 O   0  0  0  0  0  0  0  0  0  0  0  0
   -0.4958    1.0325    3.9554 C   0  0  0  0  0  0  0  0  0  0  0  0
   -1.8105    1.4464   -1.1130 C   0  0  0  0  0  0  0  0  0  0  0  0
   -3.1236   -1.3181    1.5993 S   0  0  0  0  0  0  0  0  0  0  0  0
   -1.9053   -2.3432    2.1350 C   0  0  0  0  0  0  0  0  0  0  0  0
   -2.0703   -3.3181    3.2257 C   0  0  0  0  0  0  0  0  0  0  0  0
   -1.0802   -3.9509    3.6800 O   0  0  0  0  0  0  0  0  0  0  0  0
   -3.3316   -3.5271    3.7768 O   0  0  0  0  0  0  0  0  0  0  0  0
  1  2  1  0
  2  3  1  0
  3  4  1  0
  4  5  1  0
  5  6  2  0
  6  7  1  0
  7  8  2  0
  8  9  1  0
  9 10  2  0
  3 11  1  0
 11 12  2  0
 11 13  1  0
 13 14  1  0
 14 15  1  0
 15 16  2  0
 16 17  1  0
 17 18  2  0
 18 19  1  0
 19 20  2  0
 20 21  1  0
 20 22  1  0
 22 23  1  0
 23 24  1  0
 24 25  1  0
 25 26  1  0
 26 27  1  0
 27 28  1  0
 28 29  2  0
 28 30  1  0
 30 31  1  0
 22 32  2  0
 16 33  1  0
 33 34  1  0
 34 35  1  0
 35 36  2  0
 35 37  1  0
 10  5  1  0
 34 14  2  0
 32 17  1  0
M  END
>  <score>  (61) 
-0.492814

$$$$
HIPS5763
     RDKit          3D

 22 24  0  0  0  0  0  0  0  0999 V2000
    2.6965   -4.1925   -1.4831 O   0  0  0  0  0  0  0  0  0  0  0  0
    2.0602   -3.1528   -1.8019 C   0  0  0  0  0  0  0  0  0  0  0  0
    0.8414   -3.2755   -2.4642 O   0  0  0  0  0  0  0  0  0  0  0  0
    2.5607   -1.8125   -1.4233 C   0  0  0  0  0  0  0  0  0  0  0  0
    1.6200   -0.8155   -1.1057 C   0  0  0  0  0  0  0  0  0  0  0  0
    2.0364    0.4476   -0.6711 C   0  0  0  0  0  0  0  0  0  0  0  0
    1.0615    1.4525   -0.3392 C   0  0  0  0  0  0  0  0  0  0  0  0
    0.2402    2.2908   -0.0639 C   0  0  0  0  0  0  0  0  0  0  0  0
   -0.7479    3.2919    0.2633 C   0  0  0  0  0  0  0  0  0  0  0  0
   -0.3092    4.5035    0.8147 C   0  0  0  0  0  0  0  0  0  0  0  0
   -1.2239    5.5035    1.1474 C   0  0  0  0  0  0  0  0  0  0  0  0
   -2.5886    5.3081    0.9341 C   0  0  0  0  0  0  0  0  0  0  0  0
   -3.0526    4.1047    0.3832 C   0  0  0  0  0  0  0  0  0  0  0  0
   -4.4264    3.9113    0.1687 C   0  0  0  0  0  0  0  0  0  0  0  0
   -4.8911    2.7150   -0.3804 C   0  0  0  0  0  0  0  0  0  0  0  0
   -3.9927    1.7026   -0.7193 C   0  0  0  0  0  0  0  0  0  0  0  0
   -2.6222    1.8780   -0.5121 C   0  0  0  0  0  0  0  0  0  0  0  0
   -2.1303    3.0796    0.0410 C   0  0  0  0  0  0  0  0  0  0  0  0
    3.3994    0.7279   -0.5486 C   0  0  0  0  0  0  0  0  0  0  0  0
    4.3445   -0.2436   -0.8803 C   0  0  0  0  0  0  0  0  0  0  0  0
    3.9432   -1.5043   -1.3383 C   0  0  0  0  0  0  0  0  0  0  0  0
    4.9413   -2.4005   -1.7276 O   0  0  0  0  0  0  0  0  0  0  0  0
  1  2  2  0
  2  3  1  0
  2  4  1  0
  4  5  2  0
  5  6  1  0
  6  7  1  0
  7  8  3  0
  8  9  1  0
  9 10  2  0
 10 11  1  0
 11 12  2  0
 12 13  1  0
 13 14  2  0
 14 15  1  0
 15 16  2  0
 16 17  1  0
 17 18  2  0
  6 19  2  0
 19 20  1  0
 20 21  2  0
 21 22  1  0
 21  4  1  0
 18  9  1  0
 18 13  1  0
M  END
>  <score>  (62) 
-0.581274

$$$$
HIPS5765
     RDKit          3D

 26 27  0  0  0  0  0  0  0  0999 V2000
   -3.9825   -0.7909    1.6680 C   0  0  0  0  0  0  0  0  0  0  0  0
   -3.7559   -1.5108    0.3116 C   0  0  0  0  0  0  0  0  0  0  0  0
   -5.0285   -1.2582   -0.5342 C   0  0  0  0  0  0  0  0  0  0  0  0
   -3.6167   -3.0186    0.6176 C   0  0  0  0  0  0  0  0  0  0  0  0
   -2.4934   -1.0012   -0.4436 C   0  0  0  0  0  0  0  0  0  0  0  0
   -1.5722   -0.1396    0.1896 C   0  0  0  0  0  0  0  0  0  0  0  0
   -0.4185    0.2969   -0.4577 C   0  0  0  0  0  0  0  0  0  0  0  0
    0.5952    1.1294    0.2845 C   0  0  0  0  0  0  0  0  0  0  0  0
    1.5903    0.2346    0.9726 C   0  0  0  0  0  0  0  0  0  0  0  0
    2.7607   -0.1589    0.3118 C   0  0  0  0  0  0  0  0  0  0  0  0
    3.6572   -1.0309    0.9297 C   0  0  0  0  0  0  0  0  0  0  0  0
    3.3971   -1.5352    2.2088 C   0  0  0  0  0  0  0  0  0  0  0  0
    4.2954   -2.4654    2.7359 O   0  0  0  0  0  0  0  0  0  0  0  0
    2.2313   -1.1239    2.9010 C   0  0  0  0  0  0  0  0  0  0  0  0
    1.9433   -1.5469    4.2887 C   0  0  0  0  0  0  0  0  0  0  0  0
    0.7512   -1.7237    4.6591 O   0  0  0  0  0  0  0  0  0  0  0  0
    2.9737   -1.6944    5.2128 O   0  0  0  0  0  0  0  0  0  0  0  0
    1.3267   -0.2582    2.2594 C   0  0  0  0  0  0  0  0  0  0  0  0
   -0.1823   -0.0782   -1.7784 C   0  0  0  0  0  0  0  0  0  0  0  0
   -1.0964   -0.8770   -2.4991 C   0  0  0  0  0  0  0  0  0  0  0  0
   -0.8723   -1.1118   -4.0244 C   0  0  0  0  0  0  0  0  0  0  0  0
   -0.0942   -2.4251   -4.2429 C   0  0  0  0  0  0  0  0  0  0  0  0
   -0.0386    0.0342   -4.6688 C   0  0  0  0  0  0  0  0  0  0  0  0
   -2.2165   -1.1413   -4.8053 C   0  0  0  0  0  0  0  0  0  0  0  0
   -2.1882   -1.4433   -1.7655 C   0  0  0  0  0  0  0  0  0  0  0  0
   -2.9567   -2.4744   -2.3010 O   0  0  0  0  0  0  0  0  0  0  0  0
  1  2  1  0
  2  3  1  0
  2  4  1  0
  2  5  1  0
  5  6  2  0
  6  7  1  0
  7  8  1  0
  8  9  1  0
  9 10  2  0
 10 11  1  0
 11 12  2  0
 12 13  1  0
 12 14  1  0
 14 15  1  0
 15 16  2  0
 15 17  1  0
 14 18  2  0
  7 19  2  0
 19 20  1  0
 20 21  1  0
 21 22  1  0
 21 23  1  0
 21 24  1  0
 20 25  2  0
 25 26  1  0
 25  5  1  0
 18  9  1  0
M  END
>  <score>  (63) 
-0.529992

$$$$
HIPS5841
     RDKit          3D

 25 28  0  0  0  0  0  0  0  0999 V2000
   -2.4963    5.1564   -3.1169 O   0  0  0  0  0  0  0  0  0  0  0  0
   -1.7941    4.1158   -3.0080 C   0  0  0  0  0  0  0  0  0  0  0  0
   -0.4218    4.2371   -2.8058 O   0  0  0  0  0  0  0  0  0  0  0  0
   -2.4198    2.7748   -3.0279 C   0  0  0  0  0  0  0  0  0  0  0  0
   -1.8659    1.7685   -2.2152 C   0  0  0  0  0  0  0  0  0  0  0  0
   -2.4546    0.4928   -2.1331 C   0  0  0  0  0  0  0  0  0  0  0  0
   -1.8956   -0.5377   -1.2925 N   0  0  0  0  0  0  0  0  0  0  0  0
   -0.6941   -0.5488   -0.6816 C   0  0  0  0  0  0  0  0  0  0  0  0
   -0.6134   -1.7458   -0.0004 C   0  0  0  0  0  0  0  0  0  0  0  0
    0.5521   -2.2571    0.7592 C   0  0  0  0  0  0  0  0  0  0  0  0
    1.8349   -2.0300    0.2298 C   0  0  0  0  0  0  0  0  0  0  0  0
    2.9696   -2.5440    0.8550 C   0  0  0  0  0  0  0  0  0  0  0  0
    2.8503   -3.2930    2.0225 C   0  0  0  0  0  0  0  0  0  0  0  0
    1.5898   -3.5190    2.5909 C   0  0  0  0  0  0  0  0  0  0  0  0
    1.4836   -4.2563    3.7810 C   0  0  0  0  0  0  0  0  0  0  0  0
    0.2381   -4.4583    4.3749 C   0  0  0  0  0  0  0  0  0  0  0  0
   -0.9088   -3.9179    3.7956 C   0  0  0  0  0  0  0  0  0  0  0  0
   -0.8223   -3.1846    2.6096 C   0  0  0  0  0  0  0  0  0  0  0  0
    0.4229   -2.9908    1.9714 C   0  0  0  0  0  0  0  0  0  0  0  0
   -1.7475   -2.4367   -0.2321 N   0  0  0  0  0  0  0  0  0  0  0  0
   -2.5062   -1.6797   -1.0109 N   0  0  0  0  0  0  0  0  0  0  0  0
   -3.6189    0.2371   -2.8733 C   0  0  0  0  0  0  0  0  0  0  0  0
   -4.1655    1.2195   -3.6984 C   0  0  0  0  0  0  0  0  0  0  0  0
   -3.5675    2.4785   -3.8036 C   0  0  0  0  0  0  0  0  0  0  0  0
   -4.1219    3.3868   -4.7084 O   0  0  0  0  0  0  0  0  0  0  0  0
  1  2  2  0
  2  3  1  0
  2  4  1  0
  4  5  2  0
  5  6  1  0
  6  7  1  0
  7  8  1  0
  8  9  2  0
  9 10  1  0
 10 11  2  0
 11 12  1  0
 12 13  2  0
 13 14  1  0
 14 15  2  0
 15 16  1  0
 16 17  2  0
 17 18  1  0
 18 19  2  0
  9 20  1  0
 20 21  2  0
  6 22  2  0
 22 23  1  0
 23 24  2  0
 24 25  1  0
 24  4  1  0
 21  7  1  0
 19 10  1  0
 19 14  1  0
M  END
>  <score>  (64) 
0.350785

$$$$
HIPS5842
     RDKit          3D

 22 24  0  0  0  0  0  0  0  0999 V2000
   -1.0180   -1.8926   -5.4759 O   0  0  0  0  0  0  0  0  0  0  0  0
   -1.5191   -1.6229   -4.3516 C   0  0  0  0  0  0  0  0  0  0  0  0
   -2.3989   -2.5271   -3.7624 O   0  0  0  0  0  0  0  0  0  0  0  0
   -1.1330   -0.3919   -3.6266 C   0  0  0  0  0  0  0  0  0  0  0  0
   -1.0484   -0.4433   -2.2229 C   0  0  0  0  0  0  0  0  0  0  0  0
   -0.6182    0.6710   -1.4775 C   0  0  0  0  0  0  0  0  0  0  0  0
   -0.5204    0.6215   -0.0381 N   0  0  0  0  0  0  0  0  0  0  0  0
   -0.6517   -0.4505    0.7693 C   0  0  0  0  0  0  0  0  0  0  0  0
   -0.4676    0.0056    2.0613 C   0  0  0  0  0  0  0  0  0  0  0  0
   -0.5076   -0.7798    3.3178 C   0  0  0  0  0  0  0  0  0  0  0  0
   -0.2814   -0.1415    4.5513 C   0  0  0  0  0  0  0  0  0  0  0  0
   -0.3163   -0.8696    5.7444 C   0  0  0  0  0  0  0  0  0  0  0  0
   -0.5773   -2.2420    5.7214 C   0  0  0  0  0  0  0  0  0  0  0  0
   -0.6244   -3.2342    7.3527 Br  0  0  0  0  0  0  0  0  0  0  0  0
   -0.8040   -2.8872    4.5029 C   0  0  0  0  0  0  0  0  0  0  0  0
   -0.7701   -2.1633    3.3069 C   0  0  0  0  0  0  0  0  0  0  0  0
   -0.2299    1.3317    2.0021 N   0  0  0  0  0  0  0  0  0  0  0  0
   -0.2669    1.6755    0.7236 N   0  0  0  0  0  0  0  0  0  0  0  0
   -0.2780    1.8488   -2.1607 C   0  0  0  0  0  0  0  0  0  0  0  0
   -0.3769    1.9183   -3.5499 C   0  0  0  0  0  0  0  0  0  0  0  0
   -0.8205    0.8196   -4.2909 C   0  0  0  0  0  0  0  0  0  0  0  0
   -0.9692    0.9843   -5.6699 O   0  0  0  0  0  0  0  0  0  0  0  0
  1  2  2  0
  2  3  1  0
  2  4  1  0
  4  5  2  0
  5  6  1  0
  6  7  1  0
  7  8  1  0
  8  9  2  0
  9 10  1  0
 10 11  2  0
 11 12  1  0
 12 13  2  0
 13 14  1  0
 13 15  1  0
 15 16  2  0
  9 17  1  0
 17 18  2  0
  6 19  2  0
 19 20  1  0
 20 21  2  0
 21 22  1  0
 21  4  1  0
 18  7  1  0
 16 10  1  0
M  END
>  <score>  (65) 
0.271508

$$$$
HIPS5843
     RDKit          3D

 23 25  0  0  0  0  0  0  0  0999 V2000
    4.0909    1.7261    1.4336 O   0  0  0  0  0  0  0  0  0  0  0  0
    4.4823    1.2370    0.3394 C   0  0  0  0  0  0  0  0  0  0  0  0
    5.5751    1.8046   -0.3095 O   0  0  0  0  0  0  0  0  0  0  0  0
    3.7433    0.1119   -0.2746 C   0  0  0  0  0  0  0  0  0  0  0  0
    2.3434    0.0670   -0.1337 C   0  0  0  0  0  0  0  0  0  0  0  0
    1.5803   -0.9373   -0.7599 C   0  0  0  0  0  0  0  0  0  0  0  0
    0.1433   -0.9848   -0.6275 N   0  0  0  0  0  0  0  0  0  0  0  0
   -0.6690   -0.0892   -0.0302 C   0  0  0  0  0  0  0  0  0  0  0  0
   -1.9566   -0.5735   -0.1671 C   0  0  0  0  0  0  0  0  0  0  0  0
   -3.2165    0.0412    0.3153 C   0  0  0  0  0  0  0  0  0  0  0  0
   -3.2116    1.2612    1.0184 C   0  0  0  0  0  0  0  0  0  0  0  0
   -4.4111    1.8262    1.4661 C   0  0  0  0  0  0  0  0  0  0  0  0
   -4.3913    3.3467    2.3411 Cl  0  0  0  0  0  0  0  0  0  0  0  0
   -5.6253    1.1809    1.2175 C   0  0  0  0  0  0  0  0  0  0  0  0
   -5.6433   -0.0303    0.5211 C   0  0  0  0  0  0  0  0  0  0  0  0
   -7.1686   -0.8391    0.2101 Cl  0  0  0  0  0  0  0  0  0  0  0  0
   -4.4461   -0.5982    0.0720 C   0  0  0  0  0  0  0  0  0  0  0  0
   -1.8903   -1.7405   -0.8396 N   0  0  0  0  0  0  0  0  0  0  0  0
   -0.6120   -1.9632   -1.1048 N   0  0  0  0  0  0  0  0  0  0  0  0
    2.2433   -1.9052   -1.5308 C   0  0  0  0  0  0  0  0  0  0  0  0
    3.6316   -1.8817   -1.6611 C   0  0  0  0  0  0  0  0  0  0  0  0
    4.3923   -0.8974   -1.0247 C   0  0  0  0  0  0  0  0  0  0  0  0
    5.7824   -0.9788   -1.1315 O   0  0  0  0  0  0  0  0  0  0  0  0
  1  2  2  0
  2  3  1  0
  2  4  1  0
  4  5  2  0
  5  6  1  0
  6  7  1  0
  7  8  1  0
  8  9  2  0
  9 10  1  0
 10 11  2  0
 11 12  1  0
 12 13  1  0
 12 14  2  0
 14 15  1  0
 15 16  1  0
 15 17  2  0
  9 18  1  0
 18 19  2  0
  6 20  2  0
 20 21  1  0
 21 22  2  0
 22 23  1  0
 22  4  1  0
 19  7  1  0
 17 10  1  0
M  END
>  <score>  (66) 
-0.078002

$$$$
HIPS5844
     RDKit          3D

 23 24  0  0  0  0  0  0  0  0999 V2000
   -5.2059   -3.6225    0.6881 O   0  0  0  0  0  0  0  0  0  0  0  0
   -4.0026   -3.2505    0.6540 C   0  0  0  0  0  0  0  0  0  0  0  0
   -3.1102   -3.7395    1.6047 O   0  0  0  0  0  0  0  0  0  0  0  0
   -3.5453   -2.2560   -0.3419 C   0  0  0  0  0  0  0  0  0  0  0  0
   -2.5414   -1.3462    0.0368 C   0  0  0  0  0  0  0  0  0  0  0  0
   -2.1143   -0.3360   -0.8313 C   0  0  0  0  0  0  0  0  0  0  0  0
   -1.1159    0.5438   -0.3881 O   0  0  0  0  0  0  0  0  0  0  0  0
   -0.5770    1.6104   -1.1647 C   0  0  0  0  0  0  0  0  0  0  0  0
    0.4927    2.3121   -0.3716 C   0  0  0  0  0  0  0  0  0  0  0  0
    0.2364    3.5823    0.1694 C   0  0  0  0  0  0  0  0  0  0  0  0
    1.2106    4.2445    0.9198 C   0  0  0  0  0  0  0  0  0  0  0  0
    2.4519    3.6377    1.1695 C   0  0  0  0  0  0  0  0  0  0  0  0
    3.5222    4.3705    1.9393 C   0  0  0  0  0  0  0  0  0  0  0  0
    4.3169    3.4768    2.6376 F   0  0  0  0  0  0  0  0  0  0  0  0
    4.3131    5.0817    1.0549 F   0  0  0  0  0  0  0  0  0  0  0  0
    2.9590    5.2505    2.8488 F   0  0  0  0  0  0  0  0  0  0  0  0
    2.7159    2.3735    0.6164 C   0  0  0  0  0  0  0  0  0  0  0  0
    1.7439    1.7052   -0.1378 C   0  0  0  0  0  0  0  0  0  0  0  0
    2.1289    0.1093   -0.7757 Cl  0  0  0  0  0  0  0  0  0  0  0  0
   -2.6981   -0.2330   -2.1047 C   0  0  0  0  0  0  0  0  0  0  0  0
   -3.6796   -1.1415   -2.5021 C   0  0  0  0  0  0  0  0  0  0  0  0
   -4.0960   -2.1660   -1.6452 C   0  0  0  0  0  0  0  0  0  0  0  0
   -5.0249   -3.0856   -2.1372 O   0  0  0  0  0  0  0  0  0  0  0  0
  1  2  2  0
  2  3  1  0
  2  4  1  0
  4  5  2  0
  5  6  1  0
  6  7  1  0
  7  8  1  0
  8  9  1  0
  9 10  2  0
 10 11  1  0
 11 12  2  0
 12 13  1  0
 13 14  1  0
 13 15  1  0
 13 16  1  0
 12 17  1  0
 17 18  2  0
 18 19  1  0
  6 20  2  0
 20 21  1  0
 21 22  2  0
 22 23  1  0
 22  4  1  0
 18  9  1  0
M  END
>  <score>  (67) 
0.007454

$$$$
HIPS5846
     RDKit          3D

 26 27  0  0  0  0  0  0  0  0999 V2000
   -3.9975    2.0376    2.3085 C   0  0  0  0  0  0  0  0  0  0  0  0
   -3.6556    1.3593    0.9595 C   0  0  0  0  0  0  0  0  0  0  0  0
   -3.4838    2.4758   -0.0940 C   0  0  0  0  0  0  0  0  0  0  0  0
   -4.8540    0.4661    0.5702 C   0  0  0  0  0  0  0  0  0  0  0  0
   -2.3708    0.5040    1.0145 C   0  0  0  0  0  0  0  0  0  0  0  0
   -1.9419   -0.1720   -0.1441 C   0  0  0  0  0  0  0  0  0  0  0  0
   -0.7700   -0.9346   -0.1485 C   0  0  0  0  0  0  0  0  0  0  0  0
   -0.3144   -1.6270   -1.4074 C   0  0  0  0  0  0  0  0  0  0  0  0
    1.0287   -1.2606   -1.7261 O   0  0  0  0  0  0  0  0  0  0  0  0
    1.4450    0.0152   -2.1410 C   0  0  0  0  0  0  0  0  0  0  0  0
    0.5402    1.0454   -2.4470 C   0  0  0  0  0  0  0  0  0  0  0  0
    1.0097    2.3009   -2.8329 C   0  0  0  0  0  0  0  0  0  0  0  0
    2.3823    2.5545   -2.9244 C   0  0  0  0  0  0  0  0  0  0  0  0
    2.7824    3.8551   -3.2396 O   0  0  0  0  0  0  0  0  0  0  0  0
    3.3056    1.5106   -2.6659 C   0  0  0  0  0  0  0  0  0  0  0  0
    4.7664    1.6729   -2.8361 C   0  0  0  0  0  0  0  0  0  0  0  0
    5.2315    2.4176   -3.7398 O   0  0  0  0  0  0  0  0  0  0  0  0
    5.6420    0.9490   -2.0311 O   0  0  0  0  0  0  0  0  0  0  0  0
    2.8178    0.2563   -2.2575 C   0  0  0  0  0  0  0  0  0  0  0  0
   -0.0174   -1.0577    1.0241 C   0  0  0  0  0  0  0  0  0  0  0  0
   -0.4071   -0.4043    2.2124 C   0  0  0  0  0  0  0  0  0  0  0  0
    0.4084   -0.5035    3.5209 C   0  0  0  0  0  0  0  0  0  0  0  0
    0.8768    0.9062    3.9442 C   0  0  0  0  0  0  0  0  0  0  0  0
    1.6681   -1.3939    3.3884 C   0  0  0  0  0  0  0  0  0  0  0  0
   -0.4740   -1.1082    4.6352 C   0  0  0  0  0  0  0  0  0  0  0  0
   -1.5862    0.3737    2.1837 C   0  0  0  0  0  0  0  0  0  0  0  0
  1  2  1  0
  2  3  1  0
  2  4  1  0
  2  5  1  0
  5  6  2  0
  6  7  1  0
  7  8  1  0
  8  9  1  0
  9 10  1  0
 10 11  2  0
 11 12  1  0
 12 13  2  0
 13 14  1  0
 13 15  1  0
 15 16  1  0
 16 17  2  0
 16 18  1  0
 15 19  2  0
  7 20  2  0
 20 21  1  0
 21 22  1  0
 22 23  1  0
 22 24  1  0
 22 25  1  0
 21 26  2  0
 26  5  1  0
 19 10  1  0
M  END
>  <score>  (68) 
-0.89061

$$$$
HIPS5895
     RDKit          3D

 23 25  0  0  0  0  0  0  0  0999 V2000
   -5.0260   -3.9627   -0.4119 O   0  0  0  0  0  0  0  0  0  0  0  0
   -4.1960   -4.2456    0.4940 C   0  0  0  0  0  0  0  0  0  0  0  0
   -4.0407   -5.5719    0.8867 O   0  0  0  0  0  0  0  0  0  0  0  0
   -3.3530   -3.1822    1.0828 C   0  0  0  0  0  0  0  0  0  0  0  0
   -2.9194   -2.1301    0.2552 C   0  0  0  0  0  0  0  0  0  0  0  0
   -2.0453   -1.1451    0.7352 C   0  0  0  0  0  0  0  0  0  0  0  0
   -1.6347   -0.0808   -0.1401 N   0  0  0  0  0  0  0  0  0  0  0  0
   -0.3390    0.5409   -0.0966 C   0  0  0  0  0  0  0  0  0  0  0  0
    0.5899    0.0309    0.5870 O   0  0  0  0  0  0  0  0  0  0  0  0
   -0.0623    1.7448   -0.9116 C   0  0  0  0  0  0  0  0  0  0  0  0
   -0.3787    1.7084   -2.2799 C   0  0  0  0  0  0  0  0  0  0  0  0
   -0.0936    2.7932   -3.1083 C   0  0  0  0  0  0  0  0  0  0  0  0
    0.5125    3.9347   -2.5886 C   0  0  0  0  0  0  0  0  0  0  0  0
    0.8298    4.0077   -1.2254 C   0  0  0  0  0  0  0  0  0  0  0  0
    1.4270    5.1676   -0.7068 C   0  0  0  0  0  0  0  0  0  0  0  0
    1.7236    5.2584    0.6534 C   0  0  0  0  0  0  0  0  0  0  0  0
    1.4205    4.1994    1.5084 C   0  0  0  0  0  0  0  0  0  0  0  0
    0.8284    3.0366    1.0090 C   0  0  0  0  0  0  0  0  0  0  0  0
    0.5380    2.9121   -0.3673 C   0  0  0  0  0  0  0  0  0  0  0  0
   -1.6309   -1.1917    2.0748 C   0  0  0  0  0  0  0  0  0  0  0  0
   -2.0705   -2.2174    2.9121 C   0  0  0  0  0  0  0  0  0  0  0  0
   -2.9411   -3.2043    2.4377 C   0  0  0  0  0  0  0  0  0  0  0  0
   -3.4022   -4.1572    3.3484 O   0  0  0  0  0  0  0  0  0  0  0  0
  1  2  2  0
  2  3  1  0
  2  4  1  0
  4  5  2  0
  5  6  1  0
  6  7  1  0
  7  8  1  0
  8  9  2  0
  8 10  1  0
 10 11  2  0
 11 12  1  0
 12 13  2  0
 13 14  1  0
 14 15  2  0
 15 16  1  0
 16 17  2  0
 17 18  1  0
 18 19  2  0
  6 20  2  0
 20 21  1  0
 21 22  2  0
 22 23  1  0
 22  4  1  0
 19 10  1  0
 19 14  1  0
M  END
>  <score>  (69) 
1.153769

$$$$
HIPS5896
     RDKit          3D

 24 26  0  0  0  0  0  0  0  0999 V2000
    3.4171   -1.4613   -2.8739 O   0  0  0  0  0  0  0  0  0  0  0  0
    2.5991   -1.7534   -1.9611 C   0  0  0  0  0  0  0  0  0  0  0  0
    1.4995   -2.5534   -2.2613 O   0  0  0  0  0  0  0  0  0  0  0  0
    2.7586   -1.2033   -0.5965 C   0  0  0  0  0  0  0  0  0  0  0  0
    1.5984   -0.8961    0.1373 C   0  0  0  0  0  0  0  0  0  0  0  0
    1.6805   -0.3002    1.4093 C   0  0  0  0  0  0  0  0  0  0  0  0
    0.5053    0.0459    2.1658 N   0  0  0  0  0  0  0  0  0  0  0  0
   -1.1029   -0.4686    1.7573 S   0  0  0  0  0  6  0  0  0  0  0  0
   -1.0794   -1.9469    1.4830 O   0  0  0  0  0  0  0  0  0  0  0  0
   -2.0011   -0.2021    2.9323 O   0  0  0  0  0  0  0  0  0  0  0  0
   -1.7229    0.4149    0.3482 C   0  0  0  0  0  0  0  0  0  0  0  0
   -0.9581    1.4747   -0.1664 C   0  0  0  0  0  0  0  0  0  0  0  0
   -1.3799    2.1826   -1.2903 C   0  0  0  0  0  0  0  0  0  0  0  0
   -2.5777    1.8541   -1.9192 C   0  0  0  0  0  0  0  0  0  0  0  0
   -3.3757    0.8166   -1.4195 C   0  0  0  0  0  0  0  0  0  0  0  0
   -4.5888    0.5023   -2.0524 C   0  0  0  0  0  0  0  0  0  0  0  0
   -5.3975   -0.5195   -1.5555 C   0  0  0  0  0  0  0  0  0  0  0  0
   -5.0070   -1.2324   -0.4230 C   0  0  0  0  0  0  0  0  0  0  0  0
   -3.8022   -0.9344    0.2184 C   0  0  0  0  0  0  0  0  0  0  0  0
   -2.9598    0.0877   -0.2708 C   0  0  0  0  0  0  0  0  0  0  0  0
    2.9424   -0.0052    1.9394 C   0  0  0  0  0  0  0  0  0  0  0  0
    4.1012   -0.3256    1.2328 C   0  0  0  0  0  0  0  0  0  0  0  0
    4.0264   -0.9425   -0.0196 C   0  0  0  0  0  0  0  0  0  0  0  0
    5.2254   -1.3066   -0.6366 O   0  0  0  0  0  0  0  0  0  0  0  0
  1  2  2  0
  2  3  1  0
  2  4  1  0
  4  5  2  0
  5  6  1  0
  6  7  1  0
  7  8  1  0
  8  9  2  0
  8 10  2  0
  8 11  1  0
 11 12  2  0
 12 13  1  0
 13 14  2  0
 14 15  1  0
 15 16  2  0
 16 17  1  0
 17 18  2  0
 18 19  1  0
 19 20  2  0
  6 21  2  0
 21 22  1  0
 22 23  2  0
 23 24  1  0
 23  4  1  0
 20 11  1  0
 20 15  1  0
M  END
>  <score>  (70) 
1.153769

$$$$
HIPS5897
     RDKit          3D

 21 23  0  0  0  0  0  0  0  0999 V2000
    0.6699   -2.8738   -3.4647 O   0  0  0  0  0  0  0  0  0  0  0  0
    0.1065   -2.9352   -2.3394 C   0  0  0  0  0  0  0  0  0  0  0  0
    0.6531   -3.7446   -1.3468 O   0  0  0  0  0  0  0  0  0  0  0  0
   -1.0841   -2.1072   -2.0420 C   0  0  0  0  0  0  0  0  0  0  0  0
   -1.2446   -1.6190   -0.7327 C   0  0  0  0  0  0  0  0  0  0  0  0
   -2.3063   -0.7563   -0.4036 C   0  0  0  0  0  0  0  0  0  0  0  0
   -2.4723   -0.2237    0.9257 N   0  0  0  0  0  0  0  0  0  0  0  0
   -1.4863   -0.3524    2.0004 C   0  0  0  0  0  0  0  0  0  0  0  0
   -0.2416    0.4336    1.6789 C   0  0  0  0  0  0  0  0  0  0  0  0
   -0.3153    1.8086    1.3573 C   0  0  0  0  0  0  0  0  0  0  0  0
    0.8546    2.5425    1.0576 C   0  0  0  0  0  0  0  0  0  0  0  0
    2.1142    1.9181    1.0827 C   0  0  0  0  0  0  0  0  0  0  0  0
    2.1561    0.5673    1.4152 C   0  0  0  0  0  0  0  0  0  0  0  0
    3.2263   -0.2305    1.5093 N   0  0  0  0  0  0  0  0  0  0  0  0
    2.7110   -1.4314    1.8636 C   0  0  0  0  0  0  0  0  0  0  0  0
    1.3591   -1.4222    1.9969 N   0  0  0  0  0  0  0  0  0  0  0  0
    1.0326   -0.1482    1.7069 C   0  0  0  0  0  0  0  0  0  0  0  0
   -3.2228   -0.3994   -1.4003 C   0  0  0  0  0  0  0  0  0  0  0  0
   -3.0906   -0.8967   -2.6965 C   0  0  0  0  0  0  0  0  0  0  0  0
   -2.0436   -1.7627   -3.0264 C   0  0  0  0  0  0  0  0  0  0  0  0
   -2.0147   -2.2813   -4.3229 O   0  0  0  0  0  0  0  0  0  0  0  0
  1  2  2  0
  2  3  1  0
  2  4  1  0
  4  5  2  0
  5  6  1  0
  6  7  1  0
  7  8  1  0
  8  9  1  0
  9 10  2  0
 10 11  1  0
 11 12  2  0
 12 13  1  0
 13 14  1  0
 14 15  1  0
 15 16  2  0
 16 17  1  0
  6 18  2  0
 18 19  1  0
 19 20  2  0
 20 21  1  0
 20  4  1  0
 17  9  1  0
 17 13  2  0
M  END
>  <score>  (71) 
0.948641

$$$$
HIPS5910
     RDKit          3D

 20 21  0  0  0  0  0  0  0  0999 V2000
    3.5265    2.2023    1.7146 O   0  0  0  0  0  0  0  0  0  0  0  0
    2.3939    1.7408    1.4119 C   0  0  0  0  0  0  0  0  0  0  0  0
    1.2557    2.2833    2.0032 O   0  0  0  0  0  0  0  0  0  0  0  0
    2.2570    0.6776    0.3918 C   0  0  0  0  0  0  0  0  0  0  0  0
    1.1245    0.6977   -0.4423 C   0  0  0  0  0  0  0  0  0  0  0  0
    0.9655   -0.2509   -1.4695 C   0  0  0  0  0  0  0  0  0  0  0  0
   -0.1538   -0.2699   -2.3182 O   0  0  0  0  0  0  0  0  0  0  0  0
   -1.3070    0.5623   -2.1842 C   0  0  0  0  0  0  0  0  0  0  0  0
   -2.0927    0.1942   -0.9532 C   0  0  0  0  0  0  0  0  0  0  0  0
   -2.4429    1.1738   -0.0092 C   0  0  0  0  0  0  0  0  0  0  0  0
   -3.1690    0.8232    1.1343 C   0  0  0  0  0  0  0  0  0  0  0  0
   -3.5886    2.0494    2.3162 Cl  0  0  0  0  0  0  0  0  0  0  0  0
   -3.5588   -0.5047    1.3359 C   0  0  0  0  0  0  0  0  0  0  0  0
   -3.2255   -1.4832    0.3938 C   0  0  0  0  0  0  0  0  0  0  0  0
   -3.7185   -3.1475    0.6460 Cl  0  0  0  0  0  0  0  0  0  0  0  0
   -2.4977   -1.1349   -0.7492 C   0  0  0  0  0  0  0  0  0  0  0  0
    1.9573   -1.2138   -1.6659 C   0  0  0  0  0  0  0  0  0  0  0  0
    3.0785   -1.2557   -0.8373 C   0  0  0  0  0  0  0  0  0  0  0  0
    3.2300   -0.3363    0.2058 C   0  0  0  0  0  0  0  0  0  0  0  0
    4.3345   -0.4858    1.0475 O   0  0  0  0  0  0  0  0  0  0  0  0
  1  2  2  0
  2  3  1  0
  2  4  1  0
  4  5  2  0
  5  6  1  0
  6  7  1  0
  7  8  1  0
  8  9  1  0
  9 10  2  0
 10 11  1  0
 11 12  1  0
 11 13  2  0
 13 14  1  0
 14 15  1  0
 14 16  2  0
  6 17  2  0
 17 18  1  0
 18 19  2  0
 19 20  1  0
 19  4  1  0
 16  9  1  0
M  END
>  <score>  (72) 
0.237597

$$$$
HIPS5920
     RDKit          3D

 25 28  0  0  0  0  0  0  0  0999 V2000
   -5.4082   -0.6937    5.1251 O   0  0  0  0  0  0  0  0  0  0  0  0
   -4.1984   -1.0036    4.9546 C   0  0  0  0  0  0  0  0  0  0  0  0
   -3.4790   -1.5284    6.0257 O   0  0  0  0  0  0  0  0  0  0  0  0
   -3.5404   -0.8167    3.6359 C   0  0  0  0  0  0  0  0  0  0  0  0
   -2.1955   -1.1946    3.4800 C   0  0  0  0  0  0  0  0  0  0  0  0
   -1.5433   -1.0353    2.2557 C   0  0  0  0  0  0  0  0  0  0  0  0
   -2.2183   -0.4886    1.1515 C   0  0  0  0  0  0  0  0  0  0  0  0
   -1.5591   -0.3209   -0.1205 N   0  0  0  0  0  0  0  0  0  0  0  0
   -0.2443   -0.4350   -0.3934 C   0  0  0  0  0  0  0  0  0  0  0  0
   -0.1024   -0.1784   -1.7415 C   0  0  0  0  0  0  0  0  0  0  0  0
    1.1602   -0.0796   -2.5072 C   0  0  0  0  0  0  0  0  0  0  0  0
    1.3281    1.0369   -3.3431 C   0  0  0  0  0  0  0  0  0  0  0  0
    2.5201    1.2385   -4.0372 C   0  0  0  0  0  0  0  0  0  0  0  0
    3.5665    0.3276   -3.9161 C   0  0  0  0  0  0  0  0  0  0  0  0
    3.4207   -0.8135   -3.1157 C   0  0  0  0  0  0  0  0  0  0  0  0
    4.4712   -1.7404   -3.0230 C   0  0  0  0  0  0  0  0  0  0  0  0
    4.3218   -2.8991   -2.2611 C   0  0  0  0  0  0  0  0  0  0  0  0
    3.1218   -3.1501   -1.5974 C   0  0  0  0  0  0  0  0  0  0  0  0
    2.0676   -2.2367   -1.6756 C   0  0  0  0  0  0  0  0  0  0  0  0
    2.2052   -1.0397   -2.4120 C   0  0  0  0  0  0  0  0  0  0  0  0
   -1.3186    0.1139   -2.2434 N   0  0  0  0  0  0  0  0  0  0  0  0
   -2.1811    0.0112   -1.2428 N   0  0  0  0  0  0  0  0  0  0  0  0
   -3.5631   -0.1130    1.3012 C   0  0  0  0  0  0  0  0  0  0  0  0
   -4.2259   -0.2705    2.5276 C   0  0  0  0  0  0  0  0  0  0  0  0
   -5.5617    0.1176    2.6366 O   0  0  0  0  0  0  0  0  0  0  0  0
  1  2  2  0
  2  3  1  0
  2  4  1  0
  4  5  2  0
  5  6  1  0
  6  7  2  0
  7  8  1  0
  8  9  1  0
  9 10  2  0
 10 11  1  0
 11 12  2  0
 12 13  1  0
 13 14  2  0
 14 15  1  0
 15 16  2  0
 16 17  1  0
 17 18  2  0
 18 19  1  0
 19 20  2  0
 10 21  1  0
 21 22  2  0
  7 23  1  0
 23 24  2  0
 24 25  1  0
 24  4  1  0
 22  8  1  0
 20 11  1  0
 20 15  1  0
M  END
>  <score>  (73) 
0.633223

$$$$
HIPS5921
     RDKit          3D

 23 25  0  0  0  0  0  0  0  0999 V2000
   -5.0815    2.9414   -3.7770 O   0  0  0  0  0  0  0  0  0  0  0  0
   -4.8492    1.7038   -3.7141 C   0  0  0  0  0  0  0  0  0  0  0  0
   -5.5256    0.8386   -4.5692 O   0  0  0  0  0  0  0  0  0  0  0  0
   -3.8196    1.1912   -2.7838 C   0  0  0  0  0  0  0  0  0  0  0  0
   -2.6777    1.9737   -2.5455 C   0  0  0  0  0  0  0  0  0  0  0  0
   -1.6418    1.5017   -1.7373 C   0  0  0  0  0  0  0  0  0  0  0  0
   -1.7220    0.2311   -1.1425 C   0  0  0  0  0  0  0  0  0  0  0  0
   -0.6559   -0.2795   -0.3145 N   0  0  0  0  0  0  0  0  0  0  0  0
    0.4374    0.3731    0.1290 C   0  0  0  0  0  0  0  0  0  0  0  0
    1.1546   -0.5328    0.8882 C   0  0  0  0  0  0  0  0  0  0  0  0
    2.4346   -0.3102    1.6021 C   0  0  0  0  0  0  0  0  0  0  0  0
    3.0899    0.9353    1.5556 C   0  0  0  0  0  0  0  0  0  0  0  0
    4.2978    1.1267    2.2359 C   0  0  0  0  0  0  0  0  0  0  0  0
    5.1042    2.6834    2.1699 Cl  0  0  0  0  0  0  0  0  0  0  0  0
    4.8632    0.0794    2.9680 C   0  0  0  0  0  0  0  0  0  0  0  0
    4.2228   -1.1613    3.0216 C   0  0  0  0  0  0  0  0  0  0  0  0
    4.9343   -2.4751    3.9410 Cl  0  0  0  0  0  0  0  0  0  0  0  0
    3.0151   -1.3564    2.3427 C   0  0  0  0  0  0  0  0  0  0  0  0
    0.4802   -1.7008    0.8851 N   0  0  0  0  0  0  0  0  0  0  0  0
   -0.6081   -1.5184    0.1525 N   0  0  0  0  0  0  0  0  0  0  0  0
   -2.8710   -0.5462   -1.3657 C   0  0  0  0  0  0  0  0  0  0  0  0
   -3.9250   -0.0729   -2.1564 C   0  0  0  0  0  0  0  0  0  0  0  0
   -5.0668   -0.8701   -2.2620 O   0  0  0  0  0  0  0  0  0  0  0  0
  1  2  2  0
  2  3  1  0
  2  4  1  0
  4  5  2  0
  5  6  1  0
  6  7  2  0
  7  8  1  0
  8  9  1  0
  9 10  2  0
 10 11  1  0
 11 12  2  0
 12 13  1  0
 13 14  1  0
 13 15  2  0
 15 16  1  0
 16 17  1  0
 16 18  2  0
 10 19  1  0
 19 20  2  0
  7 21  1  0
 21 22  2  0
 22 23  1  0
 22  4  1  0
 20  8  1  0
 18 11  1  0
M  END
>  <score>  (74) 
-0.190436

$$$$
HIPS5963
     RDKit          3D

 18 18  0  0  0  0  0  0  0  0999 V2000
    2.1551   -1.8093   -0.9948 C   0  0  0  0  0  0  0  0  0  0  0  0
    3.2755   -1.1908   -0.1589 C   0  0  0  0  0  0  0  0  0  0  0  0
    3.0435   -1.3372    1.3539 C   0  0  0  0  0  0  0  0  0  0  0  0
    1.8365   -0.5505    1.8990 C   0  0  0  0  0  0  0  0  0  0  0  0
    2.0022    0.9834    1.8115 C   0  0  0  0  0  0  0  0  0  0  0  0
    1.1857    1.6133    0.6748 C   0  0  0  0  0  0  0  0  0  0  0  0
   -0.2485    1.4329    0.9055 N   0  0  0  0  0  0  0  0  0  0  0  0
   -1.1651    1.0621   -0.1335 C   0  0  0  0  0  0  0  0  0  0  0  0
   -0.7445    0.8430   -1.3023 O   0  0  0  0  0  0  0  0  0  0  0  0
   -2.5583    0.9092    0.1733 N   0  0  0  0  0  0  0  0  0  0  0  0
   -3.5706    0.7124   -0.8264 C   0  0  0  0  0  0  0  0  0  0  0  0
   -3.5602    1.3749   -2.0671 C   0  0  0  0  0  0  0  0  0  0  0  0
   -4.6729    1.1075   -2.8520 C   0  0  0  0  0  0  0  0  0  0  0  0
   -5.6738    0.0584   -2.0042 S   0  0  0  0  0  0  0  0  0  0  0  0
   -4.7104   -0.0742   -0.6302 C   0  0  0  0  0  0  0  0  0  0  0  0
   -5.0308   -0.9309    0.5244 C   0  0  0  0  0  0  0  0  0  0  0  0
   -6.1632   -1.4782    0.6004 O   0  0  0  0  0  0  0  0  0  0  0  0
   -4.0893   -1.1655    1.5212 O   0  0  0  0  0  0  0  0  0  0  0  0
  1  2  1  0
  2  3  1  0
  3  4  1  0
  4  5  1  0
  5  6  1  0
  6  7  1  0
  7  8  1  0
  8  9  2  0
  8 10  1  0
 10 11  1  0
 11 12  1  0
 12 13  2  0
 13 14  1  0
 14 15  1  0
 15 16  1  0
 16 17  2  0
 16 18  1  0
 15 11  2  0
M  END
>  <score>  (75) 
0.640496

$$$$
HIPS5964
     RDKit          3D

 11 11  0  0  0  0  0  0  0  0999 V2000
   -2.4452    0.6656    2.4868 C   0  0  0  0  0  0  0  0  0  0  0  0
   -1.4598    1.2292    1.6294 O   0  0  0  0  0  0  0  0  0  0  0  0
   -0.6974    0.4583    0.7463 C   0  0  0  0  0  0  0  0  0  0  0  0
   -0.8780   -0.7868    0.6780 O   0  0  0  0  0  0  0  0  0  0  0  0
    0.2953    1.1290   -0.1139 C   0  0  0  0  0  0  0  0  0  0  0  0
    0.4244    2.8026   -0.2353 S   0  0  0  0  0  0  0  0  0  0  0  0
    1.6644    2.8367   -1.3648 C   0  0  0  0  0  0  0  0  0  0  0  0
    2.0062    1.5272   -1.6704 C   0  0  0  0  0  0  0  0  0  0  0  0
    3.3994    1.1198   -2.9161 Br  0  0  0  0  0  0  0  0  0  0  0  0
    1.2502    0.5639   -0.9735 C   0  0  0  0  0  0  0  0  0  0  0  0
    1.4758   -0.8436   -1.1231 N   0  0  0  0  0  0  0  0  0  0  0  0
  1  2  1  0
  2  3  1  0
  3  4  2  0
  3  5  1  0
  5  6  1  0
  6  7  1  0
  7  8  2  0
  8  9  1  0
  8 10  1  0
 10 11  1  0
 10  5  2  0
M  END
>  <score>  (76) 
0.407769

$$$$
HIPS5965
     RDKit          3D

 18 19  0  0  0  0  0  0  0  0999 V2000
    2.8939   -1.2682   -4.8065 C   0  0  0  0  0  0  0  0  0  0  0  0
    2.2559   -1.0589   -3.5525 O   0  0  0  0  0  0  0  0  0  0  0  0
    0.8671   -1.0719   -3.4005 C   0  0  0  0  0  0  0  0  0  0  0  0
    0.1255   -1.2967   -4.3960 O   0  0  0  0  0  0  0  0  0  0  0  0
    0.2512   -0.8598   -2.0775 C   0  0  0  0  0  0  0  0  0  0  0  0
   -1.3584   -1.2120   -1.7378 S   0  0  0  0  0  0  0  0  0  0  0  0
   -1.3153   -0.8330   -0.1047 C   0  0  0  0  0  0  0  0  0  0  0  0
   -0.0291   -0.4051    0.2135 C   0  0  0  0  0  0  0  0  0  0  0  0
    0.3239    0.0582    1.5736 C   0  0  0  0  0  0  0  0  0  0  0  0
    0.9777    1.2862    1.7641 C   0  0  0  0  0  0  0  0  0  0  0  0
    1.2881    1.7280    3.0526 C   0  0  0  0  0  0  0  0  0  0  0  0
    0.9413    0.9562    4.1665 C   0  0  0  0  0  0  0  0  0  0  0  0
    1.3483    1.5462    5.7721 Cl  0  0  0  0  0  0  0  0  0  0  0  0
    0.2727   -0.2663    3.9866 C   0  0  0  0  0  0  0  0  0  0  0  0
   -0.1883   -1.2635    5.3597 Cl  0  0  0  0  0  0  0  0  0  0  0  0
   -0.0376   -0.7070    2.6945 C   0  0  0  0  0  0  0  0  0  0  0  0
    0.8561   -0.4239   -0.8903 C   0  0  0  0  0  0  0  0  0  0  0  0
    2.2377   -0.0576   -0.7867 N   0  0  0  0  0  0  0  0  0  0  0  0
  1  2  1  0
  2  3  1  0
  3  4  2  0
  3  5  1  0
  5  6  1  0
  6  7  1  0
  7  8  2  0
  8  9  1  0
  9 10  2  0
 10 11  1  0
 11 12  2  0
 12 13  1  0
 12 14  1  0
 14 15  1  0
 14 16  2  0
  8 17  1  0
 17 18  1  0
 17  5  2  0
 16  9  1  0
M  END
>  <score>  (77) 
0.645785

$$$$
HIPS5966
     RDKit          3D

 21 22  0  0  0  0  0  0  0  0999 V2000
    2.2259    2.8497   -5.5213 C   0  0  0  0  0  0  0  0  0  0  0  0
    1.6840    1.9685   -4.5448 O   0  0  0  0  0  0  0  0  0  0  0  0
    1.8365    2.1787   -3.1708 C   0  0  0  0  0  0  0  0  0  0  0  0
    2.4851    3.1748   -2.7526 O   0  0  0  0  0  0  0  0  0  0  0  0
    1.2492    1.2073   -2.2292 C   0  0  0  0  0  0  0  0  0  0  0  0
    0.5878   -0.2593   -2.7182 S   0  0  0  0  0  0  0  0  0  0  0  0
    0.2149   -0.8417   -1.1907 C   0  0  0  0  0  0  0  0  0  0  0  0
    0.5931    0.1141   -0.2515 C   0  0  0  0  0  0  0  0  0  0  0  0
    0.3476   -0.0752    1.1952 C   0  0  0  0  0  0  0  0  0  0  0  0
    0.7018   -1.2798    1.8171 C   0  0  0  0  0  0  0  0  0  0  0  0
    0.4549   -1.4739    3.1779 C   0  0  0  0  0  0  0  0  0  0  0  0
   -0.1625   -0.4691    3.9472 C   0  0  0  0  0  0  0  0  0  0  0  0
   -0.4279   -0.6842    5.4217 C   0  0  0  0  0  0  0  0  0  0  0  0
   -1.7876   -0.6097    5.6641 F   0  0  0  0  0  0  0  0  0  0  0  0
    0.2197    0.2916    6.1576 F   0  0  0  0  0  0  0  0  0  0  0  0
    0.0227   -1.9209    5.8509 F   0  0  0  0  0  0  0  0  0  0  0  0
   -0.5361    0.7382    3.3140 C   0  0  0  0  0  0  0  0  0  0  0  0
   -1.3300    2.0426    4.1924 Cl  0  0  0  0  0  0  0  0  0  0  0  0
   -0.2847    0.9238    1.9496 C   0  0  0  0  0  0  0  0  0  0  0  0
    1.1816    1.2645   -0.8288 C   0  0  0  0  0  0  0  0  0  0  0  0
    1.6919    2.3524   -0.0467 N   0  0  0  0  0  0  0  0  0  0  0  0
  1  2  1  0
  2  3  1  0
  3  4  2  0
  3  5  1  0
  5  6  1  0
  6  7  1  0
  7  8  2  0
  8  9  1  0
  9 10  2  0
 10 11  1  0
 11 12  2  0
 12 13  1  0
 13 14  1  0
 13 15  1  0
 13 16  1  0
 12 17  1  0
 17 18  1  0
 17 19  2  0
  8 20  1  0
 20 21  1  0
 20  5  2  0
 19  9  1  0
M  END
>  <score>  (78) 
0.645785

$$$$
HIPS5967
     RDKit          3D

 23 24  0  0  0  0  0  0  0  0999 V2000
    0.4161   -4.0101   -2.6872 C   0  0  0  0  0  0  0  0  0  0  0  0
   -0.3215   -2.7108   -2.3671 C   0  0  0  0  0  0  0  0  0  0  0  0
    0.4116   -1.4651   -2.8879 C   0  0  0  0  0  0  0  0  0  0  0  0
    1.7199   -1.1292   -2.1444 C   0  0  0  0  0  0  0  0  0  0  0  0
    1.4994   -0.6309   -0.7011 C   0  0  0  0  0  0  0  0  0  0  0  0
    1.5962   -1.7464    0.3658 C   0  0  0  0  0  0  0  0  0  0  0  0
    0.4030   -1.7946    1.2139 N   0  0  0  0  0  0  0  0  0  0  0  0
   -0.0500   -0.6621    1.9679 C   0  0  0  0  0  0  0  0  0  0  0  0
   -1.1836    0.0922    1.5992 C   0  0  0  0  0  0  0  0  0  0  0  0
   -2.0616   -0.2394    0.4594 C   0  0  0  0  0  0  0  0  0  0  0  0
   -2.6676   -1.5013    0.3700 C   0  0  0  0  0  0  0  0  0  0  0  0
   -3.4600   -1.8253   -0.7339 C   0  0  0  0  0  0  0  0  0  0  0  0
   -3.6574   -0.8939   -1.7587 C   0  0  0  0  0  0  0  0  0  0  0  0
   -4.6405   -1.3475   -3.1437 Cl  0  0  0  0  0  0  0  0  0  0  0  0
   -3.0687    0.3785   -1.6675 C   0  0  0  0  0  0  0  0  0  0  0  0
   -3.2861    1.5762   -2.9359 Cl  0  0  0  0  0  0  0  0  0  0  0  0
   -2.2819    0.7036   -0.5565 C   0  0  0  0  0  0  0  0  0  0  0  0
   -1.3569    1.2386    2.3695 C   0  0  0  0  0  0  0  0  0  0  0  0
   -0.1330    1.2904    3.5198 S   0  0  0  0  0  0  0  0  0  0  0  0
    0.6460   -0.1249    3.0533 C   0  0  0  0  0  0  0  0  0  0  0  0
    1.8122   -0.6935    3.7462 C   0  0  0  0  0  0  0  0  0  0  0  0
    2.1848   -1.8742    3.5133 O   0  0  0  0  0  0  0  0  0  0  0  0
    2.4894    0.0676    4.6939 O   0  0  0  0  0  0  0  0  0  0  0  0
  1  2  1  0
  2  3  1  0
  3  4  1  0
  4  5  1  0
  5  6  1  0
  6  7  1  0
  7  8  1  0
  8  9  1  0
  9 10  1  0
 10 11  2  0
 11 12  1  0
 12 13  2  0
 13 14  1  0
 13 15  1  0
 15 16  1  0
 15 17  2  0
  9 18  2  0
 18 19  1  0
 19 20  1  0
 20 21  1  0
 21 22  2  0
 21 23  1  0
 20  8  2  0
 17 10  1  0
M  END
>  <score>  (79) 
-0.855624

$$$$
HIPS5968
     RDKit          3D

 23 24  0  0  0  0  0  0  0  0999 V2000
    2.4682    0.8005   -2.3748 C   0  0  0  0  0  0  0  0  0  0  0  0
    1.4559    1.9006   -2.0590 C   0  0  0  0  0  0  0  0  0  0  0  0
    0.2298    1.8492   -2.9948 C   0  0  0  0  0  0  0  0  0  0  0  0
   -1.0280    1.2830   -2.3175 C   0  0  0  0  0  0  0  0  0  0  0  0
   -0.8759   -0.1557   -1.9118 C   0  0  0  0  0  0  0  0  0  0  0  0
   -0.5647   -1.0172   -2.7790 O   0  0  0  0  0  0  0  0  0  0  0  0
   -1.1215   -0.5509   -0.5534 N   0  0  0  0  0  0  0  0  0  0  0  0
   -1.0950   -1.9216   -0.1274 C   0  0  0  0  0  0  0  0  0  0  0  0
   -0.3037   -2.3697    0.9553 C   0  0  0  0  0  0  0  0  0  0  0  0
    0.6217   -1.5132    1.7321 C   0  0  0  0  0  0  0  0  0  0  0  0
    1.4838   -0.6179    1.0808 C   0  0  0  0  0  0  0  0  0  0  0  0
    2.3567    0.1872    1.8156 C   0  0  0  0  0  0  0  0  0  0  0  0
    2.3881    0.1020    3.2111 C   0  0  0  0  0  0  0  0  0  0  0  0
    3.5007    1.1312    4.1026 Cl  0  0  0  0  0  0  0  0  0  0  0  0
    1.5404   -0.8018    3.8733 C   0  0  0  0  0  0  0  0  0  0  0  0
    1.5515   -0.9443    5.6260 Cl  0  0  0  0  0  0  0  0  0  0  0  0
    0.6656   -1.6068    3.1333 C   0  0  0  0  0  0  0  0  0  0  0  0
   -0.4649   -3.7263    1.2281 C   0  0  0  0  0  0  0  0  0  0  0  0
   -1.5851   -4.3561    0.1489 S   0  0  0  0  0  0  0  0  0  0  0  0
   -1.8967   -2.9276   -0.6817 C   0  0  0  0  0  0  0  0  0  0  0  0
   -2.9484   -2.7895   -1.7035 C   0  0  0  0  0  0  0  0  0  0  0  0
   -3.4411   -3.8198   -2.2357 O   0  0  0  0  0  0  0  0  0  0  0  0
   -3.4344   -1.5356   -2.0594 O   0  0  0  0  0  0  0  0  0  0  0  0
  1  2  1  0
  2  3  1  0
  3  4  1  0
  4  5  1  0
  5  6  2  0
  5  7  1  0
  7  8  1  0
  8  9  1  0
  9 10  1  0
 10 11  2  0
 11 12  1  0
 12 13  2  0
 13 14  1  0
 13 15  1  0
 15 16  1  0
 15 17  2  0
  9 18  2  0
 18 19  1  0
 19 20  1  0
 20 21  1  0
 21 22  2  0
 21 23  1  0
 20  8  2  0
 17 10  1  0
M  END
>  <score>  (80) 
0.062742

$$$$
HIPS5969
     RDKit          3D

 27 28  0  0  0  0  0  0  0  0999 V2000
   -4.2191   -1.6128   -3.2000 C   0  0  0  0  0  0  0  0  0  0  0  0
   -2.7590   -1.8743   -3.5563 C   0  0  0  0  0  0  0  0  0  0  0  0
   -2.0517   -0.5780   -3.9760 C   0  0  0  0  0  0  0  0  0  0  0  0
   -0.6180   -0.8144   -4.4818 C   0  0  0  0  0  0  0  0  0  0  0  0
    0.3643   -1.3738   -3.4334 C   0  0  0  0  0  0  0  0  0  0  0  0
    0.6528   -0.4034   -2.2770 C   0  0  0  0  0  0  0  0  0  0  0  0
   -0.3943   -0.4724   -1.2578 N   0  0  0  0  0  0  0  0  0  0  0  0
   -0.8291    0.6766   -0.5198 C   0  0  0  0  0  0  0  0  0  0  0  0
   -0.4048    1.8260   -0.8215 O   0  0  0  0  0  0  0  0  0  0  0  0
   -1.7524    0.5143    0.5645 N   0  0  0  0  0  0  0  0  0  0  0  0
   -2.0418    1.5680    1.4981 C   0  0  0  0  0  0  0  0  0  0  0  0
   -3.3740    2.0292    1.6631 C   0  0  0  0  0  0  0  0  0  0  0  0
   -4.5025    1.5088    0.8505 C   0  0  0  0  0  0  0  0  0  0  0  0
   -4.2965    0.9338   -0.2514 O   0  0  0  0  0  0  0  0  0  0  0  0
   -5.8131    1.6838    1.2876 O   0  0  0  0  0  0  0  0  0  0  0  0
   -3.6371    3.0383    2.6050 C   0  0  0  0  0  0  0  0  0  0  0  0
   -2.6070    3.5980    3.3577 C   0  0  0  0  0  0  0  0  0  0  0  0
   -1.2990    3.1491    3.1996 C   0  0  0  0  0  0  0  0  0  0  0  0
   -1.0025    2.1237    2.2894 C   0  0  0  0  0  0  0  0  0  0  0  0
    0.3911    1.6218    2.2120 C   0  0  0  0  0  0  0  0  0  0  0  0
    1.4507    2.5129    1.9794 C   0  0  0  0  0  0  0  0  0  0  0  0
    2.7619    2.0398    1.8835 C   0  0  0  0  0  0  0  0  0  0  0  0
    3.0321    0.6742    2.0223 C   0  0  0  0  0  0  0  0  0  0  0  0
    4.6942    0.1162    1.8871 Cl  0  0  0  0  0  0  0  0  0  0  0  0
    1.9798   -0.2234    2.2676 C   0  0  0  0  0  0  0  0  0  0  0  0
    2.2748   -1.9475    2.4466 Cl  0  0  0  0  0  0  0  0  0  0  0  0
    0.6680    0.2531    2.3697 C   0  0  0  0  0  0  0  0  0  0  0  0
  1  2  1  0
  2  3  1  0
  3  4  1  0
  4  5  1  0
  5  6  1  0
  6  7  1  0
  7  8  1  0
  8  9  2  0
  8 10  1  0
 10 11  1  0
 11 12  2  0
 12 13  1  0
 13 14  2  0
 13 15  1  0
 12 16  1  0
 16 17  2  0
 17 18  1  0
 18 19  2  0
 19 20  1  0
 20 21  2  0
 21 22  1  0
 22 23  2  0
 23 24  1  0
 23 25  1  0
 25 26  1  0
 25 27  2  0
 19 11  1  0
 27 20  1  0
M  END
>  <score>  (81) 
-0.465878

$$$$
HIPS5993
     RDKit          3D

 17 18  0  0  0  0  0  0  0  0999 V2000
    0.2797    0.6326   -2.1874 N   0  0  0  0  0  0  0  0  0  0  0  0
    0.1755    1.2354   -0.8907 C   0  0  0  0  0  0  0  0  0  0  0  0
   -0.4284    0.5851    0.2117 C   0  0  0  0  0  0  0  0  0  0  0  0
   -0.9358   -0.8047    0.2004 C   0  0  0  0  0  0  0  0  0  0  0  0
   -0.1415   -1.8520   -0.2933 C   0  0  0  0  0  0  0  0  0  0  0  0
   -0.6176   -3.1655   -0.2802 C   0  0  0  0  0  0  0  0  0  0  0  0
   -1.8863   -3.4515    0.2349 C   0  0  0  0  0  0  0  0  0  0  0  0
   -2.4502   -5.1171    0.2349 Cl  0  0  0  0  0  0  0  0  0  0  0  0
   -2.6818   -2.4123    0.7458 C   0  0  0  0  0  0  0  0  0  0  0  0
   -4.2791   -2.7294    1.4094 Cl  0  0  0  0  0  0  0  0  0  0  0  0
   -2.2026   -1.0969    0.7318 C   0  0  0  0  0  0  0  0  0  0  0  0
   -0.4737    1.3726    1.3590 C   0  0  0  0  0  0  0  0  0  0  0  0
    0.2435    2.8490    1.0162 S   0  0  0  0  0  0  0  0  0  0  0  0
    0.6152    2.5344   -0.5932 C   0  0  0  0  0  0  0  0  0  0  0  0
    1.2374    3.5308   -1.4850 C   0  0  0  0  0  0  0  0  0  0  0  0
    1.3440    3.3235   -2.7219 O   0  0  0  0  0  0  0  0  0  0  0  0
    1.6962    4.7321   -0.9527 O   0  0  0  0  0  0  0  0  0  0  0  0
  1  2  1  0
  2  3  1  0
  3  4  1  0
  4  5  2  0
  5  6  1  0
  6  7  2  0
  7  8  1  0
  7  9  1  0
  9 10  1  0
  9 11  2  0
  3 12  2  0
 12 13  1  0
 13 14  1  0
 14 15  1  0
 15 16  2  0
 15 17  1  0
 14  2  2  0
 11  4  1  0
M  END
>  <score>  (82) 
0.255042

$$$$
HIPS6025
     RDKit          3D

 24 26  0  0  0  0  0  0  0  0999 V2000
    4.4550    0.9862   -2.9198 C   0  0  0  0  0  0  0  0  0  0  0  0
    4.2248    0.4163   -1.5996 N   0  0  0  0  0  0  0  0  0  0  0  0
    3.0453   -0.0275   -1.1298 C   0  0  0  0  0  0  0  0  0  0  0  0
    3.2247   -0.4152    0.1866 C   0  0  0  0  0  0  0  0  0  0  0  0
    2.2049   -0.9609    1.1170 C   0  0  0  0  0  0  0  0  0  0  0  0
    2.4503   -1.0090    2.5016 C   0  0  0  0  0  0  0  0  0  0  0  0
    1.4833   -1.5106    3.3759 C   0  0  0  0  0  0  0  0  0  0  0  0
    0.2597   -1.9662    2.8840 C   0  0  0  0  0  0  0  0  0  0  0  0
   -0.0076   -1.9243    1.5086 C   0  0  0  0  0  0  0  0  0  0  0  0
   -1.3346   -2.4101    0.9873 C   0  0  0  0  0  0  0  0  0  0  0  0
   -2.4092   -1.6991    1.6036 O   0  0  0  0  0  0  0  0  0  0  0  0
   -2.7210   -0.3466    1.3860 C   0  0  0  0  0  0  0  0  0  0  0  0
   -3.7125    0.2360    2.1779 C   0  0  0  0  0  0  0  0  0  0  0  0
   -4.0625    1.5751    2.0047 C   0  0  0  0  0  0  0  0  0  0  0  0
   -3.4307    2.3580    1.0330 C   0  0  0  0  0  0  0  0  0  0  0  0
   -3.8801    3.6687    0.8600 O   0  0  0  0  0  0  0  0  0  0  0  0
   -2.3987    1.7951    0.2432 C   0  0  0  0  0  0  0  0  0  0  0  0
   -1.6197    2.5945   -0.7282 C   0  0  0  0  0  0  0  0  0  0  0  0
   -1.1890    2.0581   -1.7849 O   0  0  0  0  0  0  0  0  0  0  0  0
   -1.3008    3.9222   -0.4589 O   0  0  0  0  0  0  0  0  0  0  0  0
   -2.0737    0.4363    0.4118 C   0  0  0  0  0  0  0  0  0  0  0  0
    0.9715   -1.4328    0.6294 C   0  0  0  0  0  0  0  0  0  0  0  0
    4.5632   -0.1580    0.4492 C   0  0  0  0  0  0  0  0  0  0  0  0
    5.1461    0.3542   -0.6522 N   0  0  0  0  0  0  0  0  0  0  0  0
  1  2  1  0
  2  3  1  0
  3  4  2  0
  4  5  1  0
  5  6  2  0
  6  7  1  0
  7  8  2  0
  8  9  1  0
  9 10  1  0
 10 11  1  0
 11 12  1  0
 12 13  2  0
 13 14  1  0
 14 15  2  0
 15 16  1  0
 15 17  1  0
 17 18  1  0
 18 19  2  0
 18 20  1  0
 17 21  2  0
  9 22  2  0
  4 23  1  0
 23 24  2  0
 24  2  1  0
 22  5  1  0
 21 12  1  0
M  END
>  <score>  (83) 
0.054326

$$$$
HIPS6026
     RDKit          3D

 24 26  0  0  0  0  0  0  0  0999 V2000
    3.4792    2.3409    1.7437 O   0  0  0  0  0  0  0  0  0  0  0  0
    3.0811    3.3728    1.1384 C   0  0  0  0  0  0  0  0  0  0  0  0
    3.8478    4.5332    1.1915 O   0  0  0  0  0  0  0  0  0  0  0  0
    1.7800    3.3615    0.4346 C   0  0  0  0  0  0  0  0  0  0  0  0
    0.7233    2.6114    0.9837 C   0  0  0  0  0  0  0  0  0  0  0  0
   -0.5533    2.6208    0.3915 C   0  0  0  0  0  0  0  0  0  0  0  0
   -1.6329    1.8825    0.9041 O   0  0  0  0  0  0  0  0  0  0  0  0
   -1.5593    0.9542    1.9873 C   0  0  0  0  0  0  0  0  0  0  0  0
   -0.7602   -0.2623    1.5988 C   0  0  0  0  0  0  0  0  0  0  0  0
    0.2777   -0.7245    2.4216 C   0  0  0  0  0  0  0  0  0  0  0  0
    1.0158   -1.8512    2.0555 C   0  0  0  0  0  0  0  0  0  0  0  0
    0.7206   -2.5313    0.8718 C   0  0  0  0  0  0  0  0  0  0  0  0
   -0.3254   -2.0930    0.0399 C   0  0  0  0  0  0  0  0  0  0  0  0
   -0.6428   -2.8168   -1.2177 C   0  0  0  0  0  0  0  0  0  0  0  0
   -1.9771   -3.0242   -1.6085 C   0  0  0  0  0  0  0  0  0  0  0  0
   -2.2527   -3.7068   -2.7957 C   0  0  0  0  0  0  0  0  0  0  0  0
   -1.2357   -4.1676   -3.5702 N   0  0  0  0  0  0  0  0  0  0  0  0
    0.0644   -3.9832   -3.2210 C   0  0  0  0  0  0  0  0  0  0  0  0
    0.3853   -3.3070   -2.0415 C   0  0  0  0  0  0  0  0  0  0  0  0
   -1.0654   -0.9569    0.4171 C   0  0  0  0  0  0  0  0  0  0  0  0
   -0.7688    3.3967   -0.7492 C   0  0  0  0  0  0  0  0  0  0  0  0
    0.2735    4.1319   -1.3136 C   0  0  0  0  0  0  0  0  0  0  0  0
    1.5528    4.1051   -0.7490 C   0  0  0  0  0  0  0  0  0  0  0  0
    2.5706    4.7962   -1.4097 O   0  0  0  0  0  0  0  0  0  0  0  0
  1  2  2  0
  2  3  1  0
  2  4  1  0
  4  5  2  0
  5  6  1  0
  6  7  1  0
  7  8  1  0
  8  9  1  0
  9 10  2  0
 10 11  1  0
 11 12  2  0
 12 13  1  0
 13 14  1  0
 14 15  2  0
 15 16  1  0
 16 17  2  0
 17 18  1  0
 18 19  2  0
 13 20  2  0
  6 21  2  0
 21 22  1  0
 22 23  2  0
 23 24  1  0
 23  4  1  0
 20  9  1  0
 19 14  1  0
M  END
>  <score>  (84) 
0.179062

$$$$
HIPS6037
     RDKit          3D

 23 25  0  0  0  0  0  0  0  0999 V2000
    5.3811   -0.2996   -0.2161 O   0  0  0  0  0  0  0  0  0  0  0  0
    4.1333   -0.4672   -0.2665 C   0  0  0  0  0  0  0  0  0  0  0  0
    3.6016   -1.7231    0.0146 O   0  0  0  0  0  0  0  0  0  0  0  0
    3.2374    0.6346   -0.6825 C   0  0  0  0  0  0  0  0  0  0  0  0
    2.0876    0.3127   -1.4265 C   0  0  0  0  0  0  0  0  0  0  0  0
    1.2290    1.3207   -1.9032 C   0  0  0  0  0  0  0  0  0  0  0  0
    0.0684    1.0409   -2.6435 O   0  0  0  0  0  0  0  0  0  0  0  0
   -0.4509   -0.2641   -2.9042 C   0  0  0  0  0  0  0  0  0  0  0  0
   -0.9589   -0.9032   -1.6380 C   0  0  0  0  0  0  0  0  0  0  0  0
   -0.5733   -2.2073   -1.2962 C   0  0  0  0  0  0  0  0  0  0  0  0
   -1.0518   -2.7966   -0.1256 C   0  0  0  0  0  0  0  0  0  0  0  0
   -1.9244   -2.0952    0.7096 C   0  0  0  0  0  0  0  0  0  0  0  0
   -2.3343   -0.7897    0.3807 C   0  0  0  0  0  0  0  0  0  0  0  0
   -3.2625   -0.0428    1.2684 C   0  0  0  0  0  0  0  0  0  0  0  0
   -4.0421   -0.5622    2.2873 C   0  0  0  0  0  0  0  0  0  0  0  0
   -4.7296    0.5070    2.8207 C   0  0  0  0  0  0  0  0  0  0  0  0
   -4.4013    1.6076    2.1853 O   0  0  0  0  0  0  0  0  0  0  0  0
   -3.5260    1.3175    1.2508 C   0  0  0  0  0  0  0  0  0  0  0  0
   -1.8478   -0.2051   -0.8044 C   0  0  0  0  0  0  0  0  0  0  0  0
    1.5359    2.6570   -1.6399 C   0  0  0  0  0  0  0  0  0  0  0  0
    2.6634    2.9906   -0.8898 C   0  0  0  0  0  0  0  0  0  0  0  0
    3.5065    1.9945   -0.3866 C   0  0  0  0  0  0  0  0  0  0  0  0
    4.5713    2.3939    0.4243 O   0  0  0  0  0  0  0  0  0  0  0  0
  1  2  2  0
  2  3  1  0
  2  4  1  0
  4  5  2  0
  5  6  1  0
  6  7  1  0
  7  8  1  0
  8  9  1  0
  9 10  2  0
 10 11  1  0
 11 12  2  0
 12 13  1  0
 13 14  1  0
 14 15  1  0
 15 16  2  0
 16 17  1  0
 17 18  1  0
 13 19  2  0
  6 20  2  0
 20 21  1  0
 21 22  2  0
 22 23  1  0
 22  4  1  0
 19  9  1  0
 18 14  2  0
M  END
>  <score>  (85) 
0.033665

$$$$
HIPS6063
     RDKit          3D

 28 31  0  0  0  0  0  0  0  0999 V2000
    3.3638   -0.0572    2.3262 O   0  0  0  0  0  0  0  0  0  0  0  0
    3.2676    1.1601    2.0124 C   0  0  0  0  0  0  0  0  0  0  0  0
    3.8542    2.1235    2.8278 O   0  0  0  0  0  0  0  0  0  0  0  0
    2.5891    1.5482    0.7572 C   0  0  0  0  0  0  0  0  0  0  0  0
    2.7098    0.7060   -0.3628 C   0  0  0  0  0  0  0  0  0  0  0  0
    2.1263    1.0440   -1.5878 C   0  0  0  0  0  0  0  0  0  0  0  0
    2.2486    0.1391   -2.6554 O   0  0  0  0  0  0  0  0  0  0  0  0
    1.4902    0.1909   -3.8665 C   0  0  0  0  0  0  0  0  0  0  0  0
    0.0125    0.0532   -3.5941 C   0  0  0  0  0  0  0  0  0  0  0  0
   -0.9184    0.7417   -4.3871 C   0  0  0  0  0  0  0  0  0  0  0  0
   -2.2860    0.6393   -4.1171 C   0  0  0  0  0  0  0  0  0  0  0  0
   -2.7349   -0.1417   -3.0488 C   0  0  0  0  0  0  0  0  0  0  0  0
   -1.8158   -0.8374   -2.2492 C   0  0  0  0  0  0  0  0  0  0  0  0
   -2.2822   -1.6421   -1.0975 C   0  0  0  0  0  0  0  0  0  0  0  0
   -3.1601   -2.7092   -1.3382 C   0  0  0  0  0  0  0  0  0  0  0  0
   -3.5733   -3.5235   -0.2845 C   0  0  0  0  0  0  0  0  0  0  0  0
   -3.1325   -3.2857    0.9767 N   0  0  0  0  0  0  0  0  0  0  0  0
   -2.2939   -2.2549    1.2620 C   0  0  0  0  0  0  0  0  0  0  0  0
   -1.8793   -2.0469    2.5827 C   0  0  0  0  0  0  0  0  0  0  0  0
   -1.0390   -0.9765    2.8946 C   0  0  0  0  0  0  0  0  0  0  0  0
   -0.6167   -0.1021    1.8921 C   0  0  0  0  0  0  0  0  0  0  0  0
   -1.0204   -0.2991    0.5686 C   0  0  0  0  0  0  0  0  0  0  0  0
   -1.8504   -1.3900    0.2298 C   0  0  0  0  0  0  0  0  0  0  0  0
   -0.4481   -0.7714   -2.5543 C   0  0  0  0  0  0  0  0  0  0  0  0
    1.4308    2.2587   -1.7048 C   0  0  0  0  0  0  0  0  0  0  0  0
    1.2921    3.0971   -0.5985 C   0  0  0  0  0  0  0  0  0  0  0  0
    1.8401    2.7441    0.6391 C   0  0  0  0  0  0  0  0  0  0  0  0
    1.5864    3.5827    1.7263 O   0  0  0  0  0  0  0  0  0  0  0  0
  1  2  2  0
  2  3  1  0
  2  4  1  0
  4  5  2  0
  5  6  1  0
  6  7  1  0
  7  8  1  0
  8  9  1  0
  9 10  2  0
 10 11  1  0
 11 12  2  0
 12 13  1  0
 13 14  1  0
 14 15  2  0
 15 16  1  0
 16 17  2  0
 17 18  1  0
 18 19  2  0
 19 20  1  0
 20 21  2  0
 21 22  1  0
 22 23  2  0
 13 24  2  0
  6 25  2  0
 25 26  1  0
 26 27  2  0
 27 28  1  0
 27  4  1  0
 24  9  1  0
 23 14  1  0
 23 18  1  0
M  END
>  <score>  (86) 
0.202318

$$$$
HIPS6066
     RDKit          3D

 32 35  0  0  0  0  0  0  0  0999 V2000
    0.5721   -2.4062    4.5794 O   0  0  0  0  0  0  0  0  0  0  0  0
    0.4325   -1.1542    4.6377 C   0  0  0  0  0  0  0  0  0  0  0  0
    1.2495   -0.4258    5.4980 O   0  0  0  0  0  0  0  0  0  0  0  0
   -0.5911   -0.4766    3.8002 C   0  0  0  0  0  0  0  0  0  0  0  0
   -1.4557   -1.2495    3.0001 C   0  0  0  0  0  0  0  0  0  0  0  0
   -2.4242   -0.6487    2.1888 C   0  0  0  0  0  0  0  0  0  0  0  0
   -3.2363   -1.4787    1.3972 O   0  0  0  0  0  0  0  0  0  0  0  0
   -4.1109   -1.0287    0.3599 C   0  0  0  0  0  0  0  0  0  0  0  0
   -3.3308   -0.3768   -0.7524 C   0  0  0  0  0  0  0  0  0  0  0  0
   -3.7540    0.8453   -1.2974 C   0  0  0  0  0  0  0  0  0  0  0  0
   -2.9885    1.4802   -2.2784 C   0  0  0  0  0  0  0  0  0  0  0  0
   -1.7953    0.9035   -2.7203 C   0  0  0  0  0  0  0  0  0  0  0  0
   -1.3735   -0.3324   -2.2045 C   0  0  0  0  0  0  0  0  0  0  0  0
   -0.0793   -0.9144   -2.6152 C   0  0  0  0  0  0  0  0  0  0  0  0
    0.0037   -2.2526   -3.0303 C   0  0  0  0  0  0  0  0  0  0  0  0
    1.2397   -2.8057   -3.3736 C   0  0  0  0  0  0  0  0  0  0  0  0
    2.4035   -2.0386   -3.2754 C   0  0  0  0  0  0  0  0  0  0  0  0
    2.3439   -0.7121   -2.8334 C   0  0  0  0  0  0  0  0  0  0  0  0
    3.5468   -0.0025   -2.6852 O   0  0  0  0  0  0  0  0  0  0  0  0
    3.6789    1.2591   -2.0267 C   0  0  0  0  0  0  0  0  0  0  0  0
    3.3458    1.1360   -0.5613 C   0  0  0  0  0  0  0  0  0  0  0  0
    3.9998    0.1775    0.2306 C   0  0  0  0  0  0  0  0  0  0  0  0
    3.6817    0.0474    1.5862 C   0  0  0  0  0  0  0  0  0  0  0  0
    2.7148    0.8760    2.1614 C   0  0  0  0  0  0  0  0  0  0  0  0
    2.0655    1.8378    1.3832 C   0  0  0  0  0  0  0  0  0  0  0  0
    2.3824    1.9732    0.0278 C   0  0  0  0  0  0  0  0  0  0  0  0
    1.0912   -0.1438   -2.5347 C   0  0  0  0  0  0  0  0  0  0  0  0
   -2.1581   -0.9784   -1.2365 C   0  0  0  0  0  0  0  0  0  0  0  0
   -2.5450    0.7508    2.1866 C   0  0  0  0  0  0  0  0  0  0  0  0
   -1.6970    1.5300    2.9732 C   0  0  0  0  0  0  0  0  0  0  0  0
   -0.7203    0.9304    3.7794 C   0  0  0  0  0  0  0  0  0  0  0  0
    0.1161    1.7366    4.5513 O   0  0  0  0  0  0  0  0  0  0  0  0
  1  2  2  0
  2  3  1  0
  2  4  1  0
  4  5  2  0
  5  6  1  0
  6  7  1  0
  7  8  1  0
  8  9  1  0
  9 10  2  0
 10 11  1  0
 11 12  2  0
 12 13  1  0
 13 14  1  0
 14 15  2  0
 15 16  1  0
 16 17  2  0
 17 18  1  0
 18 19  1  0
 19 20  1  0
 20 21  1  0
 21 22  2  0
 22 23  1  0
 23 24  2  0
 24 25  1  0
 25 26  2  0
 18 27  2  0
 13 28  2  0
  6 29  2  0
 29 30  1  0
 30 31  2  0
 31 32  1  0
 31  4  1  0
 28  9  1  0
 27 14  1  0
 26 21  1  0
M  END
>  <score>  (87) 
-0.725974

$$$$
HIPS6091
     RDKit          3D

 20 21  0  0  0  0  0  0  0  0999 V2000
   -1.0293   -1.9041   -2.7235 O   0  0  0  0  0  0  0  0  0  0  0  0
    0.0801   -2.3591   -2.3326 C   0  0  0  0  0  0  0  0  0  0  0  0
    0.5138   -3.5870   -2.8249 O   0  0  0  0  0  0  0  0  0  0  0  0
    0.9040   -1.5908   -1.3623 C   0  0  0  0  0  0  0  0  0  0  0  0
    0.4491   -0.3377   -0.9046 C   0  0  0  0  0  0  0  0  0  0  0  0
    1.2003    0.4117    0.0205 C   0  0  0  0  0  0  0  0  0  0  0  0
    0.7762    1.6582    0.5104 O   0  0  0  0  0  0  0  0  0  0  0  0
   -0.4870    2.2675    0.2395 C   0  0  0  0  0  0  0  0  0  0  0  0
   -1.6022    1.5091    0.9099 C   0  0  0  0  0  0  0  0  0  0  0  0
   -2.7274    1.0969    0.1770 C   0  0  0  0  0  0  0  0  0  0  0  0
   -3.7596    0.3927    0.8066 C   0  0  0  0  0  0  0  0  0  0  0  0
   -5.1548   -0.1313   -0.1184 Cl  0  0  0  0  0  0  0  0  0  0  0  0
   -3.6788    0.1057    2.1730 C   0  0  0  0  0  0  0  0  0  0  0  0
   -2.5680    0.5246    2.9120 C   0  0  0  0  0  0  0  0  0  0  0  0
   -2.4614    0.1360    4.7788 Br  0  0  0  0  0  0  0  0  0  0  0  0
   -1.5345    1.2278    2.2841 C   0  0  0  0  0  0  0  0  0  0  0  0
    2.4192   -0.0936    0.4768 C   0  0  0  0  0  0  0  0  0  0  0  0
    2.8850   -1.3300    0.0315 C   0  0  0  0  0  0  0  0  0  0  0  0
    2.1380   -2.0853   -0.8824 C   0  0  0  0  0  0  0  0  0  0  0  0
    2.6268   -3.3209   -1.3066 O   0  0  0  0  0  0  0  0  0  0  0  0
  1  2  2  0
  2  3  1  0
  2  4  1  0
  4  5  2  0
  5  6  1  0
  6  7  1  0
  7  8  1  0
  8  9  1  0
  9 10  2  0
 10 11  1  0
 11 12  1  0
 11 13  2  0
 13 14  1  0
 14 15  1  0
 14 16  2  0
  6 17  2  0
 17 18  1  0
 18 19  2  0
 19 20  1  0
 19  4  1  0
 16  9  1  0
M  END
>  <score>  (88) 
-0.478443

$$$$
HIPS6092
     RDKit          3D

 20 21  0  0  0  0  0  0  0  0999 V2000
    3.7610    2.5059   -0.8690 O   0  0  0  0  0  0  0  0  0  0  0  0
    3.8962    1.2537   -0.8103 C   0  0  0  0  0  0  0  0  0  0  0  0
    5.1529    0.6930   -1.0190 O   0  0  0  0  0  0  0  0  0  0  0  0
    2.7398    0.4009   -0.4589 C   0  0  0  0  0  0  0  0  0  0  0  0
    1.7935    0.8927    0.4588 C   0  0  0  0  0  0  0  0  0  0  0  0
    0.7197    0.1040    0.8848 C   0  0  0  0  0  0  0  0  0  0  0  0
   -0.1858    0.6578    1.8048 O   0  0  0  0  0  0  0  0  0  0  0  0
   -1.3894    0.0351    2.2555 C   0  0  0  0  0  0  0  0  0  0  0  0
   -2.4072   -0.0271    1.1474 C   0  0  0  0  0  0  0  0  0  0  0  0
   -2.7454    1.1361    0.4368 C   0  0  0  0  0  0  0  0  0  0  0  0
   -3.6941    1.0847   -0.5900 C   0  0  0  0  0  0  0  0  0  0  0  0
   -4.1387    2.6692   -1.5590 Br  0  0  0  0  0  0  0  0  0  0  0  0
   -4.3168   -0.1265   -0.9070 C   0  0  0  0  0  0  0  0  0  0  0  0
   -3.9949   -1.2866   -0.1956 C   0  0  0  0  0  0  0  0  0  0  0  0
   -4.8500   -2.9389   -0.6269 Br  0  0  0  0  0  0  0  0  0  0  0  0
   -3.0467   -1.2374    0.8320 C   0  0  0  0  0  0  0  0  0  0  0  0
    0.5914   -1.2042    0.3888 C   0  0  0  0  0  0  0  0  0  0  0  0
    1.5109   -1.6975   -0.5373 C   0  0  0  0  0  0  0  0  0  0  0  0
    2.5715   -0.9030   -0.9852 C   0  0  0  0  0  0  0  0  0  0  0  0
    3.4075   -1.4294   -1.9720 O   0  0  0  0  0  0  0  0  0  0  0  0
  1  2  2  0
  2  3  1  0
  2  4  1  0
  4  5  2  0
  5  6  1  0
  6  7  1  0
  7  8  1  0
  8  9  1  0
  9 10  2  0
 10 11  1  0
 11 12  1  0
 11 13  2  0
 13 14  1  0
 14 15  1  0
 14 16  2  0
  6 17  2  0
 17 18  1  0
 18 19  2  0
 19 20  1  0
 19  4  1  0
 16  9  1  0
M  END
>  <score>  (89) 
-0.343137

$$$$
HIPS6101
     RDKit          3D

 31 34  0  0  0  0  0  0  0  0999 V2000
   -4.2896   -5.5477   -2.3199 O   0  0  0  0  0  0  0  0  0  0  0  0
   -4.4482   -4.2984   -2.3884 C   0  0  0  0  0  0  0  0  0  0  0  0
   -5.7143   -3.7963   -2.6770 O   0  0  0  0  0  0  0  0  0  0  0  0
   -3.2972   -3.3853   -2.1634 C   0  0  0  0  0  0  0  0  0  0  0  0
   -2.0287   -3.9259   -1.8739 C   0  0  0  0  0  0  0  0  0  0  0  0
   -0.9213   -3.1004   -1.6514 C   0  0  0  0  0  0  0  0  0  0  0  0
    0.3108   -3.7091   -1.3602 O   0  0  0  0  0  0  0  0  0  0  0  0
    1.5018   -3.0216   -0.9749 C   0  0  0  0  0  0  0  0  0  0  0  0
    1.3584   -2.4461    0.4091 C   0  0  0  0  0  0  0  0  0  0  0  0
    1.0412   -3.2861    1.4863 C   0  0  0  0  0  0  0  0  0  0  0  0
    0.9025   -2.7598    2.7717 C   0  0  0  0  0  0  0  0  0  0  0  0
    1.0797   -1.3922    2.9940 C   0  0  0  0  0  0  0  0  0  0  0  0
    1.4031   -0.5335    1.9283 C   0  0  0  0  0  0  0  0  0  0  0  0
    1.5800    0.9224    2.1595 C   0  0  0  0  0  0  0  0  0  0  0  0
    2.2644    1.3880    3.2963 C   0  0  0  0  0  0  0  0  0  0  0  0
    2.4213    2.7585    3.5150 C   0  0  0  0  0  0  0  0  0  0  0  0
    1.9044    3.6793    2.6017 C   0  0  0  0  0  0  0  0  0  0  0  0
    1.2329    3.2324    1.4508 C   0  0  0  0  0  0  0  0  0  0  0  0
    0.6817    4.1259    0.5204 O   0  0  0  0  0  0  0  0  0  0  0  0
    1.1968    5.3917    0.2045 C   0  0  0  0  0  0  0  0  0  0  0  0
    0.3115    6.3925   -0.2158 C   0  0  0  0  0  0  0  0  0  0  0  0
    0.7890    7.6626   -0.5543 C   0  0  0  0  0  0  0  0  0  0  0  0
    2.1577    7.9368   -0.4870 C   0  0  0  0  0  0  0  0  0  0  0  0
    3.0511    6.9389   -0.0880 C   0  0  0  0  0  0  0  0  0  0  0  0
    2.5764    5.6680    0.2514 C   0  0  0  0  0  0  0  0  0  0  0  0
    1.0612    1.8585    1.2453 C   0  0  0  0  0  0  0  0  0  0  0  0
    1.5494   -1.0736    0.6372 C   0  0  0  0  0  0  0  0  0  0  0  0
   -1.0785   -1.7066   -1.7294 C   0  0  0  0  0  0  0  0  0  0  0  0
   -2.3276   -1.1556   -2.0143 C   0  0  0  0  0  0  0  0  0  0  0  0
   -3.4393   -1.9809   -2.2310 C   0  0  0  0  0  0  0  0  0  0  0  0
   -4.6756   -1.4000   -2.5129 O   0  0  0  0  0  0  0  0  0  0  0  0
  1  2  2  0
  2  3  1  0
  2  4  1  0
  4  5  2  0
  5  6  1  0
  6  7  1  0
  7  8  1  0
  8  9  1  0
  9 10  2  0
 10 11  1  0
 11 12  2  0
 12 13  1  0
 13 14  1  0
 14 15  2  0
 15 16  1  0
 16 17  2  0
 17 18  1  0
 18 19  1  0
 19 20  1  0
 20 21  2  0
 21 22  1  0
 22 23  2  0
 23 24  1  0
 24 25  2  0
 18 26  2  0
 13 27  2  0
  6 28  2  0
 28 29  1  0
 29 30  2  0
 30 31  1  0
 30  4  1  0
 27  9  1  0
 26 14  1  0
 25 20  1  0
M  END
>  <score>  (90) 
-0.106651

$$$$
HIPS611
     RDKit          3D

 34 37  0  0  0  0  0  0  0  0999 V2000
    2.9577   -1.8202   -3.9725 C   0  0  0  0  0  0  0  0  0  0  0  0
    3.3991   -2.9189   -3.0092 C   0  0  0  0  0  0  0  0  0  0  0  0
    2.3763   -3.1513   -1.9754 N   0  0  0  0  0  0  0  0  0  0  0  0
    1.6063   -4.4050   -1.9999 C   0  0  0  0  0  0  0  0  0  0  0  0
    2.0417   -5.3081   -0.8760 C   0  0  0  0  0  0  0  0  0  0  0  0
    3.3146   -5.9031   -0.9036 C   0  0  0  0  0  0  0  0  0  0  0  0
    3.7321   -6.7227    0.1508 C   0  0  0  0  0  0  0  0  0  0  0  0
    2.8842   -6.9524    1.2388 C   0  0  0  0  0  0  0  0  0  0  0  0
    1.6163   -6.3637    1.2735 C   0  0  0  0  0  0  0  0  0  0  0  0
    1.1946   -5.5432    0.2215 C   0  0  0  0  0  0  0  0  0  0  0  0
    2.1014   -2.1743   -0.9418 C   0  0  0  0  0  0  0  0  0  0  0  0
    1.0918   -2.3281   -0.2000 O   0  0  0  0  0  0  0  0  0  0  0  0
    2.9741   -1.0508   -0.7180 N   0  0  0  0  0  0  0  0  0  0  0  0
    2.6292    0.0399    0.1510 C   0  0  0  0  0  0  0  0  0  0  0  0
    1.3337    0.5841    0.2167 C   0  0  0  0  0  0  0  0  0  0  0  0
    1.2245    1.6765    1.0792 C   0  0  0  0  0  0  0  0  0  0  0  0
    0.0001    2.4656    1.3721 C   0  0  0  0  0  0  0  0  0  0  0  0
    0.0816    3.6450    2.1359 C   0  0  0  0  0  0  0  0  0  0  0  0
   -1.0658    4.3904    2.4211 C   0  0  0  0  0  0  0  0  0  0  0  0
   -2.3129    3.9837    1.9417 C   0  0  0  0  0  0  0  0  0  0  0  0
   -3.4422    4.7521    2.2608 O   0  0  0  0  0  0  0  0  0  0  0  0
   -4.5750    4.9078    1.4470 C   0  0  0  0  0  0  0  0  0  0  0  0
   -5.8095    5.1682    2.0570 C   0  0  0  0  0  0  0  0  0  0  0  0
   -6.9567    5.3582    1.2790 C   0  0  0  0  0  0  0  0  0  0  0  0
   -6.8744    5.2996   -0.1157 C   0  0  0  0  0  0  0  0  0  0  0  0
   -5.6449    5.0536   -0.7342 C   0  0  0  0  0  0  0  0  0  0  0  0
   -4.4961    4.8625    0.0410 C   0  0  0  0  0  0  0  0  0  0  0  0
   -2.4087    2.7970    1.1970 C   0  0  0  0  0  0  0  0  0  0  0  0
   -1.2640    2.0474    0.9119 C   0  0  0  0  0  0  0  0  0  0  0  0
    2.7506    1.9629    1.7351 S   0  0  0  0  0  0  0  0  0  0  0  0
    3.5570    0.7164    0.9489 C   0  0  0  0  0  0  0  0  0  0  0  0
    4.9853    0.4141    1.1444 C   0  0  0  0  0  0  0  0  0  0  0  0
    5.4959   -0.6336    0.6671 O   0  0  0  0  0  0  0  0  0  0  0  0
    5.7784    1.2889    1.8833 O   0  0  0  0  0  0  0  0  0  0  0  0
  1  2  1  0
  2  3  1  0
  3  4  1  0
  4  5  1  0
  5  6  2  0
  6  7  1  0
  7  8  2  0
  8  9  1  0
  9 10  2  0
  3 11  1  0
 11 12  2  0
 11 13  1  0
 13 14  1  0
 14 15  1  0
 15 16  2  0
 16 17  1  0
 17 18  2  0
 18 19  1  0
 19 20  2  0
 20 21  1  0
 21 22  1  0
 22 23  2  0
 23 24  1  0
 24 25  2  0
 25 26  1  0
 26 27  2  0
 20 28  1  0
 28 29  2  0
 16 30  1  0
 30 31  1  0
 31 32  1  0
 32 33  2  0
 32 34  1  0
 10  5  1  0
 31 14  2  0
 29 17  1  0
 27 22  1  0
M  END
>  <score>  (91) 
-0.422021

$$$$
HIPS6124
     RDKit          3D

 24 27  0  0  0  0  0  0  0  0999 V2000
    5.5263    0.5725    2.7404 O   0  0  0  0  0  0  0  0  0  0  0  0
    6.0433    0.1337    1.6852 C   0  0  0  0  0  0  0  0  0  0  0  0
    7.4179   -0.0021    1.6419 O   0  0  0  0  0  0  0  0  0  0  0  0
    5.1871   -0.2112    0.5609 C   0  0  0  0  0  0  0  0  0  0  0  0
    3.8159   -0.0785    0.5965 C   0  0  0  0  0  0  0  0  0  0  0  0
    2.9989   -0.4063   -0.4724 C   0  0  0  0  0  0  0  0  0  0  0  0
    1.6524   -0.2343   -0.3257 O   0  0  0  0  0  0  0  0  0  0  0  0
    0.6947   -0.5226   -1.3221 C   0  0  0  0  0  0  0  0  0  0  0  0
   -0.6753   -0.2250   -0.8439 C   0  0  0  0  0  0  0  0  0  0  0  0
   -1.4013   -1.2237   -0.2016 C   0  0  0  0  0  0  0  0  0  0  0  0
   -2.6795   -0.9933    0.2604 C   0  0  0  0  0  0  0  0  0  0  0  0
   -3.4438   -2.0606    0.9420 C   0  0  0  0  0  0  0  0  0  0  0  0
   -4.9054   -2.0682    1.0143 C   0  0  0  0  0  0  0  0  0  0  0  0
   -4.1285   -1.6032    2.2423 C   0  0  0  0  0  0  0  0  0  0  0  0
   -3.2028    0.2609    0.0596 C   0  0  0  0  0  0  0  0  0  0  0  0
   -2.5426    1.2779   -0.5610 C   0  0  0  0  0  0  0  0  0  0  0  0
   -3.1101    2.6288   -0.7757 C   0  0  0  0  0  0  0  0  0  0  0  0
   -4.5619    2.8545   -0.7784 C   0  0  0  0  0  0  0  0  0  0  0  0
   -3.8409    3.2208    0.4684 C   0  0  0  0  0  0  0  0  0  0  0  0
   -1.2646    1.0242   -1.0152 C   0  0  0  0  0  0  0  0  0  0  0  0
    3.5992   -0.8798   -1.6014 C   0  0  0  0  0  0  0  0  0  0  0  0
    4.9743   -1.0204   -1.6574 C   0  0  0  0  0  0  0  0  0  0  0  0
    5.7837   -0.6924   -0.5893 C   0  0  0  0  0  0  0  0  0  0  0  0
    7.1649   -0.8276   -0.6295 O   0  0  0  0  0  0  0  0  0  0  0  0
  1  2  2  0
  2  3  1  0
  2  4  1  0
  4  5  2  0
  5  6  1  0
  6  7  1  0
  7  8  1  0
  8  9  1  0
  9 10  2  0
 10 11  1  0
 11 12  1  0
 12 13  1  0
 13 14  1  0
 11 15  2  0
 15 16  1  0
 16 17  1  0
 17 18  1  0
 18 19  1  0
 16 20  2  0
  6 21  2  0
 21 22  1  0
 22 23  2  0
 23 24  1  0
 23  4  1  0
 20  9  1  0
 14 12  1  0
 19 17  1  0
M  END
>  <score>  (92) 
-0.17865

$$$$
HIPS6128
     RDKit          3D

 35 38  0  0  0  0  0  0  0  0999 V2000
   -0.9404   -0.9590    0.8673 C   0  0  0  0  0  0  0  0  0  0  0  0
   -2.2319   -1.1984    0.0845 C   0  0  0  0  0  0  0  0  0  0  0  0
   -2.0703   -0.9050   -1.4217 C   0  0  0  0  0  0  0  0  0  0  0  0
   -2.7573    0.4013   -1.8469 C   0  0  0  0  0  0  0  0  0  0  0  0
   -2.1106    1.5782   -1.2440 N   0  0  0  0  0  0  0  0  0  0  0  0
   -0.8295    2.0701   -1.7085 C   0  0  0  0  0  0  0  0  0  0  0  0
   -0.2702    3.0234   -1.0940 O   0  0  0  0  0  0  0  0  0  0  0  0
   -0.1952    1.5349   -2.8841 N   0  0  0  0  0  0  0  0  0  0  0  0
    1.0326    2.0921   -3.3669 C   0  0  0  0  0  0  0  0  0  0  0  0
    2.2669    1.8993   -2.7183 C   0  0  0  0  0  0  0  0  0  0  0  0
    2.4634    0.9594   -1.6000 C   0  0  0  0  0  0  0  0  0  0  0  0
    3.1040    1.3743   -0.4227 C   0  0  0  0  0  0  0  0  0  0  0  0
    3.2653    0.4811    0.6410 C   0  0  0  0  0  0  0  0  0  0  0  0
    2.8066   -0.8432    0.5292 C   0  0  0  0  0  0  0  0  0  0  0  0
    2.9551   -1.7627    1.5753 O   0  0  0  0  0  0  0  0  0  0  0  0
    2.7945   -1.4632    2.9359 C   0  0  0  0  0  0  0  0  0  0  0  0
    3.4690   -2.2451    3.8817 C   0  0  0  0  0  0  0  0  0  0  0  0
    3.3141   -1.9925    5.2484 C   0  0  0  0  0  0  0  0  0  0  0  0
    2.4721   -0.9629    5.6778 C   0  0  0  0  0  0  0  0  0  0  0  0
    1.7844   -0.1852    4.7420 C   0  0  0  0  0  0  0  0  0  0  0  0
    1.9405   -0.4334    3.3749 C   0  0  0  0  0  0  0  0  0  0  0  0
    2.2165   -1.2681   -0.6650 C   0  0  0  0  0  0  0  0  0  0  0  0
    2.0242   -0.3689   -1.7152 C   0  0  0  0  0  0  0  0  0  0  0  0
    3.3044    2.6425   -3.2743 C   0  0  0  0  0  0  0  0  0  0  0  0
    2.6888    3.5122   -4.5751 S   0  0  0  0  0  0  0  0  0  0  0  0
    1.1004    2.9697   -4.4474 C   0  0  0  0  0  0  0  0  0  0  0  0
   -0.0104    3.4081   -5.3064 C   0  0  0  0  0  0  0  0  0  0  0  0
    0.2023    4.2345   -6.2332 O   0  0  0  0  0  0  0  0  0  0  0  0
   -1.2972    2.9174   -5.1040 O   0  0  0  0  0  0  0  0  0  0  0  0
   -2.8052    2.2860   -0.1953 C   0  0  0  0  0  0  0  0  0  0  0  0
   -2.2019    2.4841    1.0592 C   0  0  0  0  0  0  0  0  0  0  0  0
   -2.8855    3.1623    2.0729 C   0  0  0  0  0  0  0  0  0  0  0  0
   -4.1700    3.6587    1.8406 C   0  0  0  0  0  0  0  0  0  0  0  0
   -4.7729    3.4796    0.5934 C   0  0  0  0  0  0  0  0  0  0  0  0
   -4.0948    2.7975   -0.4214 C   0  0  0  0  0  0  0  0  0  0  0  0
  1  2  1  0
  2  3  1  0
  3  4  1  0
  4  5  1  0
  5  6  1  0
  6  7  2  0
  6  8  1  0
  8  9  1  0
  9 10  1  0
 10 11  1  0
 11 12  2  0
 12 13  1  0
 13 14  2  0
 14 15  1  0
 15 16  1  0
 16 17  2  0
 17 18  1  0
 18 19  2  0
 19 20  1  0
 20 21  2  0
 14 22  1  0
 22 23  2  0
 10 24  2  0
 24 25  1  0
 25 26  1  0
 26 27  1  0
 27 28  2  0
 27 29  1  0
  5 30  1  0
 30 31  2  0
 31 32  1  0
 32 33  2  0
 33 34  1  0
 34 35  2  0
 26  9  2  0
 35 30  1  0
 23 11  1  0
 21 16  1  0
M  END
>  <score>  (93) 
-1.415622

$$$$
HIPS6129
     RDKit          3D

 30 32  0  0  0  0  0  0  0  0999 V2000
   -0.1836   -4.0375    2.3506 C   0  0  0  0  0  0  0  0  0  0  0  0
    0.6700   -2.8659    2.8340 C   0  0  0  0  0  0  0  0  0  0  0  0
    0.5771   -1.6494    1.9033 C   0  0  0  0  0  0  0  0  0  0  0  0
   -0.7634   -0.9100    2.0185 C   0  0  0  0  0  0  0  0  0  0  0  0
   -0.7619    0.2977    1.1766 N   0  0  0  0  0  0  0  0  0  0  0  0
   -0.6896    0.1932   -0.2629 C   0  0  0  0  0  0  0  0  0  0  0  0
   -0.2231    1.1548   -0.9347 O   0  0  0  0  0  0  0  0  0  0  0  0
   -1.1436   -0.9857   -0.9445 N   0  0  0  0  0  0  0  0  0  0  0  0
   -0.8314   -1.2191   -2.3225 C   0  0  0  0  0  0  0  0  0  0  0  0
    0.4384   -1.6371   -2.7629 C   0  0  0  0  0  0  0  0  0  0  0  0
    1.5696   -1.9067   -1.8605 C   0  0  0  0  0  0  0  0  0  0  0  0
    2.3599   -0.8406   -1.4057 C   0  0  0  0  0  0  0  0  0  0  0  0
    3.4078   -1.0723   -0.5091 C   0  0  0  0  0  0  0  0  0  0  0  0
    4.3676    0.2708    0.0829 Cl  0  0  0  0  0  0  0  0  0  0  0  0
    3.6811   -2.3728   -0.0743 C   0  0  0  0  0  0  0  0  0  0  0  0
    2.9075   -3.4418   -0.5336 C   0  0  0  0  0  0  0  0  0  0  0  0
    1.8508   -3.2169   -1.4242 C   0  0  0  0  0  0  0  0  0  0  0  0
    0.8737   -4.5863   -1.9420 Cl  0  0  0  0  0  0  0  0  0  0  0  0
    0.5021   -1.8718   -4.1319 C   0  0  0  0  0  0  0  0  0  0  0  0
   -1.0163   -1.5647   -4.7857 S   0  0  0  0  0  0  0  0  0  0  0  0
   -1.7749   -1.1367   -3.3464 C   0  0  0  0  0  0  0  0  0  0  0  0
   -3.1873   -0.7410   -3.2323 C   0  0  0  0  0  0  0  0  0  0  0  0
   -3.6734   -0.4105   -2.1179 O   0  0  0  0  0  0  0  0  0  0  0  0
   -3.9932   -0.7272   -4.3665 O   0  0  0  0  0  0  0  0  0  0  0  0
   -0.7457    1.6021    1.7948 C   0  0  0  0  0  0  0  0  0  0  0  0
    0.1201    1.8806    2.8688 C   0  0  0  0  0  0  0  0  0  0  0  0
    0.1289    3.1480    3.4590 C   0  0  0  0  0  0  0  0  0  0  0  0
   -0.7273    4.1468    2.9890 C   0  0  0  0  0  0  0  0  0  0  0  0
   -1.5927    3.8803    1.9254 C   0  0  0  0  0  0  0  0  0  0  0  0
   -1.6030    2.6154    1.3293 C   0  0  0  0  0  0  0  0  0  0  0  0
  1  2  1  0
  2  3  1  0
  3  4  1  0
  4  5  1  0
  5  6  1  0
  6  7  2  0
  6  8  1  0
  8  9  1  0
  9 10  1  0
 10 11  1  0
 11 12  2  0
 12 13  1  0
 13 14  1  0
 13 15  2  0
 15 16  1  0
 16 17  2  0
 17 18  1  0
 10 19  2  0
 19 20  1  0
 20 21  1  0
 21 22  1  0
 22 23  2  0
 22 24  1  0
  5 25  1  0
 25 26  2  0
 26 27  1  0
 27 28  2  0
 28 29  1  0
 29 30  2  0
 21  9  2  0
 30 25  1  0
 17 11  1  0
M  END
>  <score>  (94) 
-0.066475

$$$$
HIPS6134
     RDKit          3D

 33 36  0  0  0  0  0  0  0  0999 V2000
    2.3983   -5.4210    3.1146 O   0  0  0  0  0  0  0  0  0  0  0  0
    1.3365   -4.7852    3.3508 C   0  0  0  0  0  0  0  0  0  0  0  0
    0.3320   -5.3982    4.0948 O   0  0  0  0  0  0  0  0  0  0  0  0
    1.1431   -3.4073    2.8312 C   0  0  0  0  0  0  0  0  0  0  0  0
   -0.0632   -2.7346    3.1032 C   0  0  0  0  0  0  0  0  0  0  0  0
   -0.3106   -1.4559    2.5909 C   0  0  0  0  0  0  0  0  0  0  0  0
   -1.5515   -0.8577    2.8665 O   0  0  0  0  0  0  0  0  0  0  0  0
   -2.0878    0.2781    2.1866 C   0  0  0  0  0  0  0  0  0  0  0  0
   -2.3417   -0.0405    0.7368 C   0  0  0  0  0  0  0  0  0  0  0  0
   -3.2176   -1.0789    0.3903 C   0  0  0  0  0  0  0  0  0  0  0  0
   -3.4413   -1.3921   -0.9520 C   0  0  0  0  0  0  0  0  0  0  0  0
   -2.7893   -0.6761   -1.9595 C   0  0  0  0  0  0  0  0  0  0  0  0
   -1.9064    0.3670   -1.6318 C   0  0  0  0  0  0  0  0  0  0  0  0
   -1.1995    1.1214   -2.6950 C   0  0  0  0  0  0  0  0  0  0  0  0
   -1.8765    1.5239   -3.8593 C   0  0  0  0  0  0  0  0  0  0  0  0
   -1.2154    2.2726   -4.8348 C   0  0  0  0  0  0  0  0  0  0  0  0
    0.1207    2.6397   -4.6537 C   0  0  0  0  0  0  0  0  0  0  0  0
    0.8134    2.2537   -3.5009 C   0  0  0  0  0  0  0  0  0  0  0  0
    2.1448    2.6776   -3.3502 O   0  0  0  0  0  0  0  0  0  0  0  0
    2.9606    2.4453   -2.1993 C   0  0  0  0  0  0  0  0  0  0  0  0
    2.4091    3.1530   -0.9884 C   0  0  0  0  0  0  0  0  0  0  0  0
    2.2762    2.4699    0.2324 C   0  0  0  0  0  0  0  0  0  0  0  0
    1.7347    3.1171    1.3472 C   0  0  0  0  0  0  0  0  0  0  0  0
    1.3367    4.4546    1.2565 C   0  0  0  0  0  0  0  0  0  0  0  0
    1.4882    5.1502    0.0522 C   0  0  0  0  0  0  0  0  0  0  0  0
    0.9964    6.8316   -0.0594 Cl  0  0  0  0  0  0  0  0  0  0  0  0
    2.0288    4.5040   -1.0660 C   0  0  0  0  0  0  0  0  0  0  0  0
    0.1533    1.4712   -2.5344 C   0  0  0  0  0  0  0  0  0  0  0  0
   -1.6974    0.6850   -0.2772 C   0  0  0  0  0  0  0  0  0  0  0  0
    0.6809   -0.8184    1.8287 C   0  0  0  0  0  0  0  0  0  0  0  0
    1.8855   -1.4674    1.5578 C   0  0  0  0  0  0  0  0  0  0  0  0
    2.1239   -2.7590    2.0437 C   0  0  0  0  0  0  0  0  0  0  0  0
    3.3296   -3.3912    1.7395 O   0  0  0  0  0  0  0  0  0  0  0  0
  1  2  2  0
  2  3  1  0
  2  4  1  0
  4  5  2  0
  5  6  1  0
  6  7  1  0
  7  8  1  0
  8  9  1  0
  9 10  2  0
 10 11  1  0
 11 12  2  0
 12 13  1  0
 13 14  1  0
 14 15  2  0
 15 16  1  0
 16 17  2  0
 17 18  1  0
 18 19  1  0
 19 20  1  0
 20 21  1  0
 21 22  2  0
 22 23  1  0
 23 24  2  0
 24 25  1  0
 25 26  1  0
 25 27  2  0
 18 28  2  0
 13 29  2  0
  6 30  2  0
 30 31  1  0
 31 32  2  0
 32 33  1  0
 32  4  1  0
 29  9  1  0
 28 14  1  0
 27 21  1  0
M  END
>  <score>  (95) 
-0.222359

$$$$
HIPS6135
     RDKit          3D

 38 41  0  0  0  0  0  0  0  0999 V2000
   -1.4936   -5.3302   -2.0750 C   0  0  0  0  0  0  0  0  0  0  0  0
   -1.1594   -5.0609   -0.7163 O   0  0  0  0  0  0  0  0  0  0  0  0
    0.1479   -4.8801   -0.2434 C   0  0  0  0  0  0  0  0  0  0  0  0
    1.2754   -4.9866   -1.0792 C   0  0  0  0  0  0  0  0  0  0  0  0
    2.5566   -4.7522   -0.5682 C   0  0  0  0  0  0  0  0  0  0  0  0
    2.7310   -4.4048    0.7805 C   0  0  0  0  0  0  0  0  0  0  0  0
    4.1143   -4.1185    1.3133 C   0  0  0  0  0  0  0  0  0  0  0  0
    4.0943   -3.0876    2.3048 O   0  0  0  0  0  0  0  0  0  0  0  0
    3.6822   -1.7614    2.0867 C   0  0  0  0  0  0  0  0  0  0  0  0
    3.3681   -1.2683    0.8072 C   0  0  0  0  0  0  0  0  0  0  0  0
    2.8893    0.0409    0.6445 C   0  0  0  0  0  0  0  0  0  0  0  0
    2.4987    0.5277   -0.6990 C   0  0  0  0  0  0  0  0  0  0  0  0
    3.3379    0.3159   -1.8057 C   0  0  0  0  0  0  0  0  0  0  0  0
    2.9398    0.7235   -3.0816 C   0  0  0  0  0  0  0  0  0  0  0  0
    1.6965    1.3312   -3.2684 C   0  0  0  0  0  0  0  0  0  0  0  0
    0.8465    1.5523   -2.1739 C   0  0  0  0  0  0  0  0  0  0  0  0
   -0.5361    2.0991   -2.3822 C   0  0  0  0  0  0  0  0  0  0  0  0
   -1.4602    1.0144   -2.3631 O   0  0  0  0  0  0  0  0  0  0  0  0
   -2.8419    1.1314   -2.5689 C   0  0  0  0  0  0  0  0  0  0  0  0
   -3.6091   -0.0344   -2.5365 C   0  0  0  0  0  0  0  0  0  0  0  0
   -4.9867    0.0189   -2.7388 C   0  0  0  0  0  0  0  0  0  0  0  0
   -5.6241    1.2444   -2.9778 C   0  0  0  0  0  0  0  0  0  0  0  0
   -7.0059    1.2659   -3.1724 O   0  0  0  0  0  0  0  0  0  0  0  0
   -4.8663    2.4381   -3.0150 C   0  0  0  0  0  0  0  0  0  0  0  0
   -5.5050    3.7563   -3.2702 C   0  0  0  0  0  0  0  0  0  0  0  0
   -4.8194    4.8148   -3.2286 O   0  0  0  0  0  0  0  0  0  0  0  0
   -6.8636    3.8469   -3.5622 O   0  0  0  0  0  0  0  0  0  0  0  0
   -3.4730    2.3672   -2.8059 C   0  0  0  0  0  0  0  0  0  0  0  0
    1.2534    1.1502   -0.8916 C   0  0  0  0  0  0  0  0  0  0  0  0
    2.7524    0.8692    1.7695 C   0  0  0  0  0  0  0  0  0  0  0  0
    3.0760    0.3942    3.0521 C   0  0  0  0  0  0  0  0  0  0  0  0
    2.9916    1.3029    4.2544 C   0  0  0  0  0  0  0  0  0  0  0  0
    4.2228    1.8953    4.4658 F   0  0  0  0  0  0  0  0  0  0  0  0
    2.6397    0.5815    5.3822 F   0  0  0  0  0  0  0  0  0  0  0  0
    2.0437    2.2945    4.0624 F   0  0  0  0  0  0  0  0  0  0  0  0
    3.5608   -0.9165    3.1940 C   0  0  0  0  0  0  0  0  0  0  0  0
    1.6089   -4.3530    1.6249 C   0  0  0  0  0  0  0  0  0  0  0  0
    0.3289   -4.5772    1.1111 C   0  0  0  0  0  0  0  0  0  0  0  0
  1  2  1  0
  2  3  1  0
  3  4  2  0
  4  5  1  0
  5  6  2  0
  6  7  1  0
  7  8  1  0
  8  9  1  0
  9 10  2  0
 10 11  1  0
 11 12  1  0
 12 13  2  0
 13 14  1  0
 14 15  2  0
 15 16  1  0
 16 17  1  0
 17 18  1  0
 18 19  1  0
 19 20  2  0
 20 21  1  0
 21 22  2  0
 22 23  1  0
 22 24  1  0
 24 25  1  0
 25 26  2  0
 25 27  1  0
 24 28  2  0
 16 29  2  0
 11 30  2  0
 30 31  1  0
 31 32  1  0
 32 33  1  0
 32 34  1  0
 32 35  1  0
 31 36  2  0
  6 37  1  0
 37 38  2  0
 38  3  1  0
 36  9  1  0
 29 12  1  0
 28 19  1  0
M  END
>  <score>  (96) 
-0.30878

$$$$
HIPS6136
     RDKit          3D

 26 28  0  0  0  0  0  0  0  0999 V2000
   -5.0149    1.6926    4.3977 C   0  0  0  0  0  0  0  0  0  0  0  0
   -5.0515    0.2781    4.2379 O   0  0  0  0  0  0  0  0  0  0  0  0
   -4.4811   -0.4133    3.1586 C   0  0  0  0  0  0  0  0  0  0  0  0
   -4.5959   -1.8070    3.1294 C   0  0  0  0  0  0  0  0  0  0  0  0
   -4.0435   -2.5413    2.0787 C   0  0  0  0  0  0  0  0  0  0  0  0
   -3.3698   -1.8889    1.0443 C   0  0  0  0  0  0  0  0  0  0  0  0
   -3.2419   -0.4887    1.0498 C   0  0  0  0  0  0  0  0  0  0  0  0
   -2.5264    0.2060   -0.0511 C   0  0  0  0  0  0  0  0  0  0  0  0
   -3.0283    1.4076   -0.5829 C   0  0  0  0  0  0  0  0  0  0  0  0
   -2.3492    2.0644   -1.6118 C   0  0  0  0  0  0  0  0  0  0  0  0
   -1.1661    1.5303   -2.1258 C   0  0  0  0  0  0  0  0  0  0  0  0
   -0.6588    0.3240   -1.6214 C   0  0  0  0  0  0  0  0  0  0  0  0
    0.6361   -0.2277   -2.1417 C   0  0  0  0  0  0  0  0  0  0  0  0
    1.7096    0.2772   -1.3525 O   0  0  0  0  0  0  0  0  0  0  0  0
    3.0616   -0.0357   -1.5570 C   0  0  0  0  0  0  0  0  0  0  0  0
    3.4892   -0.8976   -2.5806 C   0  0  0  0  0  0  0  0  0  0  0  0
    4.8477   -1.1681   -2.7484 C   0  0  0  0  0  0  0  0  0  0  0  0
    5.8021   -0.5870   -1.9067 C   0  0  0  0  0  0  0  0  0  0  0  0
    7.1487   -0.8367   -2.1796 O   0  0  0  0  0  0  0  0  0  0  0  0
    5.3818    0.2510   -0.8451 C   0  0  0  0  0  0  0  0  0  0  0  0
    6.3285    0.8138    0.1424 C   0  0  0  0  0  0  0  0  0  0  0  0
    6.1108    1.9477    0.6489 O   0  0  0  0  0  0  0  0  0  0  0  0
    7.4306    0.0775    0.5670 O   0  0  0  0  0  0  0  0  0  0  0  0
    4.0106    0.5315   -0.7002 C   0  0  0  0  0  0  0  0  0  0  0  0
   -1.3336   -0.3259   -0.5756 C   0  0  0  0  0  0  0  0  0  0  0  0
   -3.8014    0.2440    2.1138 C   0  0  0  0  0  0  0  0  0  0  0  0
  1  2  1  0
  2  3  1  0
  3  4  2  0
  4  5  1  0
  5  6  2  0
  6  7  1  0
  7  8  1  0
  8  9  2  0
  9 10  1  0
 10 11  2  0
 11 12  1  0
 12 13  1  0
 13 14  1  0
 14 15  1  0
 15 16  2  0
 16 17  1  0
 17 18  2  0
 18 19  1  0
 18 20  1  0
 20 21  1  0
 21 22  2  0
 21 23  1  0
 20 24  2  0
 12 25  2  0
  7 26  2  0
 26  3  1  0
 25  8  1  0
 24 15  1  0
M  END
>  <score>  (97) 
0.143121

$$$$
HIPS6189
     RDKit          3D

 31 32  0  0  0  0  0  0  0  0999 V2000
   11.6117    1.4909    2.3630 C   0  0  0  0  0  0  0  0  0  0  0  0
   10.2010    1.0166    2.4928 C   0  0  0  0  0  0  0  0  0  0  0  0
    9.6921    0.9010    3.6403 O   0  0  0  0  0  0  0  0  0  0  0  0
    9.4724    0.6115    1.3235 N   0  0  0  0  0  0  0  0  0  0  0  0
    8.0645    0.3190    1.3111 C   0  0  0  0  0  0  0  0  0  0  0  0
    7.1613    1.0197    2.1291 C   0  0  0  0  0  0  0  0  0  0  0  0
    5.7950    0.7280    2.0835 C   0  0  0  0  0  0  0  0  0  0  0  0
    5.3044   -0.2522    1.2141 C   0  0  0  0  0  0  0  0  0  0  0  0
    3.9259   -0.5103    1.2111 O   0  0  0  0  0  0  0  0  0  0  0  0
    3.2861   -1.4617    0.3659 C   0  0  0  0  0  0  0  0  0  0  0  0
    1.8222   -1.4637    0.6520 C   0  0  0  0  0  0  0  0  0  0  0  0
    0.8811   -0.6023    0.1331 C   0  0  0  0  0  0  0  0  0  0  0  0
   -0.2788   -0.9228    0.7306 N   0  0  0  0  0  0  0  0  0  0  0  0
   -1.5864   -0.3303    0.4732 C   0  0  0  0  0  0  0  0  0  0  0  0
   -2.3024   -1.0986   -0.6382 C   0  0  0  0  0  0  0  0  0  0  0  0
   -3.6328   -0.5402   -0.8686 N   0  0  0  0  0  0  0  0  0  0  0  0
   -3.8376    0.7030   -1.5595 C   0  0  0  0  0  0  0  0  0  0  0  0
   -2.8553    1.3142   -2.0617 O   0  0  0  0  0  0  0  0  0  0  0  0
   -5.2169    1.2977   -1.6894 C   0  0  2  0  0  0  0  0  0  0  0  0
   -5.7964    1.6304   -0.2939 C   0  0  0  0  0  0  0  0  0  0  0  0
   -7.1770    2.3333   -0.3302 C   0  0  0  0  0  0  0  0  0  0  0  0
   -7.0964    3.7351   -0.9549 C   0  0  0  0  0  0  0  0  0  0  0  0
   -7.7492    2.4308    1.0906 C   0  0  0  0  0  0  0  0  0  0  0  0
   -6.1023    0.3685   -2.4837 C   0  0  0  0  0  0  0  0  0  0  0  0
   -6.6651   -0.6099   -1.9211 O   0  0  0  0  0  0  0  0  0  0  0  0
   -6.2765    0.5703   -3.8893 N   0  0  0  0  0  0  0  0  0  0  0  0
   -7.0642   -0.2615   -4.6110 O   0  0  0  0  0  0  0  0  0  0  0  0
   -0.0620   -1.9277    1.5647 N   0  0  0  0  0  0  0  0  0  0  0  0
    1.2182   -2.2714    1.5470 N   0  0  0  0  0  0  0  0  0  0  0  0
    6.2036   -0.9379    0.3766 C   0  0  0  0  0  0  0  0  0  0  0  0
    7.5703   -0.6467    0.4225 C   0  0  0  0  0  0  0  0  0  0  0  0
  1  2  1  0
  2  3  2  0
  2  4  1  0
  4  5  1  0
  5  6  2  0
  6  7  1  0
  7  8  2  0
  8  9  1  0
  9 10  1  0
 10 11  1  0
 11 12  2  0
 12 13  1  0
 13 14  1  0
 14 15  1  0
 15 16  1  0
 16 17  1  0
 17 18  2  0
 17 19  1  0
 19 20  1  1
 20 21  1  0
 21 22  1  0
 21 23  1  0
 19 24  1  0
 24 25  2  0
 24 26  1  0
 26 27  1  0
 13 28  1  0
 28 29  2  0
  8 30  1  0
 30 31  2  0
 31  5  1  0
 29 11  1  0
M  END
>  <score>  (98) 
0.752059

$$$$
HIPS6202
     RDKit          3D

 21 23  0  0  0  0  0  0  0  0999 V2000
   -0.4507   -4.3817    0.6152 O   0  0  0  0  0  0  0  0  0  0  0  0
   -0.1542   -3.9604   -0.5355 C   0  0  0  0  0  0  0  0  0  0  0  0
    0.1960   -4.8729   -1.5266 O   0  0  0  0  0  0  0  0  0  0  0  0
   -0.1184   -2.5062   -0.8042 C   0  0  0  0  0  0  0  0  0  0  0  0
    0.3089   -1.6415    0.2202 C   0  0  0  0  0  0  0  0  0  0  0  0
    0.4292   -0.2610    0.0026 C   0  0  0  0  0  0  0  0  0  0  0  0
    0.8755    0.5841    1.0807 N   0  0  0  0  0  0  0  0  0  0  0  0
    0.7455    2.0421    1.0977 C   0  0  0  0  0  0  0  0  0  0  0  0
   -0.7051    2.4489    1.1119 C   0  0  0  0  0  0  0  0  0  0  0  0
   -1.2577    3.2346    0.0739 C   0  0  0  0  0  0  0  0  0  0  0  0
   -2.6227    3.6019    0.0954 C   0  0  0  0  0  0  0  0  0  0  0  0
   -3.4555    3.1976    1.1544 C   0  0  0  0  0  0  0  0  0  0  0  0
   -2.8837    2.4335    2.1674 C   0  0  0  0  0  0  0  0  0  0  0  0
   -3.4698    1.9448    3.2706 N   0  0  0  0  0  0  0  0  0  0  0  0
   -2.5578    1.2793    3.9702 N   0  0  0  0  0  0  0  0  0  0  0  0
   -1.3777    1.3428    3.3072 C   0  0  0  0  0  0  0  0  0  0  0  0
   -1.5658    2.0754    2.1515 C   0  0  0  0  0  0  0  0  0  0  0  0
    0.1307    0.2562   -1.2683 C   0  0  0  0  0  0  0  0  0  0  0  0
   -0.3131   -0.5878   -2.2865 C   0  0  0  0  0  0  0  0  0  0  0  0
   -0.4644   -1.9599   -2.0635 C   0  0  0  0  0  0  0  0  0  0  0  0
   -0.9901   -2.7338   -3.1002 O   0  0  0  0  0  0  0  0  0  0  0  0
  1  2  2  0
  2  3  1  0
  2  4  1  0
  4  5  2  0
  5  6  1  0
  6  7  1  0
  7  8  1  0
  8  9  1  0
  9 10  2  0
 10 11  1  0
 11 12  2  0
 12 13  1  0
 13 14  1  0
 14 15  1  0
 15 16  2  0
 16 17  1  0
  6 18  2  0
 18 19  1  0
 19 20  2  0
 20 21  1  0
 20  4  1  0
 17  9  1  0
 17 13  2  0
M  END
>  <score>  (99) 
1.153769

$$$$
HIPS6245
     RDKit          3D

 33 35  0  0  0  0  0  0  0  0999 V2000
    4.4055    1.6737   -4.8329 C   0  0  0  0  0  0  0  0  0  0  0  0
    3.2539    1.2545   -3.8979 C   0  0  0  0  0  0  0  0  0  0  0  0
    1.9331    1.8488   -4.4286 C   0  0  0  0  0  0  0  0  0  0  0  0
    3.5312    1.8003   -2.4821 C   0  0  0  0  0  0  0  0  0  0  0  0
    3.1644   -0.2902   -3.8644 C   0  0  0  0  0  0  0  0  0  0  0  0
    2.1273   -0.7006   -3.0036 O   0  0  0  0  0  0  0  0  0  0  0  0
    2.0206   -2.3915   -3.0444 S   0  0  0  0  0  6  0  0  0  0  0  0
    3.3534   -3.0210   -2.7446 O   0  0  0  0  0  0  0  0  0  0  0  0
    1.5472   -2.8331   -4.4020 O   0  0  0  0  0  0  0  0  0  0  0  0
    0.8699   -2.8983   -1.8144 C   0  0  0  0  0  0  0  0  0  0  0  0
   -0.0938   -3.8760   -2.0922 C   0  0  0  0  0  0  0  0  0  0  0  0
   -1.0003   -4.2660   -1.1040 C   0  0  0  0  0  0  0  0  0  0  0  0
   -0.9470   -3.6880    0.1670 C   0  0  0  0  0  0  0  0  0  0  0  0
    0.0194   -2.7101    0.4639 C   0  0  0  0  0  0  0  0  0  0  0  0
    0.0848   -2.0964    1.8144 C   0  0  0  0  0  0  0  0  0  0  0  0
    1.3274   -1.8520    2.4267 C   0  0  0  0  0  0  0  0  0  0  0  0
    1.3894   -1.2665    3.6927 C   0  0  0  0  0  0  0  0  0  0  0  0
    0.2162   -0.9109    4.3606 C   0  0  0  0  0  0  0  0  0  0  0  0
   -1.0332   -1.1320    3.7617 C   0  0  0  0  0  0  0  0  0  0  0  0
   -2.2984   -0.7496    4.4868 C   0  0  0  0  0  0  0  0  0  0  0  0
   -3.2401   -0.1407    3.6010 O   0  0  0  0  0  0  0  0  0  0  0  0
   -3.0753    1.1036    2.9691 C   0  0  0  0  0  0  0  0  0  0  0  0
   -4.0572    1.5178    2.0662 C   0  0  0  0  0  0  0  0  0  0  0  0
   -3.9337    2.7341    1.3957 C   0  0  0  0  0  0  0  0  0  0  0  0
   -2.8236    3.5596    1.6148 C   0  0  0  0  0  0  0  0  0  0  0  0
   -2.7128    4.7589    0.9111 O   0  0  0  0  0  0  0  0  0  0  0  0
   -1.8265    3.1671    2.5355 C   0  0  0  0  0  0  0  0  0  0  0  0
   -0.6342    4.0145    2.7999 C   0  0  0  0  0  0  0  0  0  0  0  0
    0.3396    3.5533    3.4558 O   0  0  0  0  0  0  0  0  0  0  0  0
   -0.5720    5.3243    2.3321 O   0  0  0  0  0  0  0  0  0  0  0  0
   -1.9669    1.9372    3.2091 C   0  0  0  0  0  0  0  0  0  0  0  0
   -1.0936   -1.7426    2.4973 C   0  0  0  0  0  0  0  0  0  0  0  0
    0.9250   -2.3205   -0.5401 C   0  0  0  0  0  0  0  0  0  0  0  0
  1  2  1  0
  2  3  1  0
  2  4  1  0
  2  5  1  0
  5  6  1  0
  6  7  1  0
  7  8  2  0
  7  9  2  0
  7 10  1  0
 10 11  2  0
 11 12  1  0
 12 13  2  0
 13 14  1  0
 14 15  1  0
 15 16  2  0
 16 17  1  0
 17 18  2  0
 18 19  1  0
 19 20  1  0
 20 21  1  0
 21 22  1  0
 22 23  2  0
 23 24  1  0
 24 25  2  0
 25 26  1  0
 25 27  1  0
 27 28  1  0
 28 29  2  0
 28 30  1  0
 27 31  2  0
 19 32  2  0
 14 33  2  0
 33 10  1  0
 32 15  1  0
 31 22  1  0
M  END
>  <score>  (100) 
0.047374

$$$$
HIPS6246
     RDKit          3D

 32 35  0  0  0  0  0  0  0  0999 V2000
   -8.2373   -1.0387   -1.8062 O   0  0  0  0  0  0  0  0  0  0  0  0
   -7.6128   -1.5537   -0.8533 C   0  0  0  0  0  0  0  0  0  0  0  0
   -8.3196   -2.3779    0.0099 O   0  0  0  0  0  0  0  0  0  0  0  0
   -6.1927   -1.2700   -0.6938 C   0  0  0  0  0  0  0  0  0  0  0  0
   -5.4514   -1.8013    0.3236 C   0  0  0  0  0  0  0  0  0  0  0  0
   -4.0872   -1.5052    0.4435 C   0  0  0  0  0  0  0  0  0  0  0  0
   -3.3975   -2.0444    1.4497 O   0  0  0  0  0  0  0  0  0  0  0  0
   -2.1650   -2.0808    1.9902 C   0  0  0  0  0  0  0  0  0  0  0  0
   -1.6567   -0.7601    2.4742 C   0  0  0  0  0  0  0  0  0  0  0  0
   -2.0506   -0.3553    3.7448 C   0  0  0  0  0  0  0  0  0  0  0  0
   -1.6037    0.8300    4.2651 C   0  0  0  0  0  0  0  0  0  0  0  0
   -0.7615    1.6089    3.5104 C   0  0  0  0  0  0  0  0  0  0  0  0
   -0.3405    1.2570    2.2491 C   0  0  0  0  0  0  0  0  0  0  0  0
    0.5554    2.1151    1.4844 C   0  0  0  0  0  0  0  0  0  0  0  0
    0.4977    3.4943    1.6406 C   0  0  0  0  0  0  0  0  0  0  0  0
    1.3606    4.2918    0.9016 C   0  0  0  0  0  0  0  0  0  0  0  0
    2.2661    3.7388    0.0227 C   0  0  0  0  0  0  0  0  0  0  0  0
    2.3404    2.3656   -0.1483 C   0  0  0  0  0  0  0  0  0  0  0  0
    3.2572    1.8149   -1.0375 O   0  0  0  0  0  0  0  0  0  0  0  0
    3.2601    0.4030   -1.1466 C   0  0  0  0  0  0  0  0  0  0  0  0
    4.2803   -0.1043   -2.1252 C   0  0  1  0  0  0  0  0  0  0  0  0
    5.6830    0.2774   -1.7636 C   0  0  0  0  0  0  0  0  0  0  0  0
    6.6295   -0.8940   -1.8657 C   0  0  0  0  0  0  0  0  0  0  0  0
    6.1662   -2.1103   -1.1304 C   0  0  0  0  0  0  0  0  0  0  0  0
    4.8101   -2.0632   -0.9157 O   0  0  0  0  0  0  0  0  0  0  0  0
    4.2017   -1.6311   -2.0865 C   0  0  0  0  0  0  0  0  0  0  0  0
    1.4671    1.6102    0.6033 C   0  0  0  0  0  0  0  0  0  0  0  0
   -0.8203    0.0508    1.7699 C   0  0  0  0  0  0  0  0  0  0  0  0
   -3.5291   -0.6728   -0.4868 C   0  0  0  0  0  0  0  0  0  0  0  0
   -4.2704   -0.1201   -1.5334 C   0  0  0  0  0  0  0  0  0  0  0  0
   -5.5980   -0.4285   -1.6218 C   0  0  0  0  0  0  0  0  0  0  0  0
   -6.3504    0.1102   -2.6533 O   0  0  0  0  0  0  0  0  0  0  0  0
  1  2  2  0
  2  3  1  0
  2  4  1  0
  4  5  2  0
  5  6  1  0
  6  7  1  0
  7  8  1  0
  8  9  1  0
  9 10  2  0
 10 11  1  0
 11 12  2  0
 12 13  1  0
 13 14  1  0
 14 15  2  0
 15 16  1  0
 16 17  2  0
 17 18  1  0
 18 19  1  0
 19 20  1  0
 21 20  1  1
 21 22  1  0
 22 23  1  0
 23 24  1  0
 24 25  1  0
 25 26  1  0
 18 27  2  0
 13 28  2  0
  6 29  2  0
 29 30  1  0
 30 31  2  0
 31 32  1  0
 31  4  1  0
 28  9  1  0
 27 14  1  0
 26 21  1  0
M  END
>  <score>  (101) 
-0.091551

$$$$
HIPS6247
     RDKit          3D

 32 34  0  0  0  0  0  0  0  0999 V2000
    4.6823   -0.5937    2.2201 C   0  0  0  0  0  0  0  0  0  0  0  0
    3.3397   -0.0911    1.6443 C   0  0  0  0  0  0  0  0  0  0  0  0
    2.9373   -1.0231    0.4783 C   0  0  0  0  0  0  0  0  0  0  0  0
    2.2912   -0.1721    2.7746 C   0  0  0  0  0  0  0  0  0  0  0  0
    3.5410    1.3165    1.2081 N   0  0  0  0  0  0  0  0  0  0  0  0
    2.2488    2.0650    0.2956 S   0  0  0  0  0  6  0  0  0  0  0  0
    2.6497    3.4826   -0.0053 O   0  0  0  0  0  0  0  0  0  0  0  0
    2.0586    1.3571   -1.0179 O   0  0  0  0  0  0  0  0  0  0  0  0
    0.7312    2.1258    1.1885 C   0  0  0  0  0  0  0  0  0  0  0  0
    0.6327    2.9142    2.3417 C   0  0  0  0  0  0  0  0  0  0  0  0
   -0.5607    2.9506    3.0672 C   0  0  0  0  0  0  0  0  0  0  0  0
   -1.6632    2.2015    2.6459 C   0  0  0  0  0  0  0  0  0  0  0  0
   -1.5816    1.4069    1.4881 C   0  0  0  0  0  0  0  0  0  0  0  0
   -2.7394    0.5903    1.0452 C   0  0  0  0  0  0  0  0  0  0  0  0
   -3.5241   -0.1109    1.9787 C   0  0  0  0  0  0  0  0  0  0  0  0
   -4.5816   -0.9172    1.5498 C   0  0  0  0  0  0  0  0  0  0  0  0
   -4.8586   -1.0467    0.1868 C   0  0  0  0  0  0  0  0  0  0  0  0
   -4.0791   -0.3652   -0.7601 C   0  0  0  0  0  0  0  0  0  0  0  0
   -4.3695   -0.5130   -2.2322 C   0  0  0  0  0  0  0  0  0  0  0  0
   -3.1623   -0.5111   -2.9997 O   0  0  0  0  0  0  0  0  0  0  0  0
   -2.1494   -1.4840   -2.9189 C   0  0  0  0  0  0  0  0  0  0  0  0
   -2.3098   -2.6857   -2.2071 C   0  0  0  0  0  0  0  0  0  0  0  0
   -1.2714   -3.6188   -2.1593 C   0  0  0  0  0  0  0  0  0  0  0  0
   -0.0585   -3.3766   -2.8157 C   0  0  0  0  0  0  0  0  0  0  0  0
    0.9060   -4.3899   -2.7956 O   0  0  0  0  0  0  0  0  0  0  0  0
    0.1324   -2.1482   -3.4992 C   0  0  0  0  0  0  0  0  0  0  0  0
    1.4199   -1.7728   -4.1263 C   0  0  0  0  0  0  0  0  0  0  0  0
    2.5178   -2.1232   -3.6110 O   0  0  0  0  0  0  0  0  0  0  0  0
    1.4244   -0.9742   -5.2670 O   0  0  0  0  0  0  0  0  0  0  0  0
   -0.9336   -1.2301   -3.5640 C   0  0  0  0  0  0  0  0  0  0  0  0
   -3.0435    0.4760   -0.3227 C   0  0  0  0  0  0  0  0  0  0  0  0
   -0.3760    1.3796    0.7616 C   0  0  0  0  0  0  0  0  0  0  0  0
  1  2  1  0
  2  3  1  0
  2  4  1  0
  2  5  1  0
  5  6  1  0
  6  7  2  0
  6  8  2  0
  6  9  1  0
  9 10  2  0
 10 11  1  0
 11 12  2  0
 12 13  1  0
 13 14  1  0
 14 15  2  0
 15 16  1  0
 16 17  2  0
 17 18  1  0
 18 19  1  0
 19 20  1  0
 20 21  1  0
 21 22  2  0
 22 23  1  0
 23 24  2  0
 24 25  1  0
 24 26  1  0
 26 27  1  0
 27 28  2  0
 27 29  1  0
 26 30  2  0
 18 31  2  0
 13 32  2  0
 32  9  1  0
 31 14  1  0
 30 21  1  0
M  END
>  <score>  (102) 
0.265994

$$$$
HIPS6249
     RDKit          3D

 28 31  0  0  0  0  0  0  0  0999 V2000
   -0.5160    3.6523   -0.2804 O   0  0  0  0  0  0  0  0  0  0  0  0
    0.3410    3.9203   -1.1656 C   0  0  0  0  0  0  0  0  0  0  0  0
    0.4589    5.2280   -1.6274 O   0  0  0  0  0  0  0  0  0  0  0  0
    1.2515    2.8630   -1.6573 C   0  0  0  0  0  0  0  0  0  0  0  0
    1.6925    1.8798   -0.7523 C   0  0  0  0  0  0  0  0  0  0  0  0
    2.6082    0.8885   -1.1514 C   0  0  0  0  0  0  0  0  0  0  0  0
    3.0649   -0.1165   -0.2826 O   0  0  0  0  0  0  0  0  0  0  0  0
    2.5721   -0.3550    1.0368 C   0  0  0  0  0  0  0  0  0  0  0  0
    1.1545   -0.8646    0.9936 C   0  0  0  0  0  0  0  0  0  0  0  0
    0.8417   -1.9920    0.2228 C   0  0  0  0  0  0  0  0  0  0  0  0
   -0.4769   -2.4722    0.1537 C   0  0  0  0  0  0  0  0  0  0  0  0
   -0.8027   -3.6632   -0.6732 C   0  0  0  0  0  0  0  0  0  0  0  0
    0.0857   -4.5966   -1.1788 C   0  0  0  0  0  0  0  0  0  0  0  0
   -0.6785   -5.5085   -1.8751 C   0  0  0  0  0  0  0  0  0  0  0  0
   -1.9445   -5.1678   -1.8109 O   0  0  0  0  0  0  0  0  0  0  0  0
   -2.0567   -4.0692   -1.1007 C   0  0  0  0  0  0  0  0  0  0  0  0
   -1.4819   -1.8064    0.8789 C   0  0  0  0  0  0  0  0  0  0  0  0
   -1.1832   -0.6795    1.6664 C   0  0  0  0  0  0  0  0  0  0  0  0
   -2.2544    0.0172    2.4252 C   0  0  0  0  0  0  0  0  0  0  0  0
   -3.6208   -0.0963    2.2354 C   0  0  0  0  0  0  0  0  0  0  0  0
   -4.2029    0.7405    3.1635 C   0  0  0  0  0  0  0  0  0  0  0  0
   -3.2714    1.3280    3.8776 O   0  0  0  0  0  0  0  0  0  0  0  0
   -2.0940    0.9199    3.4643 C   0  0  0  0  0  0  0  0  0  0  0  0
    0.1439   -0.2214    1.7214 C   0  0  0  0  0  0  0  0  0  0  0  0
    3.0936    0.8981   -2.4606 C   0  0  0  0  0  0  0  0  0  0  0  0
    2.6540    1.8579   -3.3725 C   0  0  0  0  0  0  0  0  0  0  0  0
    1.7192    2.8268   -2.9935 C   0  0  0  0  0  0  0  0  0  0  0  0
    1.2576    3.7054   -3.9758 O   0  0  0  0  0  0  0  0  0  0  0  0
  1  2  2  0
  2  3  1  0
  2  4  1  0
  4  5  2  0
  5  6  1  0
  6  7  1  0
  7  8  1  0
  8  9  1  0
  9 10  2  0
 10 11  1  0
 11 12  1  0
 12 13  1  0
 13 14  2  0
 14 15  1  0
 15 16  1  0
 11 17  2  0
 17 18  1  0
 18 19  1  0
 19 20  1  0
 20 21  2  0
 21 22  1  0
 22 23  1  0
 18 24  2  0
  6 25  2  0
 25 26  1  0
 26 27  2  0
 27 28  1  0
 27  4  1  0
 24  9  1  0
 16 12  2  0
 23 19  2  0
M  END
>  <score>  (103) 
0.222504

$$$$
HIPS6276
     RDKit          3D

 29 30  0  0  0  0  0  0  0  0999 V2000
    9.1025   -1.8795   -0.1106 C   0  0  0  0  0  0  0  0  0  0  0  0
    7.6350   -1.7942    0.1551 C   0  0  0  0  0  0  0  0  0  0  0  0
    7.0775   -2.6858    0.8508 O   0  0  0  0  0  0  0  0  0  0  0  0
    6.8872   -0.6645   -0.3181 N   0  0  0  0  0  0  0  0  0  0  0  0
    5.4574   -0.5665   -0.2065 C   0  0  0  0  0  0  0  0  0  0  0  0
    4.6590   -1.6538   -0.5978 C   0  0  0  0  0  0  0  0  0  0  0  0
    3.2682   -1.5562   -0.5883 C   0  0  0  0  0  0  0  0  0  0  0  0
    2.6427   -0.3710   -0.1995 C   0  0  0  0  0  0  0  0  0  0  0  0
    1.2407   -0.3260   -0.2120 O   0  0  0  0  0  0  0  0  0  0  0  0
    0.4643    0.8043    0.1749 C   0  0  0  0  0  0  0  0  0  0  0  0
   -0.9936    0.4694    0.0387 C   0  0  0  0  0  0  0  0  0  0  0  0
   -1.6771    0.7649   -1.1456 C   0  0  0  0  0  0  0  0  0  0  0  0
   -3.0377    0.4250   -1.3053 C   0  0  0  0  0  0  0  0  0  0  0  0
   -3.8294    0.7464   -2.5926 C   0  0  0  0  0  0  0  0  0  0  0  0
   -5.0279    1.6579   -2.2475 C   0  0  0  0  0  0  0  0  0  0  0  0
   -2.9822    1.4756   -3.6639 C   0  0  0  0  0  0  0  0  0  0  0  0
   -4.3467   -0.5662   -3.2217 C   0  0  0  0  0  0  0  0  0  0  0  0
   -3.6838   -0.2390   -0.2381 C   0  0  0  0  0  0  0  0  0  0  0  0
   -3.0086   -0.5676    0.9602 C   0  0  0  0  0  0  0  0  0  0  0  0
   -3.6932   -1.3070    2.1310 C   0  0  0  0  0  0  0  0  0  0  0  0
   -5.1822   -1.6341    1.8613 C   0  0  0  0  0  0  0  0  0  0  0  0
   -3.6314   -0.4299    3.4008 C   0  0  0  0  0  0  0  0  0  0  0  0
   -2.9626   -2.6421    2.3937 C   0  0  0  0  0  0  0  0  0  0  0  0
   -1.6525   -0.2038    1.0716 C   0  0  0  0  0  0  0  0  0  0  0  0
    3.4314    0.7271    0.1893 C   0  0  0  0  0  0  0  0  0  0  0  0
    4.8372    0.6417    0.1974 C   0  0  0  0  0  0  0  0  0  0  0  0
    5.6234    1.8075    0.6704 C   0  0  0  0  0  0  0  0  0  0  0  0
    5.1319    2.9673    0.6128 O   0  0  0  0  0  0  0  0  0  0  0  0
    6.8927    1.6355    1.2160 O   0  0  0  0  0  0  0  0  0  0  0  0
  1  2  1  0
  2  3  2  0
  2  4  1  0
  4  5  1  0
  5  6  2  0
  6  7  1  0
  7  8  2  0
  8  9  1  0
  9 10  1  0
 10 11  1  0
 11 12  2  0
 12 13  1  0
 13 14  1  0
 14 15  1  0
 14 16  1  0
 14 17  1  0
 13 18  2  0
 18 19  1  0
 19 20  1  0
 20 21  1  0
 20 22  1  0
 20 23  1  0
 19 24  2  0
  8 25  1  0
 25 26  2  0
 26 27  1  0
 27 28  2  0
 27 29  1  0
 26  5  1  0
 24 11  1  0
M  END
>  <score>  (104) 
-0.008874

$$$$
HIPS6277
     RDKit          3D

 33 34  0  0  0  0  0  0  0  0999 V2000
    7.3583   -1.8793   -2.0583 C   0  0  0  0  0  0  0  0  0  0  0  0
    6.4781   -2.8359   -1.2309 C   0  0  0  0  0  0  0  0  0  0  0  0
    7.3881   -3.7437   -0.3891 C   0  0  0  0  0  0  0  0  0  0  0  0
    5.6152   -3.7164   -2.1552 C   0  0  0  0  0  0  0  0  0  0  0  0
    5.6505   -2.0997   -0.3173 O   0  0  0  0  0  0  0  0  0  0  0  0
    4.6709   -1.1557   -0.6597 C   0  0  0  0  0  0  0  0  0  0  0  0
    4.4485   -0.8589   -1.8650 O   0  0  0  0  0  0  0  0  0  0  0  0
    3.9396   -0.5077    0.3882 N   0  0  0  0  0  0  0  0  0  0  0  0
    2.8399    0.3861    0.1475 C   0  0  0  0  0  0  0  0  0  0  0  0
    1.8186    0.0007   -0.7364 C   0  0  0  0  0  0  0  0  0  0  0  0
    0.6944    0.8044   -0.9228 C   0  0  0  0  0  0  0  0  0  0  0  0
    0.5597    2.0086   -0.2134 C   0  0  0  0  0  0  0  0  0  0  0  0
   -0.5575    2.8488   -0.3521 O   0  0  0  0  0  0  0  0  0  0  0  0
   -1.7381    2.5355   -1.0925 C   0  0  0  0  0  0  0  0  0  0  0  0
   -2.5048    1.4200   -0.4284 C   0  0  0  0  0  0  0  0  0  0  0  0
   -2.9191    0.3058   -1.1665 C   0  0  0  0  0  0  0  0  0  0  0  0
   -3.6289   -0.7500   -0.5553 C   0  0  0  0  0  0  0  0  0  0  0  0
   -4.0879   -2.0033   -1.3337 C   0  0  0  0  0  0  0  0  0  0  0  0
   -3.4426   -3.2618   -0.7124 C   0  0  0  0  0  0  0  0  0  0  0  0
   -3.6959   -1.9695   -2.8310 C   0  0  0  0  0  0  0  0  0  0  0  0
   -5.6260   -2.1237   -1.2576 C   0  0  0  0  0  0  0  0  0  0  0  0
   -3.9176   -0.6428    0.8239 C   0  0  0  0  0  0  0  0  0  0  0  0
   -3.5204    0.4781    1.5886 C   0  0  0  0  0  0  0  0  0  0  0  0
   -3.8226    0.6122    3.0974 C   0  0  0  0  0  0  0  0  0  0  0  0
   -4.5790   -0.6059    3.6809 C   0  0  0  0  0  0  0  0  0  0  0  0
   -4.6957    1.8631    3.3372 C   0  0  0  0  0  0  0  0  0  0  0  0
   -2.4967    0.7546    3.8778 C   0  0  0  0  0  0  0  0  0  0  0  0
   -2.8194    1.5073    0.9309 C   0  0  0  0  0  0  0  0  0  0  0  0
    1.5726    2.3979    0.6680 C   0  0  0  0  0  0  0  0  0  0  0  0
    2.7203    1.6056    0.8584 C   0  0  0  0  0  0  0  0  0  0  0  0
    3.7860    2.0953    1.7670 C   0  0  0  0  0  0  0  0  0  0  0  0
    3.5114    2.9293    2.6720 O   0  0  0  0  0  0  0  0  0  0  0  0
    5.1034    1.6728    1.6126 O   0  0  0  0  0  0  0  0  0  0  0  0
  1  2  1  0
  2  3  1  0
  2  4  1  0
  2  5  1  0
  5  6  1  0
  6  7  2  0
  6  8  1  0
  8  9  1  0
  9 10  2  0
 10 11  1  0
 11 12  2  0
 12 13  1  0
 13 14  1  0
 14 15  1  0
 15 16  2  0
 16 17  1  0
 17 18  1  0
 18 19  1  0
 18 20  1  0
 18 21  1  0
 17 22  2  0
 22 23  1  0
 23 24  1  0
 24 25  1  0
 24 26  1  0
 24 27  1  0
 23 28  2  0
 12 29  1  0
 29 30  2  0
 30 31  1  0
 31 32  2  0
 31 33  1  0
 30  9  1  0
 28 15  1  0
M  END
>  <score>  (105) 
-0.579681

$$$$
HIPS6295
     RDKit          3D

 34 37  0  0  0  0  0  0  0  0999 V2000
    2.3085    0.6611    7.1902 O   0  0  0  0  0  0  0  0  0  0  0  0
    1.6186    0.2485    6.2193 C   0  0  0  0  0  0  0  0  0  0  0  0
    0.2418    0.4555    6.2361 O   0  0  0  0  0  0  0  0  0  0  0  0
    2.2542   -0.4494    5.0718 C   0  0  0  0  0  0  0  0  0  0  0  0
    1.4526   -0.8658    3.9890 C   0  0  0  0  0  0  0  0  0  0  0  0
    2.0216   -1.5276    2.8846 C   0  0  0  0  0  0  0  0  0  0  0  0
    1.2605   -1.9540    1.7860 O   0  0  0  0  0  0  0  0  0  0  0  0
   -0.1391   -1.7320    1.6311 C   0  0  0  0  0  0  0  0  0  0  0  0
   -0.5636   -2.2363    0.2825 C   0  0  0  0  0  0  0  0  0  0  0  0
   -0.9809   -3.5658    0.1225 C   0  0  0  0  0  0  0  0  0  0  0  0
   -1.3057   -4.0543   -1.1458 C   0  0  0  0  0  0  0  0  0  0  0  0
   -1.8294   -5.7180   -1.3359 Cl  0  0  0  0  0  0  0  0  0  0  0  0
   -1.2015   -3.2236   -2.2665 C   0  0  0  0  0  0  0  0  0  0  0  0
   -0.7726   -1.8916   -2.1272 C   0  0  0  0  0  0  0  0  0  0  0  0
   -0.6398   -1.0094   -3.3158 C   0  0  0  0  0  0  0  0  0  0  0  0
   -0.1006   -1.4993   -4.5183 C   0  0  0  0  0  0  0  0  0  0  0  0
    0.0562   -0.6528   -5.6176 C   0  0  0  0  0  0  0  0  0  0  0  0
   -0.3065    0.6936   -5.5255 C   0  0  0  0  0  0  0  0  0  0  0  0
   -0.8390    1.2041   -4.3374 C   0  0  0  0  0  0  0  0  0  0  0  0
   -1.1565    2.5717   -4.2821 O   0  0  0  0  0  0  0  0  0  0  0  0
   -1.6210    3.2640   -3.1199 C   0  0  0  0  0  0  0  0  0  0  0  0
   -0.5543    3.3090   -2.0542 C   0  0  0  0  0  0  0  0  0  0  0  0
    0.7415    3.7490   -2.3696 C   0  0  0  0  0  0  0  0  0  0  0  0
    1.7369    3.7701   -1.3872 C   0  0  0  0  0  0  0  0  0  0  0  0
    1.4455    3.3545   -0.0844 C   0  0  0  0  0  0  0  0  0  0  0  0
    0.1548    2.9282    0.2422 C   0  0  0  0  0  0  0  0  0  0  0  0
   -0.2081    2.4046    1.8780 Cl  0  0  0  0  0  0  0  0  0  0  0  0
   -0.8453    2.9120   -0.7371 C   0  0  0  0  0  0  0  0  0  0  0  0
   -1.0288    0.3401   -3.2425 C   0  0  0  0  0  0  0  0  0  0  0  0
   -0.4497   -1.4087   -0.8448 C   0  0  0  0  0  0  0  0  0  0  0  0
    3.3945   -1.7758    2.8673 C   0  0  0  0  0  0  0  0  0  0  0  0
    4.2015   -1.3687    3.9297 C   0  0  0  0  0  0  0  0  0  0  0  0
    3.6446   -0.7062    5.0318 C   0  0  0  0  0  0  0  0  0  0  0  0
    4.4759   -0.3093    6.0806 O   0  0  0  0  0  0  0  0  0  0  0  0
  1  2  2  0
  2  3  1  0
  2  4  1  0
  4  5  2  0
  5  6  1  0
  6  7  1  0
  7  8  1  0
  8  9  1  0
  9 10  2  0
 10 11  1  0
 11 12  1  0
 11 13  2  0
 13 14  1  0
 14 15  1  0
 15 16  2  0
 16 17  1  0
 17 18  2  0
 18 19  1  0
 19 20  1  0
 20 21  1  0
 21 22  1  0
 22 23  2  0
 23 24  1  0
 24 25  2  0
 25 26  1  0
 26 27  1  0
 26 28  2  0
 19 29  2  0
 14 30  2  0
  6 31  2  0
 31 32  1  0
 32 33  2  0
 33 34  1  0
 33  4  1  0
 30  9  1  0
 29 15  1  0
 28 22  1  0
M  END
>  <score>  (106) 
-0.365622

$$$$
HIPS6296
     RDKit          3D

 30 31  0  0  0  0  0  0  0  0999 V2000
   -1.7350   -3.7619    0.8706 C   0  0  0  0  0  0  0  0  0  0  0  0
   -2.6869   -2.8739    0.0395 C   0  0  0  0  0  0  0  0  0  0  0  0
   -4.1157   -2.9677    0.6198 C   0  0  0  0  0  0  0  0  0  0  0  0
   -2.7294   -3.4497   -1.3972 C   0  0  0  0  0  0  0  0  0  0  0  0
   -2.2019   -1.4082    0.0935 C   0  0  0  0  0  0  0  0  0  0  0  0
   -1.8056   -0.6970   -1.0591 C   0  0  0  0  0  0  0  0  0  0  0  0
   -1.3605    0.6261   -0.9742 C   0  0  0  0  0  0  0  0  0  0  0  0
   -0.8802    1.3347   -2.2152 C   0  0  0  0  0  0  0  0  0  0  0  0
    0.2177    0.6301   -2.7980 O   0  0  0  0  0  0  0  0  0  0  0  0
    1.4766    0.4543   -2.1992 C   0  0  0  0  0  0  0  0  0  0  0  0
    2.3441   -0.4886   -2.7515 C   0  0  0  0  0  0  0  0  0  0  0  0
    3.5928   -0.7255   -2.1776 C   0  0  0  0  0  0  0  0  0  0  0  0
    4.0003   -0.0245   -1.0312 C   0  0  0  0  0  0  0  0  0  0  0  0
    5.3200   -0.2339   -0.5057 N   0  0  0  0  0  0  0  0  0  0  0  0
    5.9979   -1.8173   -0.3103 S   0  0  0  0  0  6  0  0  0  0  0  0
    4.7625   -2.9379    0.3120 C   0  0  0  0  0  0  0  0  0  0  0  0
    6.5293   -2.3125   -1.6257 O   0  0  0  0  0  0  0  0  0  0  0  0
    7.1238   -1.7485    0.6825 O   0  0  0  0  0  0  0  0  0  0  0  0
    3.1308    0.9364   -0.4596 C   0  0  0  0  0  0  0  0  0  0  0  0
    3.4652    1.6520    0.7954 C   0  0  0  0  0  0  0  0  0  0  0  0
    2.9528    2.7786    1.0373 O   0  0  0  0  0  0  0  0  0  0  0  0
    4.3057    1.0711    1.7408 O   0  0  0  0  0  0  0  0  0  0  0  0
    1.8856    1.1813   -1.0669 C   0  0  0  0  0  0  0  0  0  0  0  0
   -1.3214    1.2666    0.2680 C   0  0  0  0  0  0  0  0  0  0  0  0
   -1.6815    0.5928    1.4505 C   0  0  0  0  0  0  0  0  0  0  0  0
   -1.5531    1.3232    2.8051 C   0  0  0  0  0  0  0  0  0  0  0  0
   -2.4521    2.5789    2.8020 C   0  0  0  0  0  0  0  0  0  0  0  0
   -0.0823    1.7447    3.0222 C   0  0  0  0  0  0  0  0  0  0  0  0
   -1.9726    0.4505    4.0129 C   0  0  0  0  0  0  0  0  0  0  0  0
   -2.1250   -0.7453    1.3392 C   0  0  0  0  0  0  0  0  0  0  0  0
  1  2  1  0
  2  3  1  0
  2  4  1  0
  2  5  1  0
  5  6  2  0
  6  7  1  0
  7  8  1  0
  8  9  1  0
  9 10  1  0
 10 11  2  0
 11 12  1  0
 12 13  2  0
 13 14  1  0
 14 15  1  0
 15 16  1  0
 15 17  2  0
 15 18  2  0
 13 19  1  0
 19 20  1  0
 20 21  2  0
 20 22  1  0
 19 23  2  0
  7 24  2  0
 24 25  1  0
 25 26  1  0
 26 27  1  0
 26 28  1  0
 26 29  1  0
 25 30  2  0
 30  5  1  0
 23 10  1  0
M  END
>  <score>  (107) 
0.286885

$$$$
HIPS6297
     RDKit          3D

 33 36  0  0  0  0  0  0  0  0999 V2000
   -6.4676    3.9080    1.2333 O   0  0  0  0  0  0  0  0  0  0  0  0
   -6.8539    3.5275    0.1058 C   0  0  0  0  0  0  0  0  0  0  0  0
   -7.8333    4.2618   -0.5388 O   0  0  0  0  0  0  0  0  0  0  0  0
   -6.2683    2.3395   -0.4848 C   0  0  0  0  0  0  0  0  0  0  0  0
   -5.2962    1.6437    0.1971 C   0  0  0  0  0  0  0  0  0  0  0  0
   -4.7549    0.5164   -0.3876 C   0  0  0  0  0  0  0  0  0  0  0  0
   -3.7716   -0.1963    0.2914 O   0  0  0  0  0  0  0  0  0  0  0  0
   -3.3384    0.2324    1.5624 C   0  0  0  0  0  0  0  0  0  0  0  0
   -2.2871   -0.7517    1.9982 C   0  0  0  0  0  0  0  0  0  0  0  0
   -2.6753   -1.8715    2.7039 C   0  0  0  0  0  0  0  0  0  0  0  0
   -1.6788   -2.7689    3.0959 C   0  0  0  0  0  0  0  0  0  0  0  0
   -0.3625   -2.4989    2.7637 C   0  0  0  0  0  0  0  0  0  0  0  0
    0.0235   -1.3786    2.0581 C   0  0  0  0  0  0  0  0  0  0  0  0
    1.4077   -1.0890    1.7055 C   0  0  0  0  0  0  0  0  0  0  0  0
    2.2963   -2.1126    1.4526 C   0  0  0  0  0  0  0  0  0  0  0  0
    3.6156   -1.8790    1.1186 C   0  0  0  0  0  0  0  0  0  0  0  0
    4.1113   -0.5947    1.0213 C   0  0  0  0  0  0  0  0  0  0  0  0
    5.7598   -0.2397    0.6050 S   0  0  0  0  0  6  0  0  0  0  0  0
    6.6873   -1.3700    1.0363 O   0  0  0  0  0  0  0  0  0  0  0  0
    6.2632    0.9818    1.3635 O   0  0  0  0  0  0  0  0  0  0  0  0
    5.9696   -0.0211   -1.0609 N   0  0  0  0  0  0  0  0  0  0  0  0
    5.2571    1.0454   -1.6579 C   0  0  0  0  0  0  0  0  0  0  0  0
    3.9563    0.7162   -2.2996 C   0  0  0  0  0  0  0  0  0  0  0  0
    3.9925   -0.5344   -3.1377 C   0  0  0  0  0  0  0  0  0  0  0  0
    4.7326   -1.6523   -2.4393 C   0  0  0  0  0  0  0  0  0  0  0  0
    6.0468   -1.1877   -1.8611 C   0  0  0  0  0  0  0  0  0  0  0  0
    3.2133    0.4287    1.2765 C   0  0  0  0  0  0  0  0  0  0  0  0
    1.8926    0.2021    1.6111 C   0  0  0  0  0  0  0  0  0  0  0  0
   -0.9692   -0.5001    1.6765 C   0  0  0  0  0  0  0  0  0  0  0  0
   -5.1549    0.0673   -1.6271 C   0  0  0  0  0  0  0  0  0  0  0  0
   -6.1236    0.7649   -2.3010 C   0  0  0  0  0  0  0  0  0  0  0  0
   -6.6646    1.8862   -1.7235 C   0  0  0  0  0  0  0  0  0  0  0  0
   -7.6484    2.6067   -2.3922 O   0  0  0  0  0  0  0  0  0  0  0  0
  1  2  2  0
  2  3  1  0
  2  4  1  0
  4  5  2  0
  5  6  1  0
  6  7  1  0
  7  8  1  0
  8  9  1  0
  9 10  2  0
 10 11  1  0
 11 12  2  0
 12 13  1  0
 13 14  1  0
 14 15  2  0
 15 16  1  0
 16 17  2  0
 17 18  1  0
 18 19  2  0
 18 20  2  0
 18 21  1  0
 21 22  1  0
 22 23  1  0
 23 24  1  0
 24 25  1  0
 25 26  1  0
 17 27  1  0
 27 28  2  0
 13 29  2  0
  6 30  2  0
 30 31  1  0
 31 32  2  0
 32 33  1  0
 32  4  1  0
 29  9  1  0
 28 14  1  0
 26 21  1  0
M  END
>  <score>  (108) 
0.393044

$$$$
HIPS6312
     RDKit          3D

 34 37  0  0  0  0  0  0  0  0999 V2000
    5.7949    0.8548   -2.4912 O   0  0  0  0  0  0  0  0  0  0  0  0
    5.9330   -0.0611   -1.6357 C   0  0  0  0  0  0  0  0  0  0  0  0
    7.1427   -0.7451   -1.5582 O   0  0  0  0  0  0  0  0  0  0  0  0
    4.8388   -0.3558   -0.6849 C   0  0  0  0  0  0  0  0  0  0  0  0
    4.0411    0.7077   -0.2243 C   0  0  0  0  0  0  0  0  0  0  0  0
    3.0391    0.5012    0.7295 C   0  0  0  0  0  0  0  0  0  0  0  0
    2.2804    1.6081    1.1443 O   0  0  0  0  0  0  0  0  0  0  0  0
    1.1388    1.5521    2.0007 C   0  0  0  0  0  0  0  0  0  0  0  0
   -0.0168    0.8825    1.3050 C   0  0  0  0  0  0  0  0  0  0  0  0
   -0.4462    1.3491    0.0540 C   0  0  0  0  0  0  0  0  0  0  0  0
   -1.5151    0.7289   -0.6098 C   0  0  0  0  0  0  0  0  0  0  0  0
   -1.9357    1.1873   -1.9492 C   0  0  0  0  0  0  0  0  0  0  0  0
   -2.1271    0.3709   -3.0464 C   0  0  0  0  0  0  0  0  0  0  0  0
   -2.4373    1.2113   -4.0949 C   0  0  0  0  0  0  0  0  0  0  0  0
   -2.4525    2.4569   -3.6781 O   0  0  0  0  0  0  0  0  0  0  0  0
   -2.1660    2.4842   -2.3961 C   0  0  0  0  0  0  0  0  0  0  0  0
   -2.1584    3.7303   -1.6135 C   0  0  0  0  0  0  0  0  0  0  0  0
   -2.1399    3.7041   -0.3543 O   0  0  0  0  0  0  0  0  0  0  0  0
   -2.2139    4.9521   -2.2760 O   0  0  0  0  0  0  0  0  0  0  0  0
   -2.1402   -0.3805   -0.0218 C   0  0  0  0  0  0  0  0  0  0  0  0
   -1.7433   -0.8346    1.2451 C   0  0  0  0  0  0  0  0  0  0  0  0
   -2.3919   -2.0107    1.8588 C   0  0  0  0  0  0  0  0  0  0  0  0
   -1.7272   -3.0935    2.3999 C   0  0  0  0  0  0  0  0  0  0  0  0
   -2.7056   -3.9896    2.7763 C   0  0  0  0  0  0  0  0  0  0  0  0
   -3.8915   -3.4952    2.5029 O   0  0  0  0  0  0  0  0  0  0  0  0
   -3.7465   -2.3069    1.9605 C   0  0  0  0  0  0  0  0  0  0  0  0
   -4.8889   -1.4573    1.5890 C   0  0  0  0  0  0  0  0  0  0  0  0
   -6.0454   -1.9551    1.5501 O   0  0  0  0  0  0  0  0  0  0  0  0
   -4.7143   -0.1030    1.3230 O   0  0  0  0  0  0  0  0  0  0  0  0
   -0.6753   -0.2040    1.8999 C   0  0  0  0  0  0  0  0  0  0  0  0
    2.8350   -0.7919    1.2397 C   0  0  0  0  0  0  0  0  0  0  0  0
    3.6048   -1.8592    0.7766 C   0  0  0  0  0  0  0  0  0  0  0  0
    4.5895   -1.6616   -0.1969 C   0  0  0  0  0  0  0  0  0  0  0  0
    5.2676   -2.7851   -0.6743 O   0  0  0  0  0  0  0  0  0  0  0  0
  1  2  2  0
  2  3  1  0
  2  4  1  0
  4  5  2  0
  5  6  1  0
  6  7  1  0
  7  8  1  0
  8  9  1  0
  9 10  2  0
 10 11  1  0
 11 12  1  0
 12 13  1  0
 13 14  2  0
 14 15  1  0
 15 16  1  0
 16 17  1  0
 17 18  2  0
 17 19  1  0
 11 20  2  0
 20 21  1  0
 21 22  1  0
 22 23  1  0
 23 24  2  0
 24 25  1  0
 25 26  1  0
 26 27  1  0
 27 28  2  0
 27 29  1  0
 21 30  2  0
  6 31  2  0
 31 32  1  0
 32 33  2  0
 33 34  1  0
 33  4  1  0
 30  9  1  0
 16 12  2  0
 26 22  2  0
M  END
>  <score>  (109) 
0.217117

$$$$
HIPS6336
     RDKit          3D

 28 30  0  0  0  0  0  0  0  0999 V2000
   -1.4472   -2.1253   -6.6533 C   0  0  0  0  0  0  0  0  0  0  0  0
   -1.2656   -1.9219   -5.1503 C   0  0  0  0  0  0  0  0  0  0  0  0
   -1.6262   -3.2056   -4.3953 C   0  0  0  0  0  0  0  0  0  0  0  0
    0.0956   -1.5644   -4.8981 O   0  0  0  0  0  0  0  0  0  0  0  0
    0.5900   -0.9916   -3.7151 C   0  0  0  0  0  0  0  0  0  0  0  0
   -0.2444   -0.5944   -2.6552 C   0  0  0  0  0  0  0  0  0  0  0  0
    0.3190   -0.0297   -1.5102 C   0  0  0  0  0  0  0  0  0  0  0  0
    1.7087    0.1440   -1.4147 C   0  0  0  0  0  0  0  0  0  0  0  0
    2.3199    0.7418   -0.2003 C   0  0  0  0  0  0  0  0  0  0  0  0
    3.5198    0.2278    0.3231 C   0  0  0  0  0  0  0  0  0  0  0  0
    4.0895    0.7883    1.4686 C   0  0  0  0  0  0  0  0  0  0  0  0
    3.4689    1.8624    2.1088 C   0  0  0  0  0  0  0  0  0  0  0  0
    2.2650    2.3817    1.6103 C   0  0  0  0  0  0  0  0  0  0  0  0
    1.5977    3.5481    2.2915 C   0  0  0  0  0  0  0  0  0  0  0  0
    0.1975    3.3139    2.4495 O   0  0  0  0  0  0  0  0  0  0  0  0
   -0.3730    2.3494    3.2961 C   0  0  0  0  0  0  0  0  0  0  0  0
    0.3908    1.5772    4.1873 C   0  0  0  0  0  0  0  0  0  0  0  0
   -0.2286    0.6338    5.0075 C   0  0  0  0  0  0  0  0  0  0  0  0
   -1.6138    0.4449    4.9611 C   0  0  0  0  0  0  0  0  0  0  0  0
   -2.1779   -0.4587    5.8640 O   0  0  0  0  0  0  0  0  0  0  0  0
   -2.3913    1.1904    4.0419 C   0  0  0  0  0  0  0  0  0  0  0  0
   -3.8432    0.9669    3.8683 C   0  0  0  0  0  0  0  0  0  0  0  0
   -4.5981    1.9314    3.5691 O   0  0  0  0  0  0  0  0  0  0  0  0
   -4.3805   -0.3130    3.9714 O   0  0  0  0  0  0  0  0  0  0  0  0
   -1.7565    2.1533    3.2362 C   0  0  0  0  0  0  0  0  0  0  0  0
    1.7043    1.8286    0.4476 C   0  0  0  0  0  0  0  0  0  0  0  0
    2.5045   -0.2634   -2.4973 C   0  0  0  0  0  0  0  0  0  0  0  0
    1.9327   -0.8097   -3.6027 N   0  0  0  0  0  0  0  0  0  0  0  0
  1  2  1  0
  2  3  1  0
  2  4  1  0
  4  5  1  0
  5  6  2  0
  6  7  1  0
  7  8  2  0
  8  9  1  0
  9 10  2  0
 10 11  1  0
 11 12  2  0
 12 13  1  0
 13 14  1  0
 14 15  1  0
 15 16  1  0
 16 17  2  0
 17 18  1  0
 18 19  2  0
 19 20  1  0
 19 21  1  0
 21 22  1  0
 22 23  2  0
 22 24  1  0
 21 25  2  0
 13 26  2  0
  8 27  1  0
 27 28  2  0
 28  5  1  0
 26  9  1  0
 25 16  1  0
M  END
>  <score>  (110) 
-0.258887

$$$$
HIPS6385
     RDKit          3D

 46 49  0  0  0  0  0  0  0  0999 V2000
    8.1576   -5.3382    0.8739 C   0  0  0  0  0  0  0  0  0  0  0  0
    8.0555   -3.8902    0.4420 C   0  0  0  0  0  0  0  0  0  0  0  0
    7.5935   -3.0559    1.5939 C   0  0  0  0  0  0  0  0  0  0  0  0
    9.4588   -3.4514    0.0553 C   0  0  0  0  0  0  0  0  0  0  0  0
    7.1943   -3.8271   -0.6660 O   0  0  0  0  0  0  0  0  0  0  0  0
    6.8589   -2.6589   -1.3364 C   0  0  0  0  0  0  0  0  0  0  0  0
    7.3478   -1.5979   -0.9352 O   0  0  0  0  0  0  0  0  0  0  0  0
    5.9835   -2.6412   -2.4550 N   0  0  0  0  0  0  0  0  0  0  0  0
    5.6492   -1.4301   -3.1340 C   0  0  0  0  0  0  0  0  0  0  0  0
    4.9784   -0.4271   -2.2595 C   0  0  0  0  0  0  0  0  0  0  0  0
    3.7084   -0.1992   -1.9722 C   0  0  0  0  0  0  0  0  0  0  0  0
    3.3447    0.8024   -1.1264 C   0  0  0  0  0  0  0  0  0  0  0  0
    1.9449    1.1247   -0.7388 C   0  0  0  0  0  0  0  0  0  0  0  0
    1.6284    2.4321   -0.4639 C   0  0  0  0  0  0  0  0  0  0  0  0
    0.3485    2.7709   -0.1038 C   0  0  0  0  0  0  0  0  0  0  0  0
   -0.0155    4.1513    0.1911 C   0  0  0  0  0  0  0  0  0  0  0  0
   -0.4407    4.7459   -1.0349 O   0  0  0  0  0  0  0  0  0  0  0  0
   -0.8518    6.0514   -1.1016 C   0  0  0  0  0  0  0  0  0  0  0  0
   -1.2477    6.5515   -2.3204 C   0  0  0  0  0  0  0  0  0  0  0  0
   -1.6596    7.8502   -2.4028 C   0  0  0  0  0  0  0  0  0  0  0  0
   -1.6651    8.6211   -1.2560 C   0  0  0  0  0  0  0  0  0  0  0  0
   -2.0791    9.9412   -1.3156 O   0  0  0  0  0  0  0  0  0  0  0  0
   -1.2635    8.1117   -0.0231 C   0  0  0  0  0  0  0  0  0  0  0  0
   -1.2723    8.9239    1.1721 C   0  0  0  0  0  0  0  0  0  0  0  0
   -0.9040    8.4343    2.2661 O   0  0  0  0  0  0  0  0  0  0  0  0
   -1.6994   10.2505    1.0611 O   0  0  0  0  0  0  0  0  0  0  0  0
   -0.8496    6.8050    0.0570 C   0  0  0  0  0  0  0  0  0  0  0  0
   -0.5946    1.7747   -0.0274 C   0  0  0  0  0  0  0  0  0  0  0  0
   -0.3184    0.4534   -0.2947 C   0  0  0  0  0  0  0  0  0  0  0  0
   -1.3399   -0.6295   -0.2127 C   0  0  0  0  0  0  0  0  0  0  0  0
   -2.5573   -0.3896    0.1140 C   0  0  0  0  0  0  0  0  0  0  0  0
   -3.5151   -1.5013    0.1764 C   0  0  1  0  0  0  0  0  0  0  0  0
   -4.6263   -1.2995   -0.8413 C   0  0  0  0  0  0  0  0  0  0  0  0
   -5.5526   -2.4012   -0.7615 N   0  0  0  0  0  0  0  0  0  0  0  0
   -6.2808   -2.6992    0.4158 C   0  0  0  0  0  0  0  0  0  0  0  0
   -6.1639   -2.0189    1.4606 O   0  0  0  0  0  0  0  0  0  0  0  0
   -7.1532   -3.7746    0.4246 O   0  0  0  0  0  0  0  0  0  0  0  0
   -7.9227   -4.1621    1.5262 C   0  0  0  0  0  0  0  0  0  0  0  0
   -7.0882   -4.5262    2.7351 C   0  0  0  0  0  0  0  0  0  0  0  0
   -8.8949   -3.0524    1.9392 C   0  0  0  0  0  0  0  0  0  0  0  0
   -8.7655   -5.3516    1.1619 C   0  0  0  0  0  0  0  0  0  0  0  0
   -2.4164   -2.9229   -0.2972 S   0  0  0  0  0  4  0  0  0  0  0  0
   -0.9720   -1.9936   -0.5038 C   0  0  0  0  0  0  0  0  0  0  0  0
    0.9760    0.1526   -0.6526 C   0  0  0  0  0  0  0  0  0  0  0  0
    4.3672    1.5458   -0.6019 C   0  0  0  0  0  0  0  0  0  0  0  0
    5.8830    0.8121   -1.3210 S   0  0  0  0  0  0  0  0  0  0  0  0
  1  2  1  0
  2  3  1  0
  2  4  1  0
  2  5  1  0
  5  6  1  0
  6  7  2  0
  6  8  1  0
  8  9  1  0
  9 10  1  0
 10 11  2  0
 11 12  1  0
 12 13  1  0
 13 14  2  0
 14 15  1  0
 15 16  1  0
 16 17  1  0
 17 18  1  0
 18 19  2  0
 19 20  1  0
 20 21  2  0
 21 22  1  0
 21 23  1  0
 23 24  1  0
 24 25  2  0
 24 26  1  0
 23 27  2  0
 15 28  2  0
 28 29  1  0
 29 30  1  0
 30 31  2  0
 31 32  1  0
 32 33  1  6
 33 34  1  0
 34 35  1  0
 35 36  2  0
 35 37  1  0
 37 38  1  0
 38 39  1  0
 38 40  1  0
 38 41  1  0
 32 42  1  0
 42 43  2  0
 29 44  2  0
 12 45  2  0
 45 46  1  0
 46 10  1  0
 44 13  1  0
 27 18  1  0
 43 30  1  0
M  END
>  <score>  (111) 
-0.976363

$$$$
HIPS6415
     RDKit          3D

 38 41  0  0  0  0  0  0  0  0999 V2000
    3.6925    4.2582    5.4966 C   0  0  0  0  0  0  0  0  0  0  0  0
    3.3351    5.2980    4.4297 C   0  0  0  0  0  0  0  0  0  0  0  0
    3.9477    6.6527    4.7802 C   0  0  0  0  0  0  0  0  0  0  0  0
    3.8251    4.8855    3.1535 O   0  0  0  0  0  0  0  0  0  0  0  0
    3.2335    3.8791    2.3815 C   0  0  0  0  0  0  0  0  0  0  0  0
    3.8277    3.5030    1.1755 C   0  0  0  0  0  0  0  0  0  0  0  0
    3.2448    2.4947    0.4062 C   0  0  0  0  0  0  0  0  0  0  0  0
    2.0654    1.8667    0.8397 C   0  0  0  0  0  0  0  0  0  0  0  0
    1.4392    0.7812    0.0423 C   0  0  0  0  0  0  0  0  0  0  0  0
    2.2345   -0.2006   -0.5718 C   0  0  0  0  0  0  0  0  0  0  0  0
    1.6462   -1.2467   -1.2971 C   0  0  0  0  0  0  0  0  0  0  0  0
    2.4955   -2.3222   -1.9220 C   0  0  0  0  0  0  0  0  0  0  0  0
    2.1668   -3.6001   -1.3744 O   0  0  0  0  0  0  0  0  0  0  0  0
    2.4566   -4.0215   -0.0655 C   0  0  0  0  0  0  0  0  0  0  0  0
    3.2900   -3.2917    0.7989 C   0  0  0  0  0  0  0  0  0  0  0  0
    3.5353   -3.7507    2.0931 C   0  0  0  0  0  0  0  0  0  0  0  0
    2.9598   -4.9448    2.5466 C   0  0  0  0  0  0  0  0  0  0  0  0
    3.2245   -5.3806    3.8449 O   0  0  0  0  0  0  0  0  0  0  0  0
    2.1253   -5.6953    1.6871 C   0  0  0  0  0  0  0  0  0  0  0  0
    1.4923   -6.9677    2.1204 C   0  0  0  0  0  0  0  0  0  0  0  0
    1.6120   -7.3805    3.3054 O   0  0  0  0  0  0  0  0  0  0  0  0
    0.7499   -7.7225    1.2146 O   0  0  0  0  0  0  0  0  0  0  0  0
    1.8888   -5.2195    0.3832 C   0  0  0  0  0  0  0  0  0  0  0  0
    0.2517   -1.2993   -1.4266 C   0  0  0  0  0  0  0  0  0  0  0  0
   -0.5621   -0.3190   -0.8340 C   0  0  0  0  0  0  0  0  0  0  0  0
   -2.0393   -0.3741   -0.9865 C   0  0  0  0  0  0  0  0  0  0  0  0
   -2.6234   -0.7460   -2.2075 C   0  0  0  0  0  0  0  0  0  0  0  0
   -4.0116   -0.7917   -2.3419 C   0  0  0  0  0  0  0  0  0  0  0  0
   -4.8253   -0.4655   -1.2430 C   0  0  0  0  0  0  0  0  0  0  0  0
   -6.2283   -0.4839   -1.3041 O   0  0  0  0  0  0  0  0  0  0  0  0
   -7.0127   -0.9200   -2.4177 C   0  0  0  0  0  0  0  0  0  0  0  0
   -7.0056   -2.4501   -2.5066 C   0  0  0  0  0  0  0  0  0  0  0  0
   -8.4412   -0.4084   -2.2408 C   0  0  0  0  0  0  0  0  0  0  0  0
   -4.2385   -0.1065   -0.0702 N   0  0  0  0  0  0  0  0  0  0  0  0
   -2.8892   -0.0524    0.0840 C   0  0  0  0  0  0  0  0  0  0  0  0
    0.0421    0.7154   -0.0978 C   0  0  0  0  0  0  0  0  0  0  0  0
    1.4975    2.2846    2.0557 C   0  0  0  0  0  0  0  0  0  0  0  0
    2.0880    3.2655    2.7881 N   0  0  0  0  0  0  0  0  0  0  0  0
  1  2  1  0
  2  3  1  0
  2  4  1  0
  4  5  1  0
  5  6  2  0
  6  7  1  0
  7  8  2  0
  8  9  1  0
  9 10  2  0
 10 11  1  0
 11 12  1  0
 12 13  1  0
 13 14  1  0
 14 15  2  0
 15 16  1  0
 16 17  2  0
 17 18  1  0
 17 19  1  0
 19 20  1  0
 20 21  2  0
 20 22  1  0
 19 23  2  0
 11 24  2  0
 24 25  1  0
 25 26  1  0
 26 27  2  0
 27 28  1  0
 28 29  2  0
 29 30  1  0
 30 31  1  0
 31 32  1  0
 31 33  1  0
 29 34  1  0
 34 35  2  0
 25 36  2  0
  8 37  1  0
 37 38  2  0
 38  5  1  0
 36  9  1  0
 23 14  1  0
 35 26  1  0
M  END
>  <score>  (112) 
-0.063073

$$$$
HIPS643
     RDKit          3D

 25 26  0  0  0  0  0  0  0  0999 V2000
   -5.6892   -4.1392   -0.8423 C   0  0  0  0  0  0  0  0  0  0  0  0
   -4.3932   -4.6547   -0.5557 O   0  0  0  0  0  0  0  0  0  0  0  0
   -3.2460   -3.8648   -0.3888 C   0  0  0  0  0  0  0  0  0  0  0  0
   -2.0340   -4.5031   -0.1096 C   0  0  0  0  0  0  0  0  0  0  0  0
   -0.8624   -3.7615    0.0652 C   0  0  0  0  0  0  0  0  0  0  0  0
   -0.8798   -2.3588   -0.0401 C   0  0  0  0  0  0  0  0  0  0  0  0
    0.3692   -1.5770    0.1476 C   0  0  0  0  0  0  0  0  0  0  0  0
    0.5739   -0.2370   -0.1836 C   0  0  0  0  0  0  0  0  0  0  0  0
    1.8701    0.2276    0.1069 C   0  0  0  0  0  0  0  0  0  0  0  0
    2.3153    1.5531   -0.2231 N   0  0  0  0  0  0  0  0  0  0  0  0
    1.4722    2.7107   -0.1377 C   0  0  0  0  0  0  0  0  0  0  0  0
    0.3680    2.6497    0.4691 O   0  0  0  0  0  0  0  0  0  0  0  0
    1.9076    3.9496   -0.7136 N   0  0  0  0  0  0  0  0  0  0  0  0
    1.0778    5.1511   -0.7209 C   0  0  0  0  0  0  0  0  0  0  0  0
   -0.1869    5.0405   -2.0257 P   0  0  0  0  0  5  0  0  0  0  0  0
   -1.1359    3.8999   -1.7340 O   0  0  0  0  0  0  0  0  0  0  0  0
    0.5613    4.7867   -3.5227 O   0  0  0  0  0  0  0  0  0  0  0  0
   -1.0554    6.4915   -2.0739 O   0  0  0  0  0  0  0  0  0  0  0  0
    2.7018   -0.7537    0.6561 C   0  0  0  0  0  0  0  0  0  0  0  0
    4.0967   -0.6157    1.1083 C   0  0  0  0  0  0  0  0  0  0  0  0
    4.6579    0.5114    1.1389 O   0  0  0  0  0  0  0  0  0  0  0  0
    4.7971   -1.7423    1.5286 O   0  0  0  0  0  0  0  0  0  0  0  0
    1.8116   -2.1735    0.7850 S   0  0  0  0  0  0  0  0  0  0  0  0
   -2.1022   -1.7184   -0.3171 C   0  0  0  0  0  0  0  0  0  0  0  0
   -3.2731   -2.4624   -0.4908 C   0  0  0  0  0  0  0  0  0  0  0  0
  1  2  1  0
  2  3  1  0
  3  4  2  0
  4  5  1  0
  5  6  2  0
  6  7  1  0
  7  8  2  0
  8  9  1  0
  9 10  1  0
 10 11  1  0
 11 12  2  0
 11 13  1  0
 13 14  1  0
 14 15  1  0
 15 16  2  0
 15 17  1  0
 15 18  1  0
  9 19  2  0
 19 20  1  0
 20 21  2  0
 20 22  1  0
 19 23  1  0
  6 24  1  0
 24 25  2  0
 25  3  1  0
 23  7  1  0
M  END
>  <score>  (113) 
0.601462

$$$$
HIPS6457
     RDKit          3D

 31 34  0  0  0  0  0  0  0  0999 V2000
   -5.6083    1.2732    4.9128 O   0  0  0  0  0  0  0  0  0  0  0  0
   -4.6876    1.4539    4.0905 C   0  0  0  0  0  0  0  0  0  0  0  0
   -3.5482    2.1409    4.4585 O   0  0  0  0  0  0  0  0  0  0  0  0
   -4.7984    0.9459    2.7356 C   0  0  0  0  0  0  0  0  0  0  0  0
   -3.7700    1.1477    1.8155 C   0  0  0  0  0  0  0  0  0  0  0  0
   -3.8345    0.6824    0.5191 C   0  0  0  0  0  0  0  0  0  0  0  0
   -2.7714    0.9240   -0.3331 O   0  0  0  0  0  0  0  0  0  0  0  0
   -2.7228    0.5017   -1.6678 C   0  0  0  0  0  0  0  0  0  0  0  0
   -1.4236    0.9522   -2.2469 C   0  0  0  0  0  0  0  0  0  0  0  0
   -1.3249    2.1999   -2.8677 C   0  0  0  0  0  0  0  0  0  0  0  0
   -0.1457    2.6444   -3.4101 C   0  0  0  0  0  0  0  0  0  0  0  0
    0.9797    1.8392   -3.3433 C   0  0  0  0  0  0  0  0  0  0  0  0
    0.9173    0.5993   -2.7364 C   0  0  0  0  0  0  0  0  0  0  0  0
    2.1167   -0.2296   -2.6783 C   0  0  0  0  0  0  0  0  0  0  0  0
    3.0276   -0.1357   -3.7102 C   0  0  0  0  0  0  0  0  0  0  0  0
    4.1675   -0.9034   -3.6837 C   0  0  0  0  0  0  0  0  0  0  0  0
    4.4084   -1.7664   -2.6350 C   0  0  0  0  0  0  0  0  0  0  0  0
    3.5203   -1.8748   -1.6038 C   0  0  0  0  0  0  0  0  0  0  0  0
    3.7397   -2.9345   -0.2410 S   0  0  0  0  0  6  0  0  0  0  0  0
    2.3868   -3.4453    0.1659 O   0  0  0  0  0  0  0  0  0  0  0  0
    4.5285   -4.1396   -0.7163 O   0  0  0  0  0  0  0  0  0  0  0  0
    4.5684   -2.2114    1.0529 N   0  0  0  0  0  0  0  0  0  0  0  0
    3.9072   -1.0762    1.6160 C   0  0  0  0  0  0  0  0  0  0  0  0
    4.8938    0.0602    2.0323 C   0  0  0  0  0  0  0  0  0  0  0  0
    4.1615   -0.7124    3.0581 C   0  0  0  0  0  0  0  0  0  0  0  0
    2.3787   -1.1014   -1.6372 C   0  0  0  0  0  0  0  0  0  0  0  0
   -0.2912    0.1718   -2.1939 C   0  0  0  0  0  0  0  0  0  0  0  0
   -4.9731   -0.0023    0.1576 C   0  0  0  0  0  0  0  0  0  0  0  0
   -5.9994   -0.2081    1.0622 C   0  0  0  0  0  0  0  0  0  0  0  0
   -5.9323    0.2580    2.3573 C   0  0  0  0  0  0  0  0  0  0  0  0
   -6.9825    0.0341    3.2435 O   0  0  0  0  0  0  0  0  0  0  0  0
  1  2  2  0
  2  3  1  0
  2  4  1  0
  4  5  2  0
  5  6  1  0
  6  7  1  0
  7  8  1  0
  8  9  1  0
  9 10  2  0
 10 11  1  0
 11 12  2  0
 12 13  1  0
 13 14  1  0
 14 15  2  0
 15 16  1  0
 16 17  2  0
 17 18  1  0
 18 19  1  0
 19 20  2  0
 19 21  2  0
 19 22  1  0
 22 23  1  0
 23 24  1  0
 24 25  1  0
 18 26  2  0
 13 27  2  0
  6 28  2  0
 28 29  1  0
 29 30  2  0
 30 31  1  0
 30  4  1  0
 27  9  1  0
 26 14  1  0
 25 23  1  0
M  END
>  <score>  (114) 
-0.261525

$$$$
HIPS6458
     RDKit          3D

 40 43  0  0  0  0  0  0  0  0999 V2000
    6.5770   -6.0040    0.6489 C   0  0  0  0  0  0  0  0  0  0  0  0
    5.8563   -4.8500   -0.0466 C   0  0  0  0  0  0  0  0  0  0  0  0
    4.6418   -5.3788   -0.8252 C   0  0  0  0  0  0  0  0  0  0  0  0
    5.4581   -3.8996    0.9497 O   0  0  0  0  0  0  0  0  0  0  0  0
    4.6195   -2.7887    0.7552 C   0  0  0  0  0  0  0  0  0  0  0  0
    3.6639   -2.5577    1.6953 N   0  0  0  0  0  0  0  0  0  0  0  0
    2.7846   -1.5266    1.6109 C   0  0  0  0  0  0  0  0  0  0  0  0
    2.8375   -0.6381    0.5276 C   0  0  0  0  0  0  0  0  0  0  0  0
    1.8796    0.4932    0.4239 C   0  0  0  0  0  0  0  0  0  0  0  0
    2.3112    1.7557   -0.0191 C   0  0  0  0  0  0  0  0  0  0  0  0
    1.4089    2.8228   -0.1280 C   0  0  0  0  0  0  0  0  0  0  0  0
    1.8884    4.1631   -0.6207 C   0  0  0  0  0  0  0  0  0  0  0  0
    2.4299    4.0479   -1.9376 O   0  0  0  0  0  0  0  0  0  0  0  0
    1.6915    3.7723   -3.1007 C   0  0  0  0  0  0  0  0  0  0  0  0
    2.3938    3.4977   -4.2758 C   0  0  0  0  0  0  0  0  0  0  0  0
    1.7126    3.1901   -5.4534 C   0  0  0  0  0  0  0  0  0  0  0  0
    0.3142    3.1552   -5.4809 C   0  0  0  0  0  0  0  0  0  0  0  0
   -0.3046    2.7587   -6.6686 O   0  0  0  0  0  0  0  0  0  0  0  0
   -0.4167    3.4825   -4.3132 C   0  0  0  0  0  0  0  0  0  0  0  0
   -1.8939    3.5692   -4.3046 C   0  0  0  0  0  0  0  0  0  0  0  0
   -2.5383    3.2498   -3.2692 O   0  0  0  0  0  0  0  0  0  0  0  0
   -2.5810    4.0566   -5.4122 O   0  0  0  0  0  0  0  0  0  0  0  0
    0.2840    3.7706   -3.1270 C   0  0  0  0  0  0  0  0  0  0  0  0
    0.0648    2.6297    0.2192 C   0  0  0  0  0  0  0  0  0  0  0  0
   -0.3892    1.3745    0.6547 C   0  0  0  0  0  0  0  0  0  0  0  0
   -1.8221    1.1688    0.9797 C   0  0  0  0  0  0  0  0  0  0  0  0
   -2.2090    0.4210    2.1036 C   0  0  0  0  0  0  0  0  0  0  0  0
   -3.5262    0.2473    2.3912 N   0  0  0  0  0  0  0  0  0  0  0  0
   -4.5125    0.7734    1.6131 C   0  0  0  0  0  0  0  0  0  0  0  0
   -5.8620    0.5794    1.9360 O   0  0  0  0  0  0  0  0  0  0  0  0
   -6.3108   -0.2214    3.0298 C   0  0  0  0  0  0  0  0  0  0  0  0
   -6.1852   -1.7082    2.6823 C   0  0  0  0  0  0  0  0  0  0  0  0
   -7.7643    0.1340    3.3368 C   0  0  0  0  0  0  0  0  0  0  0  0
   -4.1731    1.5224    0.4815 C   0  0  0  0  0  0  0  0  0  0  0  0
   -5.4186    2.2099   -0.5485 Cl  0  0  0  0  0  0  0  0  0  0  0  0
   -2.8265    1.7192    0.1682 C   0  0  0  0  0  0  0  0  0  0  0  0
    0.5256    0.3130    0.7585 C   0  0  0  0  0  0  0  0  0  0  0  0
    3.8287   -0.8370   -0.4451 C   0  0  0  0  0  0  0  0  0  0  0  0
    4.7319   -1.8999   -0.3394 C   0  0  0  0  0  0  0  0  0  0  0  0
    6.0154   -1.9895   -1.5373 Cl  0  0  0  0  0  0  0  0  0  0  0  0
  1  2  1  0
  2  3  1  0
  2  4  1  0
  4  5  1  0
  5  6  2  0
  6  7  1  0
  7  8  2  0
  8  9  1  0
  9 10  2  0
 10 11  1  0
 11 12  1  0
 12 13  1  0
 13 14  1  0
 14 15  2  0
 15 16  1  0
 16 17  2  0
 17 18  1  0
 17 19  1  0
 19 20  1  0
 20 21  2  0
 20 22  1  0
 19 23  2  0
 11 24  2  0
 24 25  1  0
 25 26  1  0
 26 27  2  0
 27 28  1  0
 28 29  2  0
 29 30  1  0
 30 31  1  0
 31 32  1  0
 31 33  1  0
 29 34  1  0
 34 35  1  0
 34 36  2  0
 25 37  2  0
  8 38  1  0
 38 39  2  0
 39 40  1  0
 39  5  1  0
 37  9  1  0
 23 14  1  0
 36 26  1  0
M  END
>  <score>  (115) 
-0.954894

$$$$
HIPS6459
     RDKit          3D

 25 27  0  0  0  0  0  0  0  0999 V2000
    3.7616    0.4926    0.8488 O   0  0  0  0  0  0  0  0  0  0  0  0
    2.8315    0.4954   -0.0017 C   0  0  0  0  0  0  0  0  0  0  0  0
    2.5860   -0.6611   -0.7372 O   0  0  0  0  0  0  0  0  0  0  0  0
    2.0055    1.7087   -0.2248 C   0  0  0  0  0  0  0  0  0  0  0  0
    0.8714    1.6254   -1.0546 C   0  0  0  0  0  0  0  0  0  0  0  0
    0.0659    2.7510   -1.2887 C   0  0  0  0  0  0  0  0  0  0  0  0
   -1.1036    2.6757   -2.1863 C   0  0  0  0  0  0  0  0  0  0  0  0
   -2.0600    1.8031   -2.0536 N   0  0  0  0  0  0  0  0  0  0  0  0
   -2.1510    0.8786   -0.9980 N   0  0  0  0  0  0  0  0  0  0  0  0
   -3.2021   -0.0919   -0.9856 C   0  0  0  0  0  0  0  0  0  0  0  0
   -4.0439   -0.1168   -1.9239 O   0  0  0  0  0  0  0  0  0  0  0  0
   -3.3555   -1.0204    0.1552 C   0  0  0  0  0  0  0  0  0  0  0  0
   -4.6025   -1.0684    0.7991 C   0  0  0  0  0  0  0  0  0  0  0  0
   -4.7942   -1.8676    1.9256 C   0  0  0  0  0  0  0  0  0  0  0  0
   -3.7475   -2.6385    2.4268 C   0  0  0  0  0  0  0  0  0  0  0  0
   -2.4993   -2.6347    1.7895 C   0  0  0  0  0  0  0  0  0  0  0  0
   -1.4579   -3.4355    2.2846 C   0  0  0  0  0  0  0  0  0  0  0  0
   -0.2247   -3.4674    1.6333 C   0  0  0  0  0  0  0  0  0  0  0  0
   -0.0228   -2.7114    0.4794 C   0  0  0  0  0  0  0  0  0  0  0  0
   -1.0448   -1.9016   -0.0221 C   0  0  0  0  0  0  0  0  0  0  0  0
   -2.2928   -1.8321    0.6340 C   0  0  0  0  0  0  0  0  0  0  0  0
    0.4221    3.9815   -0.7284 C   0  0  0  0  0  0  0  0  0  0  0  0
    1.5399    4.0791    0.1002 C   0  0  0  0  0  0  0  0  0  0  0  0
    2.3337    2.9533    0.3608 C   0  0  0  0  0  0  0  0  0  0  0  0
    3.4491    3.0803    1.1890 O   0  0  0  0  0  0  0  0  0  0  0  0
  1  2  2  0
  2  3  1  0
  2  4  1  0
  4  5  2  0
  5  6  1  0
  6  7  1  0
  7  8  2  0
  8  9  1  0
  9 10  1  0
 10 11  2  0
 10 12  1  0
 12 13  2  0
 13 14  1  0
 14 15  2  0
 15 16  1  0
 16 17  2  0
 17 18  1  0
 18 19  2  0
 19 20  1  0
 20 21  2  0
  6 22  2  0
 22 23  1  0
 23 24  2  0
 24 25  1  0
 24  4  1  0
 21 12  1  0
 21 16  1  0
M  END
>  <score>  (116) 
0.863171

$$$$
HIPS6546
     RDKit          3D

 33 35  0  0  0  0  0  0  0  0999 V2000
   -5.5509   -1.5439   -0.9457 C   0  0  0  0  0  0  0  0  0  0  0  0
   -5.1478   -0.8632   -2.2683 C   0  0  0  0  0  0  0  0  0  0  0  0
   -4.7428   -1.9470   -3.2877 C   0  0  0  0  0  0  0  0  0  0  0  0
   -6.3522   -0.0695   -2.8156 C   0  0  0  0  0  0  0  0  0  0  0  0
   -3.9632    0.0967   -2.0023 C   0  0  0  0  0  0  0  0  0  0  0  0
   -3.5000    0.6517   -3.2120 O   0  0  0  0  0  0  0  0  0  0  0  0
   -2.4395    1.9363   -2.8822 S   0  0  0  0  0  6  0  0  0  0  0  0
   -1.3507    1.9361   -3.9197 O   0  0  0  0  0  0  0  0  0  0  0  0
   -3.2052    3.2257   -3.0014 O   0  0  0  0  0  0  0  0  0  0  0  0
   -1.6769    1.8476   -1.2888 C   0  0  0  0  0  0  0  0  0  0  0  0
   -0.7544    0.8314   -1.0093 C   0  0  0  0  0  0  0  0  0  0  0  0
   -0.1460    0.7566    0.2478 C   0  0  0  0  0  0  0  0  0  0  0  0
   -0.4369    1.7140    1.2347 C   0  0  0  0  0  0  0  0  0  0  0  0
    0.2270    1.6549    2.5556 C   0  0  0  0  0  0  0  0  0  0  0  0
    0.7888    2.8125    3.1192 C   0  0  0  0  0  0  0  0  0  0  0  0
    1.4267    2.7545    4.3604 C   0  0  0  0  0  0  0  0  0  0  0  0
    1.5059    1.5441    5.0517 C   0  0  0  0  0  0  0  0  0  0  0  0
    0.9458    0.3796    4.5063 C   0  0  0  0  0  0  0  0  0  0  0  0
    1.0229   -0.9145    5.2696 C   0  0  0  0  0  0  0  0  0  0  0  0
    2.3842   -1.2712    5.5130 O   0  0  0  0  0  0  0  0  0  0  0  0
    3.2883   -1.7301    4.5385 C   0  0  0  0  0  0  0  0  0  0  0  0
    4.6258   -1.8933    4.9067 C   0  0  0  0  0  0  0  0  0  0  0  0
    5.5610   -2.3668    3.9863 C   0  0  0  0  0  0  0  0  0  0  0  0
    5.1743   -2.6861    2.6763 C   0  0  0  0  0  0  0  0  0  0  0  0
    6.1263   -3.1772    1.7828 O   0  0  0  0  0  0  0  0  0  0  0  0
    3.8301   -2.5111    2.2775 C   0  0  0  0  0  0  0  0  0  0  0  0
    3.3786   -2.8293    0.8972 C   0  0  0  0  0  0  0  0  0  0  0  0
    2.1768   -2.6428    0.5626 O   0  0  0  0  0  0  0  0  0  0  0  0
    4.2635   -3.3455   -0.0423 O   0  0  0  0  0  0  0  0  0  0  0  0
    2.8963   -2.0376    3.2214 C   0  0  0  0  0  0  0  0  0  0  0  0
    0.3064    0.4408    3.2580 C   0  0  0  0  0  0  0  0  0  0  0  0
   -1.3592    2.7339    0.9477 C   0  0  0  0  0  0  0  0  0  0  0  0
   -1.9803    2.7961   -0.3024 C   0  0  0  0  0  0  0  0  0  0  0  0
  1  2  1  0
  2  3  1  0
  2  4  1  0
  2  5  1  0
  5  6  1  0
  6  7  1  0
  7  8  2  0
  7  9  2  0
  7 10  1  0
 10 11  2  0
 11 12  1  0
 12 13  2  0
 13 14  1  0
 14 15  2  0
 15 16  1  0
 16 17  2  0
 17 18  1  0
 18 19  1  0
 19 20  1  0
 20 21  1  0
 21 22  2  0
 22 23  1  0
 23 24  2  0
 24 25  1  0
 24 26  1  0
 26 27  1  0
 27 28  2  0
 27 29  1  0
 26 30  2  0
 18 31  2  0
 13 32  1  0
 32 33  2  0
 33 10  1  0
 31 14  1  0
 30 21  1  0
M  END
>  <score>  (117) 
-0.51205

$$$$
HIPS6547
     RDKit          3D

 33 35  0  0  0  0  0  0  0  0999 V2000
   -1.0988    3.1671    1.5997 C   0  0  0  0  0  0  0  0  0  0  0  0
   -0.8871    1.7960    2.1874 C   0  0  0  0  0  0  0  0  0  0  0  0
   -1.7515    1.3525    3.2021 C   0  0  0  0  0  0  0  0  0  0  0  0
   -1.6283    0.0667    3.7305 C   0  0  0  0  0  0  0  0  0  0  0  0
   -0.6300   -0.7935    3.2614 C   0  0  0  0  0  0  0  0  0  0  0  0
   -0.5118   -2.4464    3.8535 S   0  0  0  0  0  6  0  0  0  0  0  0
    0.8652   -2.6283    4.4271 O   0  0  0  0  0  0  0  0  0  0  0  0
   -1.5036   -2.6832    4.9584 O   0  0  0  0  0  0  0  0  0  0  0  0
   -0.7391   -3.6255    2.5812 N   0  0  0  0  0  0  0  0  0  0  0  0
   -2.0032   -3.5634    1.8034 C   0  0  0  0  0  0  0  0  0  0  0  0
   -2.0071   -2.3906    0.7948 C   0  0  0  0  0  0  0  0  0  0  0  0
   -3.2451   -3.4739    2.7158 C   0  0  0  0  0  0  0  0  0  0  0  0
   -2.0995   -4.8788    1.0056 C   0  0  0  0  0  0  0  0  0  0  0  0
    0.2665   -0.3474    2.2854 C   0  0  0  0  0  0  0  0  0  0  0  0
    0.1544    0.9429    1.7429 C   0  0  0  0  0  0  0  0  0  0  0  0
    1.0931    1.3426    0.6706 C   0  0  0  0  0  0  0  0  0  0  0  0
    1.9123    2.4730    0.8155 C   0  0  0  0  0  0  0  0  0  0  0  0
    2.7656    2.8599   -0.2208 C   0  0  0  0  0  0  0  0  0  0  0  0
    2.8061    2.1248   -1.4084 C   0  0  0  0  0  0  0  0  0  0  0  0
    2.0056    0.9826   -1.5609 C   0  0  0  0  0  0  0  0  0  0  0  0
    2.0167    0.2263   -2.8629 C   0  0  0  0  0  0  0  0  0  0  0  0
    1.5052    1.0434   -3.9174 O   0  0  0  0  0  0  0  0  0  0  0  0
    0.1732    1.4745   -4.0388 C   0  0  0  0  0  0  0  0  0  0  0  0
   -0.1116    2.4866   -4.9576 C   0  0  0  0  0  0  0  0  0  0  0  0
   -1.4141    2.9641   -5.1048 C   0  0  0  0  0  0  0  0  0  0  0  0
   -2.4590    2.4359   -4.3391 C   0  0  0  0  0  0  0  0  0  0  0  0
   -3.7497    2.9095   -4.5838 O   0  0  0  0  0  0  0  0  0  0  0  0
   -2.1855    1.4274   -3.3833 C   0  0  0  0  0  0  0  0  0  0  0  0
   -3.2218    0.9015   -2.4668 C   0  0  0  0  0  0  0  0  0  0  0  0
   -3.1785   -0.3007   -2.0887 O   0  0  0  0  0  0  0  0  0  0  0  0
   -4.2113    1.7396   -1.9611 O   0  0  0  0  0  0  0  0  0  0  0  0
   -0.8736    0.9333   -3.2699 C   0  0  0  0  0  0  0  0  0  0  0  0
    1.1658    0.5852   -0.5086 C   0  0  0  0  0  0  0  0  0  0  0  0
  1  2  1  0
  2  3  2  0
  3  4  1  0
  4  5  2  0
  5  6  1  0
  6  7  2  0
  6  8  2  0
  6  9  1  0
  9 10  1  0
 10 11  1  0
 10 12  1  0
 10 13  1  0
  5 14  1  0
 14 15  2  0
 15 16  1  0
 16 17  2  0
 17 18  1  0
 18 19  2  0
 19 20  1  0
 20 21  1  0
 21 22  1  0
 22 23  1  0
 23 24  2  0
 24 25  1  0
 25 26  2  0
 26 27  1  0
 26 28  1  0
 28 29  1  0
 29 30  2  0
 29 31  1  0
 28 32  2  0
 20 33  2  0
 15  2  1  0
 33 16  1  0
 32 23  1  0
M  END
>  <score>  (118) 
-0.481785

$$$$
HIPS6563
     RDKit          3D

 26 27  0  0  0  0  0  0  0  0999 V2000
   -5.3996   -0.1816   -2.1248 O   0  0  0  0  0  0  0  0  0  0  0  0
   -4.6368    0.5589   -1.4477 C   0  0  0  0  0  0  0  0  0  0  0  0
   -4.8610    1.9336   -1.4429 O   0  0  0  0  0  0  0  0  0  0  0  0
   -3.5134   -0.0155   -0.6635 C   0  0  0  0  0  0  0  0  0  0  0  0
   -2.6843    0.8449    0.0808 C   0  0  0  0  0  0  0  0  0  0  0  0
   -1.6119    0.3499    0.8308 C   0  0  0  0  0  0  0  0  0  0  0  0
   -0.8222    1.2674    1.5431 O   0  0  0  0  0  0  0  0  0  0  0  0
    0.3750    0.9496    2.2542 C   0  0  0  0  0  0  0  0  0  0  0  0
    1.4836    0.5871    1.3007 C   0  0  0  0  0  0  0  0  0  0  0  0
    2.2043   -0.6047    1.4663 C   0  0  0  0  0  0  0  0  0  0  0  0
    3.2357   -0.9467    0.5765 C   0  0  0  0  0  0  0  0  0  0  0  0
    3.9530   -2.2667    0.7145 C   0  0  0  0  0  0  0  0  0  0  0  0
    3.2614   -3.2355    0.0117 F   0  0  0  0  0  0  0  0  0  0  0  0
    5.2406   -2.1791    0.2141 F   0  0  0  0  0  0  0  0  0  0  0  0
    4.0317   -2.6439    2.0440 F   0  0  0  0  0  0  0  0  0  0  0  0
    3.5214   -0.0920   -0.5018 C   0  0  0  0  0  0  0  0  0  0  0  0
    2.8372    1.1258   -0.6549 C   0  0  0  0  0  0  0  0  0  0  0  0
    3.1292    2.0217   -1.8330 C   0  0  0  0  0  0  0  0  0  0  0  0
    4.4570    1.9174   -2.2099 F   0  0  0  0  0  0  0  0  0  0  0  0
    2.8732    3.3448   -1.5169 F   0  0  0  0  0  0  0  0  0  0  0  0
    2.3284    1.6497   -2.8965 F   0  0  0  0  0  0  0  0  0  0  0  0
    1.8089    1.4504    0.2446 C   0  0  0  0  0  0  0  0  0  0  0  0
   -1.3662   -1.0333    0.8464 C   0  0  0  0  0  0  0  0  0  0  0  0
   -2.1782   -1.8991    0.1142 C   0  0  0  0  0  0  0  0  0  0  0  0
   -3.2493   -1.4043   -0.6420 C   0  0  0  0  0  0  0  0  0  0  0  0
   -4.0439   -2.2941   -1.3652 O   0  0  0  0  0  0  0  0  0  0  0  0
  1  2  2  0
  2  3  1  0
  2  4  1  0
  4  5  2  0
  5  6  1  0
  6  7  1  0
  7  8  1  0
  8  9  1  0
  9 10  2  0
 10 11  1  0
 11 12  1  0
 12 13  1  0
 12 14  1  0
 12 15  1  0
 11 16  2  0
 16 17  1  0
 17 18  1  0
 18 19  1  0
 18 20  1  0
 18 21  1  0
 17 22  2  0
  6 23  2  0
 23 24  1  0
 24 25  2  0
 25 26  1  0
 25  4  1  0
 22  9  1  0
M  END
>  <score>  (119) 
-0.179564

$$$$
HIPS6566
     RDKit          3D

 29 30  0  0  0  0  0  0  0  0999 V2000
   -1.2364   -0.7750    3.5484 C   0  0  0  0  0  0  0  0  0  0  0  0
   -0.2957   -0.4523    2.3830 C   0  0  0  0  0  0  0  0  0  0  0  0
    0.5304    0.8001    2.6946 C   0  0  0  0  0  0  0  0  0  0  0  0
    0.7866   -1.8448    2.0310 S   0  0  0  0  0  6  0  0  0  0  0  0
    1.0512   -2.6340    3.2832 O   0  0  0  0  0  0  0  0  0  0  0  0
    2.1071   -1.3622    1.4939 O   0  0  0  0  0  0  0  0  0  0  0  0
    0.0389   -2.8827    0.8586 N   0  0  0  0  0  0  0  0  0  0  0  0
    0.3514   -2.7937   -0.5391 C   0  0  0  0  0  0  0  0  0  0  0  0
    0.4495   -3.9639   -1.3023 C   0  0  0  0  0  0  0  0  0  0  0  0
    0.7955   -3.8970   -2.6525 C   0  0  0  0  0  0  0  0  0  0  0  0
    1.0275   -2.6603   -3.2584 C   0  0  0  0  0  0  0  0  0  0  0  0
    0.8960   -1.4678   -2.5218 C   0  0  0  0  0  0  0  0  0  0  0  0
    1.0866   -0.1447   -3.1773 C   0  0  0  0  0  0  0  0  0  0  0  0
    0.6601    0.0649   -4.5025 C   0  0  0  0  0  0  0  0  0  0  0  0
    0.8049    1.3167   -5.1046 C   0  0  0  0  0  0  0  0  0  0  0  0
    1.3579    2.3808   -4.3911 C   0  0  0  0  0  0  0  0  0  0  0  0
    1.7773    2.1995   -3.0654 C   0  0  0  0  0  0  0  0  0  0  0  0
    2.3547    3.3614   -2.2880 C   0  0  0  0  0  0  0  0  0  0  0  0
    1.8233    3.4185   -0.9629 O   0  0  0  0  0  0  0  0  0  0  0  0
    0.4511    3.5152   -0.7073 C   0  0  0  0  0  0  0  0  0  0  0  0
    0.0184    3.5504    0.5547 C   0  0  0  0  0  0  0  0  0  0  0  0
   -1.4181    3.5319    0.9290 C   0  0  0  0  0  0  0  0  0  0  0  0
   -1.7532    3.9733    2.1569 C   0  0  0  0  0  0  0  0  0  0  0  0
   -3.0312    3.8553    2.7039 O   0  0  0  0  0  0  0  0  0  0  0  0
   -2.4236    2.9743   -0.0093 C   0  0  0  0  0  0  0  0  0  0  0  0
   -3.5636    3.5004   -0.1134 O   0  0  0  0  0  0  0  0  0  0  0  0
   -2.0909    1.8889   -0.8180 O   0  0  0  0  0  0  0  0  0  0  0  0
    1.6659    0.9294   -2.4740 C   0  0  0  0  0  0  0  0  0  0  0  0
    0.5544   -1.5482   -1.1577 C   0  0  0  0  0  0  0  0  0  0  0  0
  1  2  1  0
  2  3  1  0
  2  4  1  0
  4  5  2  0
  4  6  2  0
  4  7  1  0
  7  8  1  0
  8  9  2  0
  9 10  1  0
 10 11  2  0
 11 12  1  0
 12 13  1  0
 13 14  2  0
 14 15  1  0
 15 16  2  0
 16 17  1  0
 17 18  1  0
 18 19  1  0
 19 20  1  0
 20 21  2  0
 21 22  1  0
 22 23  2  0
 23 24  1  0
 22 25  1  0
 25 26  2  0
 25 27  1  0
 17 28  2  0
 12 29  2  0
 29  8  1  0
 28 13  1  0
M  END
>  <score>  (120) 
-0.561558

$$$$
HIPS6568
     RDKit          3D

 18 19  0  0  0  0  0  0  0  0999 V2000
    4.0678    2.4808    0.1330 O   0  0  0  0  0  0  0  0  0  0  0  0
    3.4183    1.4082    0.2604 C   0  0  0  0  0  0  0  0  0  0  0  0
    4.0902    0.1942    0.1381 O   0  0  0  0  0  0  0  0  0  0  0  0
    1.9587    1.4273    0.5366 C   0  0  0  0  0  0  0  0  0  0  0  0
    1.2691    0.2076    0.6727 C   0  0  0  0  0  0  0  0  0  0  0  0
   -0.1058    0.1763    0.9302 C   0  0  0  0  0  0  0  0  0  0  0  0
   -0.7297   -1.0768    1.0488 O   0  0  0  0  0  0  0  0  0  0  0  0
   -2.1305   -1.2870    1.2279 C   0  0  0  0  0  0  0  0  0  0  0  0
   -2.8864   -0.9180   -0.0106 C   0  0  0  0  0  0  0  0  0  0  0  0
   -2.5479   -1.2759   -1.3092 C   0  0  0  0  0  0  0  0  0  0  0  0
   -3.4721   -0.8240   -2.2583 C   0  0  0  0  0  0  0  0  0  0  0  0
   -3.2844   -1.1474   -4.1285 Br  0  0  0  0  0  0  0  0  0  0  0  0
   -4.5425   -0.1252   -1.7148 C   0  0  0  0  0  0  0  0  0  0  0  0
   -4.3383   -0.0703   -0.0461 S   0  0  0  0  0  0  0  0  0  0  0  0
   -0.8073    1.3868    1.0607 C   0  0  0  0  0  0  0  0  0  0  0  0
   -0.1386    2.6036    0.9283 C   0  0  0  0  0  0  0  0  0  0  0  0
    1.2378    2.6365    0.6668 C   0  0  0  0  0  0  0  0  0  0  0  0
    1.8798    3.8684    0.5387 O   0  0  0  0  0  0  0  0  0  0  0  0
  1  2  2  0
  2  3  1  0
  2  4  1  0
  4  5  2  0
  5  6  1  0
  6  7  1  0
  7  8  1  0
  8  9  1  0
  9 10  2  0
 10 11  1  0
 11 12  1  0
 11 13  2  0
 13 14  1  0
  6 15  2  0
 15 16  1  0
 16 17  2  0
 17 18  1  0
 17  4  1  0
 14  9  1  0
M  END
>  <score>  (121) 
0.108263

$$$$
HIPS6569
     RDKit          3D

 18 19  0  0  0  0  0  0  0  0999 V2000
    2.4631   -3.3079   -0.4677 O   0  0  0  0  0  0  0  0  0  0  0  0
    1.4985   -2.5658   -0.1401 C   0  0  0  0  0  0  0  0  0  0  0  0
    0.5170   -3.0715    0.7093 O   0  0  0  0  0  0  0  0  0  0  0  0
    1.4009   -1.1719   -0.6458 C   0  0  0  0  0  0  0  0  0  0  0  0
    0.2926   -0.3840   -0.2797 C   0  0  0  0  0  0  0  0  0  0  0  0
    0.1682    0.9443   -0.7300 C   0  0  0  0  0  0  0  0  0  0  0  0
   -0.9153    1.7667   -0.3781 O   0  0  0  0  0  0  0  0  0  0  0  0
   -1.9618    1.4128    0.5260 C   0  0  0  0  0  0  0  0  0  0  0  0
   -1.4412    1.3254    1.9271 C   0  0  0  0  0  0  0  0  0  0  0  0
   -1.6336    0.2662    2.8042 C   0  0  0  0  0  0  0  0  0  0  0  0
   -1.0389    0.4775    4.0536 C   0  0  0  0  0  0  0  0  0  0  0  0
   -1.1163   -0.7967    5.4704 Br  0  0  0  0  0  0  0  0  0  0  0  0
   -0.3882    1.6993    4.1690 C   0  0  0  0  0  0  0  0  0  0  0  0
   -0.5525    2.5197    2.7098 S   0  0  0  0  0  0  0  0  0  0  0  0
    1.1554    1.4774   -1.5611 C   0  0  0  0  0  0  0  0  0  0  0  0
    2.2572    0.7092   -1.9358 C   0  0  0  0  0  0  0  0  0  0  0  0
    2.3911   -0.6106   -1.4847 C   0  0  0  0  0  0  0  0  0  0  0  0
    3.5058   -1.3549   -1.8715 O   0  0  0  0  0  0  0  0  0  0  0  0
  1  2  2  0
  2  3  1  0
  2  4  1  0
  4  5  2  0
  5  6  1  0
  6  7  1  0
  7  8  1  0
  8  9  1  0
  9 10  2  0
 10 11  1  0
 11 12  1  0
 11 13  2  0
 13 14  1  0
  6 15  2  0
 15 16  1  0
 16 17  2  0
 17 18  1  0
 17  4  1  0
 14  9  1  0
M  END
>  <score>  (122) 
0.67348

$$$$
HIPS6701
     RDKit          3D

 30 32  0  0  0  0  0  0  0  0999 V2000
    0.1766    0.8197    0.6009 O   0  0  0  0  0  0  0  0  0  0  0  0
    1.0600    1.3546   -0.1238 C   0  0  0  0  0  0  0  0  0  0  0  0
    2.0425    0.5322   -0.7761 N   0  0  0  0  0  0  0  0  0  0  0  0
    1.9402   -0.8944   -0.8466 C   0  0  0  0  0  0  0  0  0  0  0  0
    2.8744   -1.6795   -1.4127 N   0  0  0  0  0  0  0  0  0  0  0  0
    2.4297   -2.9206   -1.2902 N   0  0  0  0  0  0  0  0  0  0  0  0
    1.2423   -2.8416   -0.6548 C   0  0  0  0  0  0  0  0  0  0  0  0
    0.3973   -4.0025   -0.3121 C   0  0  0  0  0  0  0  0  0  0  0  0
    0.7983   -5.3039   -0.6554 C   0  0  0  0  0  0  0  0  0  0  0  0
   -0.0061   -6.3972   -0.3280 C   0  0  0  0  0  0  0  0  0  0  0  0
   -1.2145   -6.2033    0.3443 C   0  0  0  0  0  0  0  0  0  0  0  0
   -1.6333   -4.9155    0.6976 C   0  0  0  0  0  0  0  0  0  0  0  0
   -2.8561   -4.7806    1.3752 O   0  0  0  0  0  0  0  0  0  0  0  0
   -3.4265   -3.5484    1.8110 C   0  0  0  0  0  0  0  0  0  0  0  0
   -3.6631   -2.7224    0.7269 F   0  0  0  0  0  0  0  0  0  0  0  0
   -4.6270   -3.8088    2.4425 F   0  0  0  0  0  0  0  0  0  0  0  0
   -2.5792   -2.9206    2.7064 F   0  0  0  0  0  0  0  0  0  0  0  0
   -0.8203   -3.8131    0.3644 C   0  0  0  0  0  0  0  0  0  0  0  0
    0.9358   -1.5954   -0.3800 O   0  0  0  0  0  0  0  0  0  0  0  0
    1.0810    2.8308   -0.2679 C   0  0  0  0  0  0  0  0  0  0  0  0
    0.4853    3.6407    0.7145 C   0  0  0  0  0  0  0  0  0  0  0  0
    0.4933    5.0309    0.5858 C   0  0  0  0  0  0  0  0  0  0  0  0
    1.0873    5.6314   -0.5258 C   0  0  0  0  0  0  0  0  0  0  0  0
    1.6784    4.8385   -1.5271 C   0  0  0  0  0  0  0  0  0  0  0  0
    2.2824    5.3869   -2.6703 O   0  0  0  0  0  0  0  0  0  0  0  0
    2.3726    6.7786   -2.9679 C   0  0  0  0  0  0  0  0  0  0  0  0
    1.1064    7.3260   -3.0750 F   0  0  0  0  0  0  0  0  0  0  0  0
    3.0876    7.4326   -1.9805 F   0  0  0  0  0  0  0  0  0  0  0  0
    3.0295    6.9375   -4.1726 F   0  0  0  0  0  0  0  0  0  0  0  0
    1.6676    3.4441   -1.3910 C   0  0  0  0  0  0  0  0  0  0  0  0
  1  2  2  0
  2  3  1  0
  3  4  1  0
  4  5  2  0
  5  6  1  0
  6  7  2  0
  7  8  1  0
  8  9  2  0
  9 10  1  0
 10 11  2  0
 11 12  1  0
 12 13  1  0
 13 14  1  0
 14 15  1  0
 14 16  1  0
 14 17  1  0
 12 18  2  0
  7 19  1  0
  2 20  1  0
 20 21  2  0
 21 22  1  0
 22 23  2  0
 23 24  1  0
 24 25  1  0
 25 26  1  0
 26 27  1  0
 26 28  1  0
 26 29  1  0
 24 30  2  0
 19  4  1  0
 30 20  1  0
 18  8  1  0
M  END
>  <score>  (123) 
-0.247372

$$$$
HIPS6705
     RDKit          3D

 24 25  0  0  0  0  0  0  0  0999 V2000
   -0.9712   -1.5917    1.1163 O   0  0  0  0  0  0  0  0  0  0  0  0
   -0.0601   -2.0366    0.3676 C   0  0  0  0  0  0  0  0  0  0  0  0
    0.7904   -3.1771    0.8398 C   0  0  0  0  0  0  0  0  0  0  0  0
    2.1675   -2.8019    0.8643 O   0  0  0  0  0  0  0  0  0  0  0  0
    2.7505   -1.9067    1.7760 C   0  0  0  0  0  0  0  0  0  0  0  0
    2.0375   -1.3429    2.8504 C   0  0  0  0  0  0  0  0  0  0  0  0
    2.6675   -0.4546    3.7271 C   0  0  0  0  0  0  0  0  0  0  0  0
    4.0206   -0.1139    3.5502 C   0  0  0  0  0  0  0  0  0  0  0  0
    4.6725    0.8007    4.4505 N   0  0  0  0  0  4  0  0  0  0  0  0
    4.0479    1.3093    5.4046 O   0  0  0  0  0  0  0  0  0  0  0  0
    5.9968    1.1308    4.2742 O   0  0  0  0  0  1  0  0  0  0  0  0
    4.7288   -0.6829    2.4783 C   0  0  0  0  0  0  0  0  0  0  0  0
    4.0972   -1.5708    1.6028 C   0  0  0  0  0  0  0  0  0  0  0  0
    0.1910   -1.4397   -0.9152 N   0  0  0  0  0  0  0  0  0  0  0  0
   -0.6365   -0.4581   -1.4923 N   0  0  0  0  0  0  0  0  0  0  0  0
   -1.9316   -0.4588   -1.3907 C   0  0  0  0  0  0  0  0  0  0  0  0
   -2.7431    0.6149   -2.0038 C   0  0  0  0  0  0  0  0  0  0  0  0
   -2.1347    1.6836   -2.6898 C   0  0  0  0  0  0  0  0  0  0  0  0
   -2.9146    2.6922   -3.2631 C   0  0  0  0  0  0  0  0  0  0  0  0
   -4.3102    2.6481   -3.1592 C   0  0  0  0  0  0  0  0  0  0  0  0
   -5.0969    3.6479   -3.7268 O   0  0  0  0  0  0  0  0  0  0  0  0
   -4.9215    1.5910   -2.4793 C   0  0  0  0  0  0  0  0  0  0  0  0
   -4.1467    0.5786   -1.9034 C   0  0  0  0  0  0  0  0  0  0  0  0
   -4.7692   -0.4347   -1.2486 F   0  0  0  0  0  0  0  0  0  0  0  0
  1  2  2  0
  2  3  1  0
  3  4  1  0
  4  5  1  0
  5  6  2  0
  6  7  1  0
  7  8  2  0
  8  9  1  0
  9 10  2  0
  9 11  1  0
  8 12  1  0
 12 13  2  0
  2 14  1  0
 14 15  1  0
 15 16  2  0
 16 17  1  0
 17 18  2  0
 18 19  1  0
 19 20  2  0
 20 21  1  0
 20 22  1  0
 22 23  2  0
 23 24  1  0
 13  5  1  0
 23 17  1  0
M  CHG  2   9   1  11  -1
M  END
>  <score>  (124) 
0.467977

$$$$
HIPS6706
     RDKit          3D

 24 26  0  0  0  0  0  0  0  0999 V2000
   -2.4288   -0.5997    1.5972 O   0  0  0  0  0  0  0  0  0  0  0  0
   -1.7953   -0.0376    2.5322 C   0  0  0  0  0  0  0  0  0  0  0  0
   -1.0549   -0.8415    3.4652 N   0  0  0  0  0  0  0  0  0  0  0  0
   -0.8366   -2.2129    3.2439 N   0  0  0  0  0  0  0  0  0  0  0  0
   -0.2537   -2.7098    2.1904 C   0  0  0  0  0  0  0  0  0  0  0  0
    0.4116   -1.9011    1.1506 C   0  0  0  0  0  0  0  0  0  0  0  0
    1.0394   -0.6786    1.3119 C   0  0  0  0  0  0  0  0  0  0  0  0
    1.5332   -0.3417    0.0705 C   0  0  0  0  0  0  0  0  0  0  0  0
    1.1873   -1.3853   -0.7738 C   0  0  0  0  0  0  0  0  0  0  0  0
    1.4932   -1.5045   -2.2185 C   0  0  0  0  0  0  0  0  0  0  0  0
    1.0740   -2.6464   -2.9245 C   0  0  0  0  0  0  0  0  0  0  0  0
    1.3511   -2.7792   -4.2884 C   0  0  0  0  0  0  0  0  0  0  0  0
    2.0491   -1.7744   -4.9636 C   0  0  0  0  0  0  0  0  0  0  0  0
    2.3956   -1.9429   -6.6748 Cl  0  0  0  0  0  0  0  0  0  0  0  0
    2.4704   -0.6348   -4.2728 C   0  0  0  0  0  0  0  0  0  0  0  0
    2.1955   -0.4977   -2.9085 C   0  0  0  0  0  0  0  0  0  0  0  0
    0.5270   -2.2977   -0.0951 O   0  0  0  0  0  0  0  0  0  0  0  0
   -1.8335    1.4396    2.6575 C   0  0  0  0  0  0  0  0  0  0  0  0
   -2.8277    2.1804    1.9911 C   0  0  0  0  0  0  0  0  0  0  0  0
   -2.8627    3.5743    2.0942 C   0  0  0  0  0  0  0  0  0  0  0  0
   -1.9035    4.2458    2.8567 C   0  0  0  0  0  0  0  0  0  0  0  0
   -1.9518    6.1501    2.9934 Br  0  0  0  0  0  0  0  0  0  0  0  0
   -0.9056    3.5220    3.5146 C   0  0  0  0  0  0  0  0  0  0  0  0
   -0.8671    2.1278    3.4155 C   0  0  0  0  0  0  0  0  0  0  0  0
  1  2  2  0
  2  3  1  0
  3  4  1  0
  4  5  2  0
  5  6  1  0
  6  7  2  0
  7  8  1  0
  8  9  2  0
  9 10  1  0
 10 11  2  0
 11 12  1  0
 12 13  2  0
 13 14  1  0
 13 15  1  0
 15 16  2  0
  9 17  1  0
  2 18  1  0
 18 19  2  0
 19 20  1  0
 20 21  2  0
 21 22  1  0
 21 23  1  0
 23 24  2  0
 17  6  1  0
 24 18  1  0
 16 10  1  0
M  END
>  <score>  (125) 
0.172474

$$$$
HIPS6707
     RDKit          3D

 25 27  0  0  0  0  0  0  0  0999 V2000
    0.5415    2.3121   -2.7546 O   0  0  0  0  0  0  0  0  0  0  0  0
    0.4974    1.6700   -1.6695 C   0  0  0  0  0  0  0  0  0  0  0  0
   -0.7339    1.1000   -1.2271 N   0  0  0  0  0  0  0  0  0  0  0  0
   -1.9183    1.3340   -1.9475 N   0  0  0  0  0  0  0  0  0  0  0  0
   -3.0393    0.6949   -1.7743 C   0  0  0  0  0  0  0  0  0  0  0  0
   -3.2064   -0.4745   -0.8897 C   0  0  0  0  0  0  0  0  0  0  0  0
   -4.4232   -0.9908   -0.4932 C   0  0  0  0  0  0  0  0  0  0  0  0
   -4.1323   -2.0865    0.2913 C   0  0  0  0  0  0  0  0  0  0  0  0
   -2.7491   -2.1768    0.3200 C   0  0  0  0  0  0  0  0  0  0  0  0
   -1.9322   -3.1883    1.0295 C   0  0  0  0  0  0  0  0  0  0  0  0
   -0.5292   -3.1218    0.9557 C   0  0  0  0  0  0  0  0  0  0  0  0
    0.2618   -4.0653    1.6180 C   0  0  0  0  0  0  0  0  0  0  0  0
   -0.3377   -5.0854    2.3614 C   0  0  0  0  0  0  0  0  0  0  0  0
    0.6567   -6.2682    3.1916 Cl  0  0  0  0  0  0  0  0  0  0  0  0
   -1.7310   -5.1615    2.4424 C   0  0  0  0  0  0  0  0  0  0  0  0
   -2.5262   -4.2200    1.7814 C   0  0  0  0  0  0  0  0  0  0  0  0
   -2.2327   -1.2043   -0.3977 O   0  0  0  0  0  0  0  0  0  0  0  0
    1.6491    1.5019   -0.8928 O   0  0  0  0  0  0  0  0  0  0  0  0
    2.9134    2.0669   -1.2334 C   0  0  0  0  0  0  0  0  0  0  0  0
    2.8976    3.5564   -1.0223 C   0  0  0  0  0  0  0  0  0  0  0  0
    2.9553    4.4361   -2.1164 C   0  0  0  0  0  0  0  0  0  0  0  0
    2.9225    5.8189   -1.9097 C   0  0  0  0  0  0  0  0  0  0  0  0
    2.8286    6.3317   -0.6128 C   0  0  0  0  0  0  0  0  0  0  0  0
    2.7657    5.4622    0.4797 C   0  0  0  0  0  0  0  0  0  0  0  0
    2.7981    4.0789    0.2774 C   0  0  0  0  0  0  0  0  0  0  0  0
  1  2  2  0
  2  3  1  0
  3  4  1  0
  4  5  2  0
  5  6  1  0
  6  7  2  0
  7  8  1  0
  8  9  2  0
  9 10  1  0
 10 11  2  0
 11 12  1  0
 12 13  2  0
 13 14  1  0
 13 15  1  0
 15 16  2  0
  9 17  1  0
  2 18  1  0
 18 19  1  0
 19 20  1  0
 20 21  2  0
 21 22  1  0
 22 23  2  0
 23 24  1  0
 24 25  2  0
 17  6  1  0
 25 20  1  0
 16 10  1  0
M  END
>  <score>  (126) 
0.552979

$$$$
HIPS6708
     RDKit          3D

 19 20  0  0  0  0  0  0  0  0999 V2000
   -4.0482    2.4172   -1.4293 O   0  0  0  0  0  0  0  0  0  0  0  0
   -4.6652    1.4215   -0.9663 C   0  0  0  0  0  0  0  0  0  0  0  0
   -6.0453    1.3743   -1.0648 O   0  0  0  0  0  0  0  0  0  0  0  0
   -3.9094    0.3457   -0.3394 C   0  0  0  0  0  0  0  0  0  0  0  0
   -2.5526    0.3772   -0.2350 C   0  0  0  0  0  0  0  0  0  0  0  0
   -1.8871   -0.6567    0.3622 C   0  0  0  0  0  0  0  0  0  0  0  0
   -0.4402   -0.6488    0.4869 C   0  0  0  0  0  0  0  0  0  0  0  0
    0.2893    0.3226    0.0467 N   0  0  0  0  0  0  0  0  0  0  0  0
    1.6815    0.3199    0.1722 N   0  0  0  0  0  0  0  0  0  0  0  0
    2.5486   -0.2911   -0.7508 C   0  0  0  0  0  0  0  0  0  0  0  0
    2.0403   -0.8653   -1.7416 O   0  0  0  0  0  0  0  0  0  0  0  0
    4.0222   -0.2988   -0.6259 C   0  0  0  0  0  0  0  0  0  0  0  0
    4.6675    1.0750   -0.6087 C   0  0  0  0  0  0  0  0  0  0  0  0
    5.6593    0.4943    0.4101 C   0  0  0  0  0  0  0  0  0  0  0  0
    4.5398   -0.4883    0.7821 C   0  0  0  0  0  0  0  0  0  0  0  0
   -2.5813   -1.7291    0.8581 C   0  0  0  0  0  0  0  0  0  0  0  0
   -3.9473   -1.7482    0.7463 C   0  0  0  0  0  0  0  0  0  0  0  0
   -4.6217   -0.7290    0.1561 C   0  0  0  0  0  0  0  0  0  0  0  0
   -6.0044   -0.7978    0.0687 O   0  0  0  0  0  0  0  0  0  0  0  0
  1  2  2  0
  2  3  1  0
  2  4  1  0
  4  5  2  0
  5  6  1  0
  6  7  1  0
  7  8  2  0
  8  9  1  0
  9 10  1  0
 10 11  2  0
 10 12  1  0
 12 13  1  0
 13 14  1  0
 14 15  1  0
  6 16  2  0
 16 17  1  0
 17 18  2  0
 18 19  1  0
 18  4  1  0
 15 12  1  0
M  END
>  <score>  (127) 
0.273774

$$$$
HIPS6709
     RDKit          3D

 18 19  0  0  0  0  0  0  0  0999 V2000
    1.1831   -1.3258    3.6289 O   0  0  0  0  0  0  0  0  0  0  0  0
    0.4003   -1.0544    2.6791 C   0  0  0  0  0  0  0  0  0  0  0  0
   -0.4209    0.0661    2.7816 O   0  0  0  0  0  0  0  0  0  0  0  0
    0.3471   -1.9094    1.4649 C   0  0  0  0  0  0  0  0  0  0  0  0
   -0.5566   -1.5848    0.4346 C   0  0  0  0  0  0  0  0  0  0  0  0
   -0.6318   -2.3654   -0.7349 C   0  0  0  0  0  0  0  0  0  0  0  0
   -1.5123   -2.0700   -1.7893 O   0  0  0  0  0  0  0  0  0  0  0  0
   -2.3708   -0.9311   -1.8537 C   0  0  0  0  0  0  0  0  0  0  0  0
   -1.5716    0.3232   -2.0390 C   0  0  0  0  0  0  0  0  0  0  0  0
   -1.8047    1.4887   -1.3127 C   0  0  0  0  0  0  0  0  0  0  0  0
   -0.7098    2.6499   -1.8416 S   0  0  0  0  0  0  0  0  0  0  0  0
   -0.0011    1.6281   -2.9700 C   0  0  0  0  0  0  0  0  0  0  0  0
    1.4328    2.1159   -4.1256 Br  0  0  0  0  0  0  0  0  0  0  0  0
   -0.5759    0.4073   -2.9629 N   0  0  0  0  0  0  0  0  0  0  0  0
    0.1972   -3.4816   -0.8638 C   0  0  0  0  0  0  0  0  0  0  0  0
    1.0952   -3.8182    0.1484 C   0  0  0  0  0  0  0  0  0  0  0  0
    1.1799   -3.0419    1.3118 C   0  0  0  0  0  0  0  0  0  0  0  0
    2.0898   -3.3996    2.3070 O   0  0  0  0  0  0  0  0  0  0  0  0
  1  2  2  0
  2  3  1  0
  2  4  1  0
  4  5  2  0
  5  6  1  0
  6  7  1  0
  7  8  1  0
  8  9  1  0
  9 10  2  0
 10 11  1  0
 11 12  1  0
 12 13  1  0
 12 14  2  0
  6 15  2  0
 15 16  1  0
 16 17  2  0
 17 18  1  0
 17  4  1  0
 14  9  1  0
M  END
>  <score>  (128) 
0.454141

$$$$
HIPS6710
     RDKit          3D

 32 35  0  0  0  0  0  0  0  0999 V2000
    1.6510   -4.2445   -6.9984 O   0  0  0  0  0  0  0  0  0  0  0  0
    1.5544   -3.5184   -5.9732 C   0  0  0  0  0  0  0  0  0  0  0  0
    2.7109   -3.1190   -5.3089 O   0  0  0  0  0  0  0  0  0  0  0  0
    0.2288   -3.1420   -5.4338 C   0  0  0  0  0  0  0  0  0  0  0  0
    0.0847   -3.0278   -4.0388 C   0  0  0  0  0  0  0  0  0  0  0  0
   -1.1667   -2.7398   -3.4630 C   0  0  0  0  0  0  0  0  0  0  0  0
   -1.3495   -2.6214   -2.0772 O   0  0  0  0  0  0  0  0  0  0  0  0
   -0.3128   -2.7685   -1.1115 C   0  0  0  0  0  0  0  0  0  0  0  0
   -0.8715   -2.5180    0.2504 C   0  0  0  0  0  0  0  0  0  0  0  0
   -1.4078   -3.5219    1.0519 C   0  0  0  0  0  0  0  0  0  0  0  0
   -1.9584   -2.8011    2.4674 S   0  0  0  0  0  0  0  0  0  0  0  0
   -1.5093   -1.2454    1.9975 C   0  0  0  0  0  0  0  0  0  0  0  0
   -1.6818   -0.0103    2.7952 C   0  0  0  0  0  0  0  0  0  0  0  0
   -2.1268   -0.0624    4.1274 C   0  0  0  0  0  0  0  0  0  0  0  0
   -2.2515    1.1108    4.8753 C   0  0  0  0  0  0  0  0  0  0  0  0
   -1.9294    2.3446    4.3065 C   0  0  0  0  0  0  0  0  0  0  0  0
   -1.4861    2.4214    2.9821 C   0  0  0  0  0  0  0  0  0  0  0  0
   -1.1605    3.6854    2.4614 O   0  0  0  0  0  0  0  0  0  0  0  0
   -0.6426    3.9325    1.1523 C   0  0  0  0  0  0  0  0  0  0  0  0
    0.7575    3.3928    1.0142 C   0  0  0  0  0  0  0  0  0  0  0  0
    1.7499    3.7642    1.9357 C   0  0  0  0  0  0  0  0  0  0  0  0
    3.0470    3.2560    1.8169 C   0  0  0  0  0  0  0  0  0  0  0  0
    3.3634    2.3771    0.7772 C   0  0  0  0  0  0  0  0  0  0  0  0
    2.3840    2.0101   -0.1517 C   0  0  0  0  0  0  0  0  0  0  0  0
    2.7771    0.8994   -1.4515 Cl  0  0  0  0  0  0  0  0  0  0  0  0
    1.0873    2.5238   -0.0402 C   0  0  0  0  0  0  0  0  0  0  0  0
   -1.3782    1.2387    2.2256 C   0  0  0  0  0  0  0  0  0  0  0  0
   -0.9406   -1.2633    0.7706 N   0  0  0  0  0  0  0  0  0  0  0  0
   -2.2758   -2.5669   -4.2930 C   0  0  0  0  0  0  0  0  0  0  0  0
   -2.1443   -2.6585   -5.6784 C   0  0  0  0  0  0  0  0  0  0  0  0
   -0.9006   -2.9220   -6.2618 C   0  0  0  0  0  0  0  0  0  0  0  0
   -0.8251   -2.9217   -7.6564 O   0  0  0  0  0  0  0  0  0  0  0  0
  1  2  2  0
  2  3  1  0
  2  4  1  0
  4  5  2  0
  5  6  1  0
  6  7  1  0
  7  8  1  0
  8  9  1  0
  9 10  2  0
 10 11  1  0
 11 12  1  0
 12 13  1  0
 13 14  2  0
 14 15  1  0
 15 16  2  0
 16 17  1  0
 17 18  1  0
 18 19  1  0
 19 20  1  0
 20 21  2  0
 21 22  1  0
 22 23  2  0
 23 24  1  0
 24 25  1  0
 24 26  2  0
 17 27  2  0
 12 28  2  0
  6 29  2  0
 29 30  1  0
 30 31  2  0
 31 32  1  0
 31  4  1  0
 28  9  1  0
 27 13  1  0
 26 20  1  0
M  END
>  <score>  (129) 
-0.465219

$$$$
HIPS6774
     RDKit          3D

 33 36  0  0  0  0  0  0  0  0999 V2000
    4.4239    0.4249   -4.1501 O   0  0  0  0  0  0  0  0  0  0  0  0
    3.3864    0.8597   -3.5824 C   0  0  0  0  0  0  0  0  0  0  0  0
    3.4598    2.0284   -2.8292 O   0  0  0  0  0  0  0  0  0  0  0  0
    2.0848    0.1798   -3.7613 C   0  0  0  0  0  0  0  0  0  0  0  0
    0.9213    0.9684   -3.8068 C   0  0  0  0  0  0  0  0  0  0  0  0
   -0.3330    0.3962   -4.0426 C   0  0  0  0  0  0  0  0  0  0  0  0
   -1.4529    1.2428   -4.0760 O   0  0  0  0  0  0  0  0  0  0  0  0
   -2.8106    0.8106   -4.1786 C   0  0  0  0  0  0  0  0  0  0  0  0
   -3.2407    0.0860   -2.9298 C   0  0  0  0  0  0  0  0  0  0  0  0
   -3.9510   -1.1181   -3.0162 C   0  0  0  0  0  0  0  0  0  0  0  0
   -4.3542   -1.7623   -1.8469 C   0  0  0  0  0  0  0  0  0  0  0  0
   -4.0580   -1.2244   -0.6350 N   0  0  0  0  0  0  0  0  0  0  0  0
   -3.3712   -0.0543   -0.5068 C   0  0  0  0  0  0  0  0  0  0  0  0
   -3.0771    0.4708    0.8510 C   0  0  0  0  0  0  0  0  0  0  0  0
   -3.9361    0.1644    1.9208 C   0  0  0  0  0  0  0  0  0  0  0  0
   -3.6649    0.6391    3.2055 C   0  0  0  0  0  0  0  0  0  0  0  0
   -2.5301    1.4157    3.4437 C   0  0  0  0  0  0  0  0  0  0  0  0
   -1.6471    1.7195    2.3914 C   0  0  0  0  0  0  0  0  0  0  0  0
   -0.4810    2.4802    2.5772 O   0  0  0  0  0  0  0  0  0  0  0  0
    0.0383    2.8982    3.8398 C   0  0  0  0  0  0  0  0  0  0  0  0
    0.5551    1.7188    4.6200 C   0  0  0  0  0  0  0  0  0  0  0  0
    0.1409    1.4998    5.9443 C   0  0  0  0  0  0  0  0  0  0  0  0
    0.6276    0.4030    6.6617 C   0  0  0  0  0  0  0  0  0  0  0  0
    1.5355   -0.4772    6.0669 C   0  0  0  0  0  0  0  0  0  0  0  0
    1.9621   -0.2602    4.7526 C   0  0  0  0  0  0  0  0  0  0  0  0
    3.1053   -1.3624    4.0079 Cl  0  0  0  0  0  0  0  0  0  0  0  0
    1.4772    0.8372    4.0323 C   0  0  0  0  0  0  0  0  0  0  0  0
   -1.9291    1.2476    1.1035 C   0  0  0  0  0  0  0  0  0  0  0  0
   -2.9676    0.6313   -1.6669 C   0  0  0  0  0  0  0  0  0  0  0  0
   -0.4269   -0.9912   -4.2419 C   0  0  0  0  0  0  0  0  0  0  0  0
    0.7160   -1.7884   -4.1788 C   0  0  0  0  0  0  0  0  0  0  0  0
    1.9688   -1.2238   -3.9182 C   0  0  0  0  0  0  0  0  0  0  0  0
    3.0574   -2.0896   -3.7898 O   0  0  0  0  0  0  0  0  0  0  0  0
  1  2  2  0
  2  3  1  0
  2  4  1  0
  4  5  2  0
  5  6  1  0
  6  7  1  0
  7  8  1  0
  8  9  1  0
  9 10  2  0
 10 11  1  0
 11 12  2  0
 12 13  1  0
 13 14  1  0
 14 15  2  0
 15 16  1  0
 16 17  2  0
 17 18  1  0
 18 19  1  0
 19 20  1  0
 20 21  1  0
 21 22  2  0
 22 23  1  0
 23 24  2  0
 24 25  1  0
 25 26  1  0
 25 27  2  0
 18 28  2  0
 13 29  2  0
  6 30  2  0
 30 31  1  0
 31 32  2  0
 32 33  1  0
 32  4  1  0
 29  9  1  0
 28 14  1  0
 27 21  1  0
M  END
>  <score>  (130) 
-0.431007

$$$$
HIPS6785
     RDKit          3D

 20 20  0  0  0  0  0  0  0  0999 V2000
   -1.7485   -3.1180   -2.2361 C   0  0  0  0  0  0  0  0  0  0  0  0
   -3.2579   -2.1987   -2.4501 S   0  0  0  0  0  6  0  0  0  0  0  0
   -4.2085   -3.0015   -3.2923 O   0  0  0  0  0  0  0  0  0  0  0  0
   -2.9565   -0.9008   -3.1456 O   0  0  0  0  0  0  0  0  0  0  0  0
   -4.0141   -1.8703   -0.8682 C   0  0  0  0  0  0  0  0  0  0  0  0
   -3.0881   -1.0680   -0.0088 C   0  0  0  0  0  0  0  0  0  0  0  0
   -3.1326    0.1907   -0.0595 O   0  0  0  0  0  0  0  0  0  0  0  0
   -2.1541   -1.7319    0.8579 N   0  0  0  0  0  0  0  0  0  0  0  0
   -1.0699   -1.0806    1.4753 N   0  0  0  0  0  0  0  0  0  0  0  0
   -0.3911   -0.1272    0.9117 C   0  0  0  0  0  0  0  0  0  0  0  0
    0.7276    0.5307    1.6172 C   0  0  0  0  0  0  0  0  0  0  0  0
    1.0807    0.1682    2.9261 C   0  0  0  0  0  0  0  0  0  0  0  0
    2.1351    0.8117    3.5743 C   0  0  0  0  0  0  0  0  0  0  0  0
    2.8553    1.8265    2.9355 C   0  0  0  0  0  0  0  0  0  0  0  0
    3.8463    2.4803    3.6712 O   0  0  0  0  0  0  0  0  0  0  0  0
    2.5383    2.1754    1.5987 C   0  0  0  0  0  0  0  0  0  0  0  0
    3.3162    3.1686    0.8254 C   0  0  0  0  0  0  0  0  0  0  0  0
    4.5585    3.2903    0.9976 O   0  0  0  0  0  0  0  0  0  0  0  0
    2.6843    3.9373   -0.1486 O   0  0  0  0  0  0  0  0  0  0  0  0
    1.4595    1.5333    0.9638 C   0  0  0  0  0  0  0  0  0  0  0  0
  1  2  1  0
  2  3  2  0
  2  4  2  0
  2  5  1  0
  5  6  1  0
  6  7  2  0
  6  8  1  0
  8  9  1  0
  9 10  2  0
 10 11  1  0
 11 12  2  0
 12 13  1  0
 13 14  2  0
 14 15  1  0
 14 16  1  0
 16 17  1  0
 17 18  2  0
 17 19  1  0
 16 20  2  0
 20 11  1  0
M  END
>  <score>  (131) 
0.176673

$$$$
HIPS6786
     RDKit          3D

 20 20  0  0  0  0  0  0  0  0999 V2000
    4.2227   -2.1856   -0.6803 C   0  0  0  0  0  0  0  0  0  0  0  0
    3.9737   -1.6199    0.9890 S   0  0  0  0  0  6  0  0  0  0  0  0
    5.0335   -2.2149    1.8724 O   0  0  0  0  0  0  0  0  0  0  0  0
    4.0819   -0.1215    1.0291 O   0  0  0  0  0  0  0  0  0  0  0  0
    2.3687   -2.1267    1.5822 C   0  0  0  0  0  0  0  0  0  0  0  0
    1.2838   -1.5267    0.7432 C   0  0  0  0  0  0  0  0  0  0  0  0
    0.8655   -2.1554   -0.2661 O   0  0  0  0  0  0  0  0  0  0  0  0
    0.7868   -0.2124    1.0446 N   0  0  0  0  0  0  0  0  0  0  0  0
   -0.3134    0.3730    0.3900 N   0  0  0  0  0  0  0  0  0  0  0  0
   -1.3614   -0.2929    0.0086 C   0  0  0  0  0  0  0  0  0  0  0  0
   -2.4740    0.3785   -0.6918 C   0  0  0  0  0  0  0  0  0  0  0  0
   -2.4343    1.7482   -1.0001 C   0  0  0  0  0  0  0  0  0  0  0  0
   -3.5056    2.3476   -1.6647 C   0  0  0  0  0  0  0  0  0  0  0  0
   -4.6174    1.5730   -2.0210 C   0  0  0  0  0  0  0  0  0  0  0  0
   -5.7794    2.1975   -2.7363 C   0  0  0  0  0  0  0  0  0  0  0  0
   -6.7608    1.2542   -2.9864 F   0  0  0  0  0  0  0  0  0  0  0  0
   -6.3169    3.2062   -1.9577 F   0  0  0  0  0  0  0  0  0  0  0  0
   -5.3532    2.7291   -3.9397 F   0  0  0  0  0  0  0  0  0  0  0  0
   -4.6367    0.2467   -1.7141 N   0  0  0  0  0  0  0  0  0  0  0  0
   -3.6057   -0.3595   -1.0674 C   0  0  0  0  0  0  0  0  0  0  0  0
  1  2  1  0
  2  3  2  0
  2  4  2  0
  2  5  1  0
  5  6  1  0
  6  7  2  0
  6  8  1  0
  8  9  1  0
  9 10  2  0
 10 11  1  0
 11 12  2  0
 12 13  1  0
 13 14  2  0
 14 15  1  0
 15 16  1  0
 15 17  1  0
 15 18  1  0
 14 19  1  0
 19 20  2  0
 20 11  1  0
M  END
>  <score>  (132) 
0.98272

$$$$
HIPS6787
     RDKit          3D

 20 21  0  0  0  0  0  0  0  0999 V2000
   -1.2748    2.4228    3.4836 C   0  0  0  0  0  0  0  0  0  0  0  0
   -1.6615    1.4324    2.4257 C   0  0  0  0  0  0  0  0  0  0  0  0
   -0.9421    0.2364    2.2799 C   0  0  0  0  0  0  0  0  0  0  0  0
   -1.3241   -0.7025    1.3172 C   0  0  0  0  0  0  0  0  0  0  0  0
   -2.4381   -0.4641    0.5014 C   0  0  0  0  0  0  0  0  0  0  0  0
   -2.8876   -1.6354   -0.7351 S   0  0  0  0  0  6  0  0  0  0  0  0
   -4.3387   -1.4637   -1.0873 O   0  0  0  0  0  0  0  0  0  0  0  0
   -2.6728   -3.0305   -0.2196 O   0  0  0  0  0  0  0  0  0  0  0  0
   -1.9217   -1.3802   -2.1439 N   0  0  0  0  0  0  0  0  0  0  0  0
   -0.6291   -0.8536   -2.0101 N   0  0  0  0  0  0  0  0  0  0  0  0
    0.1347   -0.6397   -3.0348 C   0  0  0  0  0  0  0  0  0  0  0  0
    1.4884   -0.0786   -2.8634 C   0  0  0  0  0  0  0  0  0  0  0  0
    1.9994    0.2590   -1.6009 C   0  0  0  0  0  0  0  0  0  0  0  0
    3.2507    0.7751   -1.4899 N   0  0  0  0  0  0  0  0  0  0  0  0
    4.0311    0.9645   -2.5863 C   0  0  0  0  0  0  0  0  0  0  0  0
    5.3878    1.5688   -2.4419 C   0  0  0  0  0  0  0  0  0  0  0  0
    3.5507    0.6582   -3.8202 N   0  0  0  0  0  0  0  0  0  0  0  0
    2.3054    0.1398   -3.9786 C   0  0  0  0  0  0  0  0  0  0  0  0
   -3.1642    0.7252    0.6521 C   0  0  0  0  0  0  0  0  0  0  0  0
   -2.7840    1.6642    1.6158 C   0  0  0  0  0  0  0  0  0  0  0  0
  1  2  1  0
  2  3  2  0
  3  4  1  0
  4  5  2  0
  5  6  1  0
  6  7  2  0
  6  8  2  0
  6  9  1  0
  9 10  1  0
 10 11  2  0
 11 12  1  0
 12 13  2  0
 13 14  1  0
 14 15  2  0
 15 16  1  0
 15 17  1  0
 17 18  2  0
  5 19  1  0
 19 20  2  0
 20  2  1  0
 18 12  1  0
M  END
>  <score>  (133) 
1.007412

$$$$
HIPS6788
     RDKit          3D

 21 22  0  0  0  0  0  0  0  0999 V2000
    1.5253   -1.5008    2.4695 O   0  0  0  0  0  0  0  0  0  0  0  0
    0.3950   -1.6370    3.0106 C   0  0  0  0  0  0  0  0  0  0  0  0
   -0.6277   -0.6481    2.8011 N   0  0  0  0  0  0  0  0  0  0  0  0
   -0.5847    0.3008    1.7621 N   0  0  0  0  0  0  0  0  0  0  0  0
   -0.0867    0.0583    0.5871 C   0  0  0  0  0  0  0  0  0  0  0  0
   -0.0558    1.1035   -0.4550 C   0  0  0  0  0  0  0  0  0  0  0  0
    0.4644    0.8066   -1.7220 C   0  0  0  0  0  0  0  0  0  0  0  0
    0.4994    1.7877   -2.7142 C   0  0  0  0  0  0  0  0  0  0  0  0
    0.0110    3.0705   -2.4335 C   0  0  0  0  0  0  0  0  0  0  0  0
    0.0394    4.1403   -3.4856 C   0  0  0  0  0  0  0  0  0  0  0  0
   -0.4908    5.3204   -2.9940 F   0  0  0  0  0  0  0  0  0  0  0  0
    1.3446    4.3675   -3.8823 F   0  0  0  0  0  0  0  0  0  0  0  0
   -0.7051    3.7368   -4.5789 F   0  0  0  0  0  0  0  0  0  0  0  0
   -0.4901    3.3414   -1.1970 N   0  0  0  0  0  0  0  0  0  0  0  0
   -0.5348    2.4026   -0.2144 C   0  0  0  0  0  0  0  0  0  0  0  0
    0.1569   -2.7948    3.8899 C   0  0  0  0  0  0  0  0  0  0  0  0
   -1.0540   -3.1593    4.4759 C   0  0  0  0  0  0  0  0  0  0  0  0
   -0.9669   -4.3232    5.2494 C   0  0  0  0  0  0  0  0  0  0  0  0
    0.3061   -4.8722    5.2677 C   0  0  0  0  0  0  0  0  0  0  0  0
    0.7817   -6.3244    6.1225 Cl  0  0  0  0  0  0  0  0  0  0  0  0
    1.3271   -3.9256    4.3288 S   0  0  0  0  0  0  0  0  0  0  0  0
  1  2  2  0
  2  3  1  0
  3  4  1  0
  4  5  2  0
  5  6  1  0
  6  7  2  0
  7  8  1  0
  8  9  2  0
  9 10  1  0
 10 11  1  0
 10 12  1  0
 10 13  1  0
  9 14  1  0
 14 15  2  0
  2 16  1  0
 16 17  2  0
 17 18  1  0
 18 19  2  0
 19 20  1  0
 19 21  1  0
 15  6  1  0
 21 16  1  0
M  END
>  <score>  (134) 
1.032103

$$$$
HIPS6789
     RDKit          3D

 19 20  0  0  0  0  0  0  0  0999 V2000
    2.0457   -0.1955   -1.6535 O   0  0  0  0  0  0  0  0  0  0  0  0
    1.4838   -1.0840   -0.9574 C   0  0  0  0  0  0  0  0  0  0  0  0
    0.1125   -0.9234   -0.5791 N   0  0  0  0  0  0  0  0  0  0  0  0
   -0.5984    0.2179   -0.9829 N   0  0  0  0  0  0  0  0  0  0  0  0
   -1.8415    0.3997   -0.6606 C   0  0  0  0  0  0  0  0  0  0  0  0
   -2.5728    1.6090   -1.0959 C   0  0  0  0  0  0  0  0  0  0  0  0
   -1.9416    2.5990   -1.8733 C   0  0  0  0  0  0  0  0  0  0  0  0
   -2.6455    3.7371   -2.2776 C   0  0  0  0  0  0  0  0  0  0  0  0
   -3.9843    3.9032   -1.9137 C   0  0  0  0  0  0  0  0  0  0  0  0
   -4.6726    5.0426   -2.3242 O   0  0  0  0  0  0  0  0  0  0  0  0
   -4.6205    2.9238   -1.1407 C   0  0  0  0  0  0  0  0  0  0  0  0
   -3.9216    1.7826   -0.7328 C   0  0  0  0  0  0  0  0  0  0  0  0
   -4.5637    0.8498    0.0158 F   0  0  0  0  0  0  0  0  0  0  0  0
    2.2501   -2.2738   -0.5450 C   0  0  0  0  0  0  0  0  0  0  0  0
    3.5837   -2.5263   -0.8582 C   0  0  0  0  0  0  0  0  0  0  0  0
    4.0583   -3.7351   -0.3351 C   0  0  0  0  0  0  0  0  0  0  0  0
    3.0998   -4.4298    0.3869 C   0  0  0  0  0  0  0  0  0  0  0  0
    3.3360   -5.9724    1.1808 Cl  0  0  0  0  0  0  0  0  0  0  0  0
    1.6660   -3.5554    0.3818 S   0  0  0  0  0  0  0  0  0  0  0  0
  1  2  2  0
  2  3  1  0
  3  4  1  0
  4  5  2  0
  5  6  1  0
  6  7  2  0
  7  8  1  0
  8  9  2  0
  9 10  1  0
  9 11  1  0
 11 12  2  0
 12 13  1  0
  2 14  1  0
 14 15  2  0
 15 16  1  0
 16 17  2  0
 17 18  1  0
 17 19  1  0
 12  6  1  0
 19 14  1  0
M  END
>  <score>  (135) 
0.35716

$$$$
HIPS6790
     RDKit          3D

 22 24  0  0  0  0  0  0  0  0999 V2000
   -2.4389   -4.9062    0.8506 O   0  0  0  0  0  0  0  0  0  0  0  0
   -3.0308   -4.7801   -0.2559 C   0  0  0  0  0  0  0  0  0  0  0  0
   -4.0447   -5.6770   -0.5814 O   0  0  0  0  0  0  0  0  0  0  0  0
   -2.6460   -3.6896   -1.1904 C   0  0  0  0  0  0  0  0  0  0  0  0
   -1.6142   -2.7985   -0.8312 C   0  0  0  0  0  0  0  0  0  0  0  0
   -1.2267   -1.7556   -1.6937 C   0  0  0  0  0  0  0  0  0  0  0  0
   -0.2063   -0.8490   -1.3704 O   0  0  0  0  0  0  0  0  0  0  0  0
    0.5320   -0.8613   -0.1511 C   0  0  0  0  0  0  0  0  0  0  0  0
    1.5027    0.2944   -0.1428 C   0  0  0  0  0  0  0  0  0  0  0  0
    2.8769    0.0197   -0.2563 C   0  0  0  0  0  0  0  0  0  0  0  0
    3.8143    1.0518   -0.2610 C   0  0  0  0  0  0  0  0  0  0  0  0
    3.4009    2.3781   -0.1591 C   0  0  0  0  0  0  0  0  0  0  0  0
    2.0380    2.6873   -0.0563 C   0  0  0  0  0  0  0  0  0  0  0  0
    1.6293    4.0271    0.0375 C   0  0  0  0  0  0  0  0  0  0  0  0
    0.2742    4.3445    0.1331 C   0  0  0  0  0  0  0  0  0  0  0  0
   -0.6839    3.3313    0.1347 C   0  0  0  0  0  0  0  0  0  0  0  0
   -0.2953    1.9925    0.0434 C   0  0  0  0  0  0  0  0  0  0  0  0
    1.0705    1.6454   -0.0508 C   0  0  0  0  0  0  0  0  0  0  0  0
   -1.8760   -1.6071   -2.9205 C   0  0  0  0  0  0  0  0  0  0  0  0
   -2.8984   -2.4799   -3.2905 C   0  0  0  0  0  0  0  0  0  0  0  0
   -3.2903   -3.5203   -2.4372 C   0  0  0  0  0  0  0  0  0  0  0  0
   -4.3163   -4.3777   -2.8342 O   0  0  0  0  0  0  0  0  0  0  0  0
  1  2  2  0
  2  3  1  0
  2  4  1  0
  4  5  2  0
  5  6  1  0
  6  7  1  0
  7  8  1  0
  8  9  1  0
  9 10  2  0
 10 11  1  0
 11 12  2  0
 12 13  1  0
 13 14  2  0
 14 15  1  0
 15 16  2  0
 16 17  1  0
 17 18  2  0
  6 19  2  0
 19 20  1  0
 20 21  2  0
 21 22  1  0
 21  4  1  0
 18  9  1  0
 18 13  1  0
M  END
>  <score>  (136) 
0.107624

$$$$
HIPS6794
     RDKit          3D

 23 25  0  0  0  0  0  0  0  0999 V2000
   -3.0317   -3.1880    1.4741 O   0  0  0  0  0  0  0  0  0  0  0  0
   -2.5237   -2.0413    1.6034 C   0  0  0  0  0  0  0  0  0  0  0  0
   -1.5558   -1.8319    2.5827 O   0  0  0  0  0  0  0  0  0  0  0  0
   -2.9473   -0.9299    0.7221 C   0  0  0  0  0  0  0  0  0  0  0  0
   -3.9153   -1.1372   -0.2754 C   0  0  0  0  0  0  0  0  0  0  0  0
   -4.3083   -0.0867   -1.1064 C   0  0  0  0  0  0  0  0  0  0  0  0
   -3.7358    1.1777   -0.9592 C   0  0  0  0  0  0  0  0  0  0  0  0
   -2.7602    1.4085    0.0219 C   0  0  0  0  0  0  0  0  0  0  0  0
   -2.1733    2.7209    0.1322 N   0  0  0  0  0  0  0  0  0  0  0  0
   -0.9650    3.0251    0.8991 C   0  0  0  0  0  0  0  0  0  0  0  0
    0.2171    2.3317    0.2987 C   0  0  0  0  0  0  0  0  0  0  0  0
    0.9100    2.7395   -0.8232 C   0  0  0  0  0  0  0  0  0  0  0  0
    1.8701    1.7736   -1.0403 C   0  0  0  0  0  0  0  0  0  0  0  0
    1.7020    0.8377   -0.0326 C   0  0  0  0  0  0  0  0  0  0  0  0
    2.4489   -0.4252    0.1472 C   0  0  0  0  0  0  0  0  0  0  0  0
    1.7378   -1.5574    0.5820 C   0  0  0  0  0  0  0  0  0  0  0  0
    2.3863   -2.7821    0.7539 C   0  0  0  0  0  0  0  0  0  0  0  0
    3.7544   -2.8896    0.5042 C   0  0  0  0  0  0  0  0  0  0  0  0
    4.4796   -1.7696    0.0929 C   0  0  0  0  0  0  0  0  0  0  0  0
    3.8412   -0.5348   -0.0830 C   0  0  0  0  0  0  0  0  0  0  0  0
    4.8446    0.8515   -0.4972 Cl  0  0  0  0  0  0  0  0  0  0  0  0
    0.7062    1.1988    0.7438 O   0  0  0  0  0  0  0  0  0  0  0  0
   -2.3816    0.3492    0.8710 C   0  0  0  0  0  0  0  0  0  0  0  0
  1  2  2  0
  2  3  1  0
  2  4  1  0
  4  5  2  0
  5  6  1  0
  6  7  2  0
  7  8  1  0
  8  9  1  0
  9 10  1  0
 10 11  1  0
 11 12  2  0
 12 13  1  0
 13 14  2  0
 14 15  1  0
 15 16  2  0
 16 17  1  0
 17 18  2  0
 18 19  1  0
 19 20  2  0
 20 21  1  0
 14 22  1  0
  8 23  2  0
 23  4  1  0
 22 11  1  0
 20 15  1  0
M  END
>  <score>  (137) 
-0.493566

$$$$
HIPS6795
     RDKit          3D

 23 25  0  0  0  0  0  0  0  0999 V2000
    4.8347   -2.6860    2.2804 O   0  0  0  0  0  0  0  0  0  0  0  0
    4.4204   -1.5134    2.0723 C   0  0  0  0  0  0  0  0  0  0  0  0
    4.7031   -0.5161    3.0022 O   0  0  0  0  0  0  0  0  0  0  0  0
    3.6418   -1.1987    0.8537 C   0  0  0  0  0  0  0  0  0  0  0  0
    3.3517   -2.1999   -0.0887 C   0  0  0  0  0  0  0  0  0  0  0  0
    2.6172   -1.8971   -1.2364 C   0  0  0  0  0  0  0  0  0  0  0  0
    2.1623   -0.5962   -1.4588 C   0  0  0  0  0  0  0  0  0  0  0  0
    2.4375    0.4221   -0.5269 C   0  0  0  0  0  0  0  0  0  0  0  0
    1.9782    1.7749   -0.7206 N   0  0  0  0  0  0  0  0  0  0  0  0
    1.1001    2.2006   -1.8103 C   0  0  0  0  0  0  0  0  0  0  0  0
   -0.2638    1.6065   -1.6452 C   0  0  0  0  0  0  0  0  0  0  0  0
   -1.0702    1.1435   -2.6640 C   0  0  0  0  0  0  0  0  0  0  0  0
   -2.2259    0.7030   -2.0552 C   0  0  0  0  0  0  0  0  0  0  0  0
   -2.0536    0.9315   -0.6975 C   0  0  0  0  0  0  0  0  0  0  0  0
   -3.0133    0.6279    0.3894 C   0  0  0  0  0  0  0  0  0  0  0  0
   -2.6612    0.9062    1.7223 C   0  0  0  0  0  0  0  0  0  0  0  0
   -3.5504    0.6263    2.7639 C   0  0  0  0  0  0  0  0  0  0  0  0
   -4.7993    0.0665    2.4882 C   0  0  0  0  0  0  0  0  0  0  0  0
   -5.1627   -0.2153    1.1683 C   0  0  0  0  0  0  0  0  0  0  0  0
   -6.7326   -0.9186    0.8238 Cl  0  0  0  0  0  0  0  0  0  0  0  0
   -4.2755    0.0632    0.1219 C   0  0  0  0  0  0  0  0  0  0  0  0
   -0.8744    1.4751   -0.4909 O   0  0  0  0  0  0  0  0  0  0  0  0
    3.1805    0.1098    0.6238 C   0  0  0  0  0  0  0  0  0  0  0  0
  1  2  2  0
  2  3  1  0
  2  4  1  0
  4  5  2  0
  5  6  1  0
  6  7  2  0
  7  8  1  0
  8  9  1  0
  9 10  1  0
 10 11  1  0
 11 12  2  0
 12 13  1  0
 13 14  2  0
 14 15  1  0
 15 16  2  0
 16 17  1  0
 17 18  2  0
 18 19  1  0
 19 20  1  0
 19 21  2  0
 14 22  1  0
  8 23  2  0
 23  4  1  0
 22 11  1  0
 21 15  1  0
M  END
>  <score>  (138) 
-0.486695

$$$$
HIPS6819
     RDKit          3D

 23 25  0  0  0  0  0  0  0  0999 V2000
    0.2708   -1.4976   -1.9889 O   0  0  0  0  0  0  0  0  0  0  0  0
   -0.9433   -1.8148   -2.1072 C   0  0  0  0  0  0  0  0  0  0  0  0
   -1.3067   -3.1538   -2.2141 O   0  0  0  0  0  0  0  0  0  0  0  0
   -1.9987   -0.7563   -2.0855 C   0  0  0  0  0  0  0  0  0  0  0  0
   -2.3983   -0.4554   -0.6645 C   0  0  0  0  0  0  0  0  0  0  0  0
   -1.6745    0.4994    0.0679 C   0  0  0  0  0  0  0  0  0  0  0  0
   -1.9928    0.7649    1.4139 C   0  0  0  0  0  0  0  0  0  0  0  0
   -1.2775    1.6920    2.1902 O   0  0  0  0  0  0  0  0  0  0  0  0
   -0.1284    2.4179    1.7459 C   0  0  0  0  0  0  0  0  0  0  0  0
    1.0683    1.5054    1.5244 C   0  0  0  0  0  0  0  0  0  0  0  0
    1.1734    0.3293    2.2936 C   0  0  0  0  0  0  0  0  0  0  0  0
    2.2198   -0.5685    2.0948 C   0  0  0  0  0  0  0  0  0  0  0  0
    3.1996   -0.3054    1.1423 C   0  0  0  0  0  0  0  0  0  0  0  0
    3.1592    0.8792    0.3957 C   0  0  0  0  0  0  0  0  0  0  0  0
    4.1720    1.1467   -0.5394 C   0  0  0  0  0  0  0  0  0  0  0  0
    4.1619    2.3359   -1.2687 C   0  0  0  0  0  0  0  0  0  0  0  0
    3.1509    3.2723   -1.0639 C   0  0  0  0  0  0  0  0  0  0  0  0
    2.1340    3.0228   -0.1373 C   0  0  0  0  0  0  0  0  0  0  0  0
    2.1036    1.8132    0.5941 C   0  0  0  0  0  0  0  0  0  0  0  0
   -3.0501    0.0749    2.0137 C   0  0  0  0  0  0  0  0  0  0  0  0
   -3.7696   -0.8825    1.2964 C   0  0  0  0  0  0  0  0  0  0  0  0
   -3.4436   -1.1610   -0.0376 C   0  0  0  0  0  0  0  0  0  0  0  0
   -4.1523   -2.1372   -0.7381 O   0  0  0  0  0  0  0  0  0  0  0  0
  1  2  2  0
  2  3  1  0
  2  4  1  0
  4  5  1  0
  5  6  2  0
  6  7  1  0
  7  8  1  0
  8  9  1  0
  9 10  1  0
 10 11  2  0
 11 12  1  0
 12 13  2  0
 13 14  1  0
 14 15  2  0
 15 16  1  0
 16 17  2  0
 17 18  1  0
 18 19  2  0
  7 20  2  0
 20 21  1  0
 21 22  2  0
 22 23  1  0
 22  5  1  0
 19 10  1  0
 19 14  1  0
M  END
>  <score>  (139) 
0.709324

$$$$
HIPS6826
     RDKit          3D

 24 26  0  0  0  0  0  0  0  0999 V2000
    0.3142   -2.6747   -1.4402 O   0  0  0  0  0  0  0  0  0  0  0  0
    1.4467   -2.1752   -1.6809 C   0  0  0  0  0  0  0  0  0  0  0  0
    2.1829   -2.6668   -2.7554 O   0  0  0  0  0  0  0  0  0  0  0  0
    1.9787   -1.0800   -0.8277 C   0  0  0  0  0  0  0  0  0  0  0  0
    1.1730   -0.5429    0.1965 C   0  0  0  0  0  0  0  0  0  0  0  0
    1.6455    0.4925    1.0253 C   0  0  0  0  0  0  0  0  0  0  0  0
    0.8366    1.0573    2.0763 N   0  0  0  0  0  0  0  0  0  0  0  0
   -0.5891    0.7796    2.2622 C   0  0  0  0  0  0  0  0  0  0  0  0
   -1.4068    1.3615    1.1258 C   0  0  0  0  0  0  0  0  0  0  0  0
   -1.1658    2.6933    0.7383 C   0  0  0  0  0  0  0  0  0  0  0  0
   -1.8599    3.2631   -0.3298 C   0  0  0  0  0  0  0  0  0  0  0  0
   -2.8130    2.5179   -1.0209 C   0  0  0  0  0  0  0  0  0  0  0  0
   -3.0892    1.2061   -0.6349 C   0  0  0  0  0  0  0  0  0  0  0  0
   -2.4104    0.6189    0.4472 C   0  0  0  0  0  0  0  0  0  0  0  0
   -2.7854   -0.7568    0.8440 C   0  0  0  0  0  0  0  0  0  0  0  0
   -3.2935   -1.0149    2.1285 C   0  0  0  0  0  0  0  0  0  0  0  0
   -3.6579   -2.3147    2.4930 C   0  0  0  0  0  0  0  0  0  0  0  0
   -3.5286   -3.3617    1.5762 C   0  0  0  0  0  0  0  0  0  0  0  0
   -3.0400   -3.1097    0.2913 C   0  0  0  0  0  0  0  0  0  0  0  0
   -2.6758   -1.8112   -0.0775 C   0  0  0  0  0  0  0  0  0  0  0  0
    2.9411    0.9842    0.8253 C   0  0  0  0  0  0  0  0  0  0  0  0
    3.7488    0.4643   -0.1849 C   0  0  0  0  0  0  0  0  0  0  0  0
    3.2804   -0.5631   -1.0139 C   0  0  0  0  0  0  0  0  0  0  0  0
    4.1133   -1.0661   -2.0133 O   0  0  0  0  0  0  0  0  0  0  0  0
  1  2  2  0
  2  3  1  0
  2  4  1  0
  4  5  2  0
  5  6  1  0
  6  7  1  0
  7  8  1  0
  8  9  1  0
  9 10  2  0
 10 11  1  0
 11 12  2  0
 12 13  1  0
 13 14  2  0
 14 15  1  0
 15 16  2  0
 16 17  1  0
 17 18  2  0
 18 19  1  0
 19 20  2  0
  6 21  2  0
 21 22  1  0
 22 23  2  0
 23 24  1  0
 23  4  1  0
 14  9  1  0
 20 15  1  0
M  END
>  <score>  (140) 
0.307615

$$$$
HIPS6838
     RDKit          3D

 19 20  0  0  0  0  0  0  0  0999 V2000
   -1.9944    2.5259    0.5379 O   0  0  0  0  0  0  0  0  0  0  0  0
   -2.7310    1.5065    0.4487 C   0  0  0  0  0  0  0  0  0  0  0  0
   -4.1133    1.6559    0.5144 O   0  0  0  0  0  0  0  0  0  0  0  0
   -2.1277    0.1766    0.2123 C   0  0  0  0  0  0  0  0  0  0  0  0
   -0.9810    0.0912   -0.5992 C   0  0  0  0  0  0  0  0  0  0  0  0
   -0.4089   -1.1562   -0.9124 C   0  0  0  0  0  0  0  0  0  0  0  0
    0.7358   -1.2854   -1.7167 O   0  0  0  0  0  0  0  0  0  0  0  0
    1.5014   -0.2006   -2.2421 C   0  0  0  0  0  0  0  0  0  0  0  0
    2.2281    0.5184   -1.1419 C   0  0  0  0  0  0  0  0  0  0  0  0
    2.2690    1.9172   -1.1017 C   0  0  0  0  0  0  0  0  0  0  0  0
    2.9692    2.5336   -0.0653 C   0  0  0  0  0  0  0  0  0  0  0  0
    3.6006    1.7783    0.8703 N   0  0  0  0  0  0  0  0  0  0  0  0
    3.5621    0.4217    0.8117 C   0  0  0  0  0  0  0  0  0  0  0  0
    4.4598   -0.6142    2.1345 Br  0  0  0  0  0  0  0  0  0  0  0  0
    2.8842   -0.1977   -0.1894 N   0  0  0  0  0  0  0  0  0  0  0  0
   -0.9982   -2.3198   -0.4137 C   0  0  0  0  0  0  0  0  0  0  0  0
   -2.1247   -2.2487    0.4058 C   0  0  0  0  0  0  0  0  0  0  0  0
   -2.6837   -1.0122    0.7445 C   0  0  0  0  0  0  0  0  0  0  0  0
   -3.7600   -1.0064    1.6342 O   0  0  0  0  0  0  0  0  0  0  0  0
  1  2  2  0
  2  3  1  0
  2  4  1  0
  4  5  2  0
  5  6  1  0
  6  7  1  0
  7  8  1  0
  8  9  1  0
  9 10  2  0
 10 11  1  0
 11 12  2  0
 12 13  1  0
 13 14  1  0
 13 15  2  0
  6 16  2  0
 16 17  1  0
 17 18  2  0
 18 19  1  0
 18  4  1  0
 15  9  1  0
M  END
>  <score>  (141) 
-0.119735

$$$$
HIPS6839
     RDKit          3D

 18 19  0  0  0  0  0  0  0  0999 V2000
   -3.0720   -1.1142   -4.0227 O   0  0  0  0  0  0  0  0  0  0  0  0
   -2.0169   -0.5219   -3.6711 C   0  0  0  0  0  0  0  0  0  0  0  0
   -1.1853    0.0253   -4.6446 O   0  0  0  0  0  0  0  0  0  0  0  0
   -1.6223   -0.4597   -2.2463 C   0  0  0  0  0  0  0  0  0  0  0  0
   -0.2521   -0.5025   -1.9321 C   0  0  0  0  0  0  0  0  0  0  0  0
    0.1871   -0.5173   -0.6042 C   0  0  0  0  0  0  0  0  0  0  0  0
    1.5703   -0.5647   -0.3637 O   0  0  0  0  0  0  0  0  0  0  0  0
    2.1868   -0.4936    0.9222 C   0  0  0  0  0  0  0  0  0  0  0  0
    2.0342    0.8788    1.5104 C   0  0  0  0  0  0  0  0  0  0  0  0
    1.6032    1.1068    2.8145 C   0  0  0  0  0  0  0  0  0  0  0  0
    1.5946    2.7672    3.0819 S   0  0  0  0  0  0  0  0  0  0  0  0
    2.1447    3.2021    1.5561 C   0  0  0  0  0  0  0  0  0  0  0  0
    2.4439    4.9889    0.9641 Br  0  0  0  0  0  0  0  0  0  0  0  0
    2.3464    2.0530    0.8083 C   0  0  0  0  0  0  0  0  0  0  0  0
   -0.7617   -0.4925    0.4316 C   0  0  0  0  0  0  0  0  0  0  0  0
   -2.1233   -0.4287    0.1352 C   0  0  0  0  0  0  0  0  0  0  0  0
   -2.5661   -0.3893   -1.1911 C   0  0  0  0  0  0  0  0  0  0  0  0
   -3.9375   -0.2464   -1.4134 O   0  0  0  0  0  0  0  0  0  0  0  0
  1  2  2  0
  2  3  1  0
  2  4  1  0
  4  5  2  0
  5  6  1  0
  6  7  1  0
  7  8  1  0
  8  9  1  0
  9 10  2  0
 10 11  1  0
 11 12  1  0
 12 13  1  0
 12 14  2  0
  6 15  2  0
 15 16  1  0
 16 17  2  0
 17 18  1  0
 17  4  1  0
 14  9  1  0
M  END
>  <score>  (142) 
0.380265

$$$$
HIPS6840
     RDKit          3D

 32 34  0  0  0  0  0  0  0  0999 V2000
   -1.1694   -4.3076    0.7230 C   0  0  0  0  0  0  0  0  0  0  0  0
   -1.2753   -3.7335    2.1496 C   0  0  0  0  0  0  0  0  0  0  0  0
   -2.5275   -2.8378    2.2404 C   0  0  0  0  0  0  0  0  0  0  0  0
   -1.4006   -4.8983    3.1526 C   0  0  0  0  0  0  0  0  0  0  0  0
   -0.0082   -2.9007    2.4554 C   0  0  0  0  0  0  0  0  0  0  0  0
   -0.0672   -2.3817    3.7651 O   0  0  0  0  0  0  0  0  0  0  0  0
    1.2215   -1.3031    3.9848 S   0  0  0  0  0  6  0  0  0  0  0  0
    2.5230   -1.9553    3.6033 O   0  0  0  0  0  0  0  0  0  0  0  0
    1.2951   -0.9231    5.4370 O   0  0  0  0  0  0  0  0  0  0  0  0
    0.9559    0.1552    3.0310 C   0  0  0  0  0  0  0  0  0  0  0  0
   -0.0378    1.0621    3.4159 C   0  0  0  0  0  0  0  0  0  0  0  0
   -0.2695    2.2113    2.6585 C   0  0  0  0  0  0  0  0  0  0  0  0
    0.4850    2.4589    1.5092 C   0  0  0  0  0  0  0  0  0  0  0  0
    1.4813    1.5537    1.1019 C   0  0  0  0  0  0  0  0  0  0  0  0
    2.2694    1.8210   -0.1230 C   0  0  0  0  0  0  0  0  0  0  0  0
    2.1323    2.9417   -0.8672 N   0  0  0  0  0  0  0  0  0  0  0  0
    2.9569    2.9485   -1.9496 C   0  0  0  0  0  0  0  0  0  0  0  0
    2.9956    4.1050   -2.9018 C   0  0  0  0  0  0  0  0  0  0  0  0
    1.6761    4.5823   -3.1657 O   0  0  0  0  0  0  0  0  0  0  0  0
    0.6984    3.8947   -3.9041 C   0  0  0  0  0  0  0  0  0  0  0  0
    0.9575    2.6744   -4.5505 C   0  0  0  0  0  0  0  0  0  0  0  0
   -0.0511    2.0318   -5.2679 C   0  0  0  0  0  0  0  0  0  0  0  0
   -1.3329    2.5916   -5.3542 C   0  0  0  0  0  0  0  0  0  0  0  0
   -2.3217    1.9260   -6.0790 O   0  0  0  0  0  0  0  0  0  0  0  0
   -1.6097    3.8192   -4.7100 C   0  0  0  0  0  0  0  0  0  0  0  0
   -2.9527    4.4512   -4.7662 C   0  0  0  0  0  0  0  0  0  0  0  0
   -3.9043    3.8968   -5.3793 O   0  0  0  0  0  0  0  0  0  0  0  0
   -3.1780    5.6715   -4.1337 O   0  0  0  0  0  0  0  0  0  0  0  0
   -0.5798    4.4565   -3.9920 C   0  0  0  0  0  0  0  0  0  0  0  0
    3.7804    1.8332   -2.0735 C   0  0  0  0  0  0  0  0  0  0  0  0
    3.4388    0.8052   -0.7892 S   0  0  0  0  0  0  0  0  0  0  0  0
    1.7091    0.3986    1.8730 C   0  0  0  0  0  0  0  0  0  0  0  0
  1  2  1  0
  2  3  1  0
  2  4  1  0
  2  5  1  0
  5  6  1  0
  6  7  1  0
  7  8  2  0
  7  9  2  0
  7 10  1  0
 10 11  2  0
 11 12  1  0
 12 13  2  0
 13 14  1  0
 14 15  1  0
 15 16  2  0
 16 17  1  0
 17 18  1  0
 18 19  1  0
 19 20  1  0
 20 21  2  0
 21 22  1  0
 22 23  2  0
 23 24  1  0
 23 25  1  0
 25 26  1  0
 26 27  2  0
 26 28  1  0
 25 29  2  0
 17 30  2  0
 30 31  1  0
 14 32  2  0
 32 10  1  0
 31 15  1  0
 29 20  1  0
M  END
>  <score>  (143) 
0.635253

$$$$
HIPS6862
     RDKit          3D

 24 26  0  0  0  0  0  0  0  0999 V2000
    0.9294   -2.2462   -1.8753 O   0  0  0  0  0  0  0  0  0  0  0  0
    1.0025   -2.4039   -0.6265 C   0  0  0  0  0  0  0  0  0  0  0  0
    2.1628   -2.9401   -0.0759 O   0  0  0  0  0  0  0  0  0  0  0  0
   -0.1614   -2.0846    0.2313 C   0  0  0  0  0  0  0  0  0  0  0  0
   -1.4569   -2.2616   -0.2916 C   0  0  0  0  0  0  0  0  0  0  0  0
   -2.5958   -2.0402    0.5078 C   0  0  0  0  0  0  0  0  0  0  0  0
   -3.9105   -2.1443    0.0191 O   0  0  0  0  0  0  0  0  0  0  0  0
   -4.2960   -2.2635   -1.3524 C   0  0  0  0  0  0  0  0  0  0  0  0
   -4.4269   -0.8966   -2.0380 C   0  0  0  0  0  0  0  0  0  0  0  0
   -3.2021   -0.1601   -2.0092 O   0  0  0  0  0  0  0  0  0  0  0  0
   -2.7488    0.6703   -0.9650 C   0  0  0  0  0  0  0  0  0  0  0  0
   -3.5876    1.0677    0.0969 C   0  0  0  0  0  0  0  0  0  0  0  0
   -3.0894    1.8435    1.1447 C   0  0  0  0  0  0  0  0  0  0  0  0
   -1.7529    2.2379    1.1574 C   0  0  0  0  0  0  0  0  0  0  0  0
   -0.9006    1.8686    0.1094 C   0  0  0  0  0  0  0  0  0  0  0  0
    0.4494    2.2525    0.1271 C   0  0  0  0  0  0  0  0  0  0  0  0
    1.3007    1.8755   -0.9133 C   0  0  0  0  0  0  0  0  0  0  0  0
    0.8130    1.1184   -1.9793 C   0  0  0  0  0  0  0  0  0  0  0  0
   -0.5281    0.7279   -2.0106 C   0  0  0  0  0  0  0  0  0  0  0  0
   -1.4011    1.0932   -0.9682 C   0  0  0  0  0  0  0  0  0  0  0  0
   -2.4250   -1.6795    1.8461 C   0  0  0  0  0  0  0  0  0  0  0  0
   -1.1489   -1.4725    2.3681 C   0  0  0  0  0  0  0  0  0  0  0  0
   -0.0154   -1.6384    1.5670 C   0  0  0  0  0  0  0  0  0  0  0  0
    1.2249   -1.3143    2.1203 O   0  0  0  0  0  0  0  0  0  0  0  0
  1  2  2  0
  2  3  1  0
  2  4  1  0
  4  5  2  0
  5  6  1  0
  6  7  1  0
  7  8  1  0
  8  9  1  0
  9 10  1  0
 10 11  1  0
 11 12  2  0
 12 13  1  0
 13 14  2  0
 14 15  1  0
 15 16  2  0
 16 17  1  0
 17 18  2  0
 18 19  1  0
 19 20  2  0
  6 21  2  0
 21 22  1  0
 22 23  2  0
 23 24  1  0
 23  4  1  0
 20 11  1  0
 20 15  1  0
M  END
>  <score>  (144) 
0.461461

$$$$
HIPS6863
     RDKit          3D

 22 24  0  0  0  0  0  0  0  0999 V2000
    1.4603    3.5035    3.8478 O   0  0  0  0  0  0  0  0  0  0  0  0
    0.5688    3.5195    2.9570 C   0  0  0  0  0  0  0  0  0  0  0  0
    0.1642    4.7435    2.4295 O   0  0  0  0  0  0  0  0  0  0  0  0
   -0.0468    2.2584    2.4700 C   0  0  0  0  0  0  0  0  0  0  0  0
   -1.0376    2.3187    1.4717 C   0  0  0  0  0  0  0  0  0  0  0  0
   -1.6339    1.1495    0.9756 C   0  0  0  0  0  0  0  0  0  0  0  0
   -2.6332    1.2262   -0.1501 C   0  0  0  0  0  0  0  0  0  0  0  0
   -1.9515    1.3021   -1.5256 C   0  0  0  0  0  0  0  0  0  0  0  0
   -1.1833    0.0330   -1.8501 C   0  0  0  0  0  0  0  0  0  0  0  0
   -1.9138   -1.0423   -2.3870 C   0  0  0  0  0  0  0  0  0  0  0  0
   -1.2997   -2.2611   -2.6655 C   0  0  0  0  0  0  0  0  0  0  0  0
    0.0546   -2.4409   -2.4026 C   0  0  0  0  0  0  0  0  0  0  0  0
    0.8132   -1.3982   -1.8554 C   0  0  0  0  0  0  0  0  0  0  0  0
    2.1741   -1.6019   -1.5770 C   0  0  0  0  0  0  0  0  0  0  0  0
    2.9397   -0.5790   -1.0197 C   0  0  0  0  0  0  0  0  0  0  0  0
    2.3584    0.6558   -0.7405 C   0  0  0  0  0  0  0  0  0  0  0  0
    1.0080    0.8794   -1.0173 C   0  0  0  0  0  0  0  0  0  0  0  0
    0.2049   -0.1423   -1.5741 C   0  0  0  0  0  0  0  0  0  0  0  0
   -1.2394   -0.0945    1.4851 C   0  0  0  0  0  0  0  0  0  0  0  0
   -0.2609   -0.1700    2.4752 C   0  0  0  0  0  0  0  0  0  0  0  0
    0.3412    0.9942    2.9720 C   0  0  0  0  0  0  0  0  0  0  0  0
    1.3223    0.8878    3.9579 O   0  0  0  0  0  0  0  0  0  0  0  0
  1  2  2  0
  2  3  1  0
  2  4  1  0
  4  5  2  0
  5  6  1  0
  6  7  1  0
  7  8  1  0
  8  9  1  0
  9 10  2  0
 10 11  1  0
 11 12  2  0
 12 13  1  0
 13 14  2  0
 14 15  1  0
 15 16  2  0
 16 17  1  0
 17 18  2  0
  6 19  2  0
 19 20  1  0
 20 21  2  0
 21 22  1  0
 21  4  1  0
 18  9  1  0
 18 13  1  0
M  END
>  <score>  (145) 
-0.401787

$$$$
HIPS6897
     RDKit          3D

 26 29  0  0  0  0  0  0  0  0999 V2000
    6.7748    2.6424    0.8592 N   0  0  0  0  0  0  0  0  0  0  0  0
    7.1667    1.2759    0.8525 C   0  0  0  0  0  0  0  0  0  0  0  0
    8.3020    0.9868    1.2757 O   0  0  0  0  0  0  0  0  0  0  0  0
    6.2528    0.2524    0.3602 C   0  0  0  0  0  0  0  0  0  0  0  0
    4.9987    0.6125   -0.1024 C   0  0  0  0  0  0  0  0  0  0  0  0
    4.1157   -0.3330   -0.5727 C   0  0  0  0  0  0  0  0  0  0  0  0
    2.7860    0.0668   -1.0611 C   0  0  0  0  0  0  0  0  0  0  0  0
    1.9380   -0.7847   -1.5060 N   0  0  0  0  0  0  0  0  0  0  0  0
    0.6638   -0.4427   -1.9788 N   0  0  0  0  0  0  0  0  0  0  0  0
   -0.3907   -0.3842   -1.0274 C   0  0  0  0  0  0  0  0  0  0  0  0
   -0.1521   -0.6355    0.1811 O   0  0  0  0  0  0  0  0  0  0  0  0
   -1.7405   -0.0316   -1.4700 C   0  0  0  0  0  0  0  0  0  0  0  0
   -2.7766   -0.0065   -0.3887 C   0  0  1  0  0  0  0  0  0  0  0  0
   -4.0881    0.3832   -1.0773 C   0  0  0  0  0  0  0  0  0  0  0  0
   -5.2394    0.4556   -0.1298 C   0  0  2  0  0  0  0  0  0  0  0  0
   -4.9239    1.4953    0.9245 C   0  0  0  0  0  0  0  0  0  0  0  0
   -3.6740    1.0340    1.6386 C   0  0  1  0  0  0  0  0  0  0  0  0
   -3.8524   -0.3368    2.2406 C   0  0  0  0  0  0  0  0  0  0  0  0
   -4.1889   -1.3210    1.1527 C   0  0  1  0  0  0  0  0  0  0  0  0
   -5.4578   -0.9144    0.4757 C   0  0  0  0  0  0  0  0  0  0  0  0
   -3.0046   -1.3754    0.2076 C   0  0  0  0  0  0  0  0  0  0  0  0
   -2.5100    1.0268    0.6592 C   0  0  0  0  0  0  0  0  0  0  0  0
    4.5254   -1.6461   -0.5658 C   0  0  0  0  0  0  0  0  0  0  0  0
    5.7868   -2.0190   -0.1019 C   0  0  0  0  0  0  0  0  0  0  0  0
    6.6643   -1.0639    0.3675 C   0  0  0  0  0  0  0  0  0  0  0  0
    7.9330   -1.3968    0.8392 O   0  0  0  0  0  0  0  0  0  0  0  0
  1  2  1  0
  2  3  2  0
  2  4  1  0
  4  5  2  0
  5  6  1  0
  6  7  1  0
  7  8  2  0
  8  9  1  0
  9 10  1  0
 10 11  2  0
 10 12  1  0
 13 12  1  6
 13 14  1  0
 15 14  1  6
 15 16  1  0
 17 16  1  6
 17 18  1  0
 19 18  1  1
 19 20  1  0
 19 21  1  0
 17 22  1  0
  6 23  2  0
 23 24  1  0
 24 25  2  0
 25 26  1  0
 25  4  1  0
 21 13  1  0
 22 13  1  0
 20 15  1  0
M  END
>  <score>  (146) 
0.139713

$$$$
HIPS6920
     RDKit          3D

 33 36  0  0  0  0  0  0  0  0999 V2000
   -8.0825   -0.4268    3.1001 O   0  0  0  0  0  0  0  0  0  0  0  0
   -7.7317    0.6342    2.5157 C   0  0  0  0  0  0  0  0  0  0  0  0
   -8.2663    1.8462    2.9444 O   0  0  0  0  0  0  0  0  0  0  0  0
   -6.7632    0.5822    1.3893 C   0  0  0  0  0  0  0  0  0  0  0  0
   -6.2488   -0.6618    0.9734 C   0  0  0  0  0  0  0  0  0  0  0  0
   -5.3334   -0.7529   -0.0807 C   0  0  0  0  0  0  0  0  0  0  0  0
   -4.8568   -2.0256   -0.4364 O   0  0  0  0  0  0  0  0  0  0  0  0
   -3.8463   -2.2863   -1.4115 C   0  0  0  0  0  0  0  0  0  0  0  0
   -2.5001   -1.8206   -0.9255 C   0  0  0  0  0  0  0  0  0  0  0  0
   -2.0192   -2.2047    0.3307 C   0  0  0  0  0  0  0  0  0  0  0  0
   -0.7978   -1.7845    0.7487 N   0  0  0  0  0  0  0  0  0  0  0  0
   -0.0133   -0.9952   -0.0357 C   0  0  0  0  0  0  0  0  0  0  0  0
    1.3175   -0.5464    0.4447 C   0  0  0  0  0  0  0  0  0  0  0  0
    1.7799   -0.9161    1.7209 C   0  0  0  0  0  0  0  0  0  0  0  0
    3.0316   -0.4912    2.1706 C   0  0  0  0  0  0  0  0  0  0  0  0
    3.8396    0.3041    1.3567 C   0  0  0  0  0  0  0  0  0  0  0  0
    3.3991    0.6811    0.0748 C   0  0  0  0  0  0  0  0  0  0  0  0
    4.1728    1.4738   -0.7887 O   0  0  0  0  0  0  0  0  0  0  0  0
    5.5143    1.8970   -0.5412 C   0  0  0  0  0  0  0  0  0  0  0  0
    6.4652    0.7309   -0.6057 C   0  0  0  0  0  0  0  0  0  0  0  0
    7.3972    0.5123    0.4224 C   0  0  0  0  0  0  0  0  0  0  0  0
    8.2831   -0.5670    0.3518 C   0  0  0  0  0  0  0  0  0  0  0  0
    8.2519   -1.4292   -0.7474 C   0  0  0  0  0  0  0  0  0  0  0  0
    7.3363   -1.2114   -1.7820 C   0  0  0  0  0  0  0  0  0  0  0  0
    7.3012   -2.2908   -3.1643 Cl  0  0  0  0  0  0  0  0  0  0  0  0
    6.4486   -0.1316   -1.7146 C   0  0  0  0  0  0  0  0  0  0  0  0
    2.1403    0.2566   -0.3685 C   0  0  0  0  0  0  0  0  0  0  0  0
   -0.4618   -0.6246   -1.2666 N   0  0  0  0  0  0  0  0  0  0  0  0
   -1.6767   -1.0211   -1.7253 C   0  0  0  0  0  0  0  0  0  0  0  0
   -4.9278    0.4193   -0.7402 C   0  0  0  0  0  0  0  0  0  0  0  0
   -5.4281    1.6584   -0.3408 C   0  0  0  0  0  0  0  0  0  0  0  0
   -6.3406    1.7521    0.7187 C   0  0  0  0  0  0  0  0  0  0  0  0
   -6.8209    3.0059    1.0966 O   0  0  0  0  0  0  0  0  0  0  0  0
  1  2  2  0
  2  3  1  0
  2  4  1  0
  4  5  2  0
  5  6  1  0
  6  7  1  0
  7  8  1  0
  8  9  1  0
  9 10  2  0
 10 11  1  0
 11 12  2  0
 12 13  1  0
 13 14  2  0
 14 15  1  0
 15 16  2  0
 16 17  1  0
 17 18  1  0
 18 19  1  0
 19 20  1  0
 20 21  2  0
 21 22  1  0
 22 23  2  0
 23 24  1  0
 24 25  1  0
 24 26  2  0
 17 27  2  0
 12 28  1  0
 28 29  2  0
  6 30  2  0
 30 31  1  0
 31 32  2  0
 32 33  1  0
 32  4  1  0
 29  9  1  0
 27 13  1  0
 26 20  1  0
M  END
>  <score>  (147) 
-0.557854

$$$$
HIPS6933
     RDKit          3D

 34 38  0  0  0  0  0  0  0  0999 V2000
   -0.7793    3.9180    4.9720 O   0  0  0  0  0  0  0  0  0  0  0  0
   -0.5426    3.2233    3.9469 C   0  0  0  0  0  0  0  0  0  0  0  0
    0.5772    3.6453    3.0370 C   0  0  0  0  0  0  0  0  0  0  0  0
    0.6432    2.8518    1.8517 O   0  0  0  0  0  0  0  0  0  0  0  0
    1.2930    1.6101    1.7303 C   0  0  0  0  0  0  0  0  0  0  0  0
    1.8406    0.9465    2.8464 C   0  0  0  0  0  0  0  0  0  0  0  0
    2.4906   -0.2792    2.6953 C   0  0  0  0  0  0  0  0  0  0  0  0
    2.6104   -0.8638    1.4343 C   0  0  0  0  0  0  0  0  0  0  0  0
    2.0677   -0.2278    0.3098 C   0  0  0  0  0  0  0  0  0  0  0  0
    2.1977   -0.8059   -0.9621 C   0  0  0  0  0  0  0  0  0  0  0  0
    1.6607   -0.1668   -2.0811 C   0  0  0  0  0  0  0  0  0  0  0  0
    0.9701    1.0382   -1.9398 C   0  0  0  0  0  0  0  0  0  0  0  0
    0.8383    1.6297   -0.6813 C   0  0  0  0  0  0  0  0  0  0  0  0
    1.3922    1.0118    0.4565 C   0  0  0  0  0  0  0  0  0  0  0  0
   -1.3615    2.0833    3.6635 N   0  0  0  0  0  0  0  0  0  0  0  0
   -2.5803    1.9182    4.3413 N   0  0  0  0  0  0  0  0  0  0  0  0
   -3.4609    1.0022    4.0620 C   0  0  0  0  0  0  0  0  0  0  0  0
   -3.3315    0.0375    2.9536 C   0  0  0  0  0  0  0  0  0  0  0  0
   -3.6439   -1.3144    3.0407 C   0  0  0  0  0  0  0  0  0  0  0  0
   -3.5808   -1.8970    1.8227 N   0  0  0  0  0  0  0  0  0  0  0  0
   -3.2606   -0.9193    0.9588 C   0  0  0  0  0  0  0  0  0  0  0  0
   -3.1674   -1.0264   -0.4274 C   0  0  0  0  0  0  0  0  0  0  0  0
   -2.8866    0.1450   -1.1717 C   0  0  0  0  0  0  0  0  0  0  0  0
   -2.8058    0.1431   -2.5735 O   0  0  0  0  0  0  0  0  0  0  0  0
   -3.2490   -0.9195   -3.4197 C   0  0  0  0  0  0  0  0  0  0  0  0
   -2.2192   -2.0138   -3.5073 C   0  0  0  0  0  0  0  0  0  0  0  0
   -2.5648   -3.3468   -3.2179 C   0  0  0  0  0  0  0  0  0  0  0  0
   -1.6129   -4.3637   -3.3404 C   0  0  0  0  0  0  0  0  0  0  0  0
   -0.3169   -4.0613   -3.7664 C   0  0  0  0  0  0  0  0  0  0  0  0
    0.0288   -2.7418   -4.0742 C   0  0  0  0  0  0  0  0  0  0  0  0
   -0.9176   -1.7200   -3.9453 C   0  0  0  0  0  0  0  0  0  0  0  0
   -2.7076    1.3735   -0.4952 C   0  0  0  0  0  0  0  0  0  0  0  0
   -2.8422    1.4568    0.9025 C   0  0  0  0  0  0  0  0  0  0  0  0
   -3.1008    0.2798    1.6071 C   0  0  0  0  0  0  0  0  0  0  0  0
  1  2  2  0
  2  3  1  0
  3  4  1  0
  4  5  1  0
  5  6  2  0
  6  7  1  0
  7  8  2  0
  8  9  1  0
  9 10  2  0
 10 11  1  0
 11 12  2  0
 12 13  1  0
 13 14  2  0
  2 15  1  0
 15 16  1  0
 16 17  2  0
 17 18  1  0
 18 19  2  0
 19 20  1  0
 20 21  1  0
 21 22  2  0
 22 23  1  0
 23 24  1  0
 24 25  1  0
 25 26  1  0
 26 27  2  0
 27 28  1  0
 28 29  2  0
 29 30  1  0
 30 31  2  0
 23 32  2  0
 32 33  1  0
 33 34  2  0
 14  5  1  0
 34 18  1  0
 14  9  1  0
 34 21  1  0
 31 26  1  0
M  END
>  <score>  (148) 
0.769153

$$$$
HIPS6968
     RDKit          3D

 23 25  0  0  0  0  0  0  0  0999 V2000
    7.0476   -1.2906    0.1519 O   0  0  0  0  0  0  0  0  0  0  0  0
    6.4197   -0.4229   -0.5139 C   0  0  0  0  0  0  0  0  0  0  0  0
    7.1129    0.3348   -1.4539 O   0  0  0  0  0  0  0  0  0  0  0  0
    4.9643   -0.2195   -0.2918 C   0  0  0  0  0  0  0  0  0  0  0  0
    4.2927   -1.0022    0.6664 C   0  0  0  0  0  0  0  0  0  0  0  0
    2.9257   -0.8346    0.8977 C   0  0  0  0  0  0  0  0  0  0  0  0
    2.1962    0.1228    0.1737 C   0  0  0  0  0  0  0  0  0  0  0  0
    0.8226    0.3290    0.3689 O   0  0  0  0  0  0  0  0  0  0  0  0
    0.0229   -0.3924    1.3016 C   0  0  0  0  0  0  0  0  0  0  0  0
   -1.3923    0.1006    1.2213 C   0  0  0  0  0  0  0  0  0  0  0  0
   -1.8173    1.1615    2.0335 C   0  0  0  0  0  0  0  0  0  0  0  0
   -3.1216    1.6468    1.9286 C   0  0  0  0  0  0  0  0  0  0  0  0
   -4.0080    1.0881    1.0049 C   0  0  0  0  0  0  0  0  0  0  0  0
   -3.5967    0.0348    0.1673 C   0  0  0  0  0  0  0  0  0  0  0  0
   -4.5349   -0.5550   -0.8220 C   0  0  0  0  0  0  0  0  0  0  0  0
   -5.5825    0.1640   -1.4294 C   0  0  0  0  0  0  0  0  0  0  0  0
   -6.3345   -0.5864   -2.3216 C   0  0  0  0  0  0  0  0  0  0  0  0
   -5.7040   -2.1411   -2.3583 S   0  0  0  0  0  0  0  0  0  0  0  0
   -4.4705   -1.8820   -1.2483 C   0  0  0  0  0  0  0  0  0  0  0  0
   -2.2791   -0.4488    0.2814 C   0  0  0  0  0  0  0  0  0  0  0  0
    2.8555    0.9037   -0.7791 C   0  0  0  0  0  0  0  0  0  0  0  0
    4.2284    0.7433   -1.0192 C   0  0  0  0  0  0  0  0  0  0  0  0
    4.8506    1.5420   -1.9787 O   0  0  0  0  0  0  0  0  0  0  0  0
  1  2  2  0
  2  3  1  0
  2  4  1  0
  4  5  2  0
  5  6  1  0
  6  7  2  0
  7  8  1  0
  8  9  1  0
  9 10  1  0
 10 11  2  0
 11 12  1  0
 12 13  2  0
 13 14  1  0
 14 15  1  0
 15 16  1  0
 16 17  2  0
 17 18  1  0
 18 19  1  0
 14 20  2  0
  7 21  1  0
 21 22  2  0
 22 23  1  0
 22  4  1  0
 20 10  1  0
 19 15  2  0
M  END
>  <score>  (149) 
-0.059906

$$$$
HIPS6969
     RDKit          3D

 25 27  0  0  0  0  0  0  0  0999 V2000
    2.2049   -6.2898   -2.1029 O   0  0  0  0  0  0  0  0  0  0  0  0
    2.8978   -5.3759   -1.5819 C   0  0  0  0  0  0  0  0  0  0  0  0
    4.0673   -5.7020   -0.9000 O   0  0  0  0  0  0  0  0  0  0  0  0
    2.4963   -3.9414   -1.7730 C   0  0  0  0  0  0  0  0  0  0  0  0
    2.9650   -3.0234   -0.6314 C   0  0  0  0  0  0  0  0  0  0  0  0
    2.2686   -3.2963    0.7140 C   0  0  0  0  0  0  0  0  0  0  0  0
    0.8026   -2.9143    0.6884 C   0  0  0  0  0  0  0  0  0  0  0  0
    0.4760   -1.5504    0.8012 C   0  0  0  0  0  0  0  0  0  0  0  0
   -0.8528   -1.1169    0.7748 C   0  0  0  0  0  0  0  0  0  0  0  0
   -1.1060    0.2562    0.9010 O   0  0  0  0  0  0  0  0  0  0  0  0
   -2.4000    0.8504    0.8496 C   0  0  0  0  0  0  0  0  0  0  0  0
   -2.2591    2.3498    0.9553 C   0  0  0  0  0  0  0  0  0  0  0  0
   -2.7026    2.9858    2.1284 C   0  0  0  0  0  0  0  0  0  0  0  0
   -2.5716    4.3651    2.2866 C   0  0  0  0  0  0  0  0  0  0  0  0
   -1.9895    5.1368    1.2824 C   0  0  0  0  0  0  0  0  0  0  0  0
   -1.5346    4.5334    0.1020 C   0  0  0  0  0  0  0  0  0  0  0  0
   -0.9434    5.3178   -0.9023 C   0  0  0  0  0  0  0  0  0  0  0  0
   -0.4829    4.7250   -2.0783 C   0  0  0  0  0  0  0  0  0  0  0  0
   -0.6029    3.3477   -2.2617 C   0  0  0  0  0  0  0  0  0  0  0  0
   -1.1846    2.5516   -1.2718 C   0  0  0  0  0  0  0  0  0  0  0  0
   -1.6628    3.1282   -0.0739 C   0  0  0  0  0  0  0  0  0  0  0  0
   -1.8802   -2.0639    0.6318 C   0  0  0  0  0  0  0  0  0  0  0  0
   -1.5733   -3.4192    0.5122 C   0  0  0  0  0  0  0  0  0  0  0  0
   -0.2451   -3.8597    0.5357 C   0  0  0  0  0  0  0  0  0  0  0  0
   -0.0196   -5.2315    0.4003 O   0  0  0  0  0  0  0  0  0  0  0  0
  1  2  2  0
  2  3  1  0
  2  4  1  0
  4  5  1  0
  5  6  1  0
  6  7  1  0
  7  8  2  0
  8  9  1  0
  9 10  1  0
 10 11  1  0
 11 12  1  0
 12 13  2  0
 13 14  1  0
 14 15  2  0
 15 16  1  0
 16 17  2  0
 17 18  1  0
 18 19  2  0
 19 20  1  0
 20 21  2  0
  9 22  2  0
 22 23  1  0
 23 24  2  0
 24 25  1  0
 24  7  1  0
 21 12  1  0
 21 16  1  0
M  END
>  <score>  (150) 
0.804191

$$$$
HIPS6978
     RDKit          3D

 33 38  0  0  0  0  0  0  0  0999 V2000
   -2.4655    1.6912   -0.8825 O   0  0  0  0  0  0  0  0  0  0  0  0
   -2.3264    1.7593    0.3585 C   0  0  0  0  0  0  0  0  0  0  0  0
   -3.3559    1.2743    1.2878 C   0  0  0  0  0  0  0  0  0  0  0  0
   -4.5537    0.6973    0.6083 C   0  0  1  0  0  0  0  0  0  0  0  0
   -4.2790   -0.4750   -0.2721 C   0  0  0  0  0  0  0  0  0  0  0  0
   -5.5526   -0.9412   -0.9355 C   0  0  2  0  0  0  0  0  0  0  0  0
   -6.2901    0.1476   -1.6591 C   0  0  0  0  0  0  0  0  0  0  0  0
   -6.6178    1.2457   -0.6886 C   0  0  1  0  0  0  0  0  0  0  0  0
   -7.4270    0.8091    0.4842 C   0  0  0  0  0  0  0  0  0  0  0  0
   -6.7272   -0.3719    1.1617 C   0  0  1  0  0  0  0  0  0  0  0  0
   -6.4859   -1.4566    0.1642 C   0  0  0  0  0  0  0  0  0  0  0  0
   -5.4493    0.1747    1.7360 C   0  0  0  0  0  0  0  0  0  0  0  0
   -5.2695    1.7578   -0.1630 C   0  0  0  0  0  0  0  0  0  0  0  0
   -1.1181    2.3318    0.9113 N   0  0  0  0  0  0  0  0  0  0  0  0
   -0.1410    2.7921    0.0703 N   0  0  0  0  0  0  0  0  0  0  0  0
    0.9485    2.2142   -0.2563 C   0  0  0  0  0  0  0  0  0  0  0  0
    1.2707    0.9134    0.2802 C   0  0  0  0  0  0  0  0  0  0  0  0
    0.6021    0.0935    1.1387 C   0  0  0  0  0  0  0  0  0  0  0  0
    1.3209   -1.0406    1.3448 N   0  0  0  0  0  0  0  0  0  0  0  0
    2.4801   -0.9877    0.6230 C   0  0  0  0  0  0  0  0  0  0  0  0
    3.5245   -1.8575    0.4867 C   0  0  0  0  0  0  0  0  0  0  0  0
    4.6085   -1.5337   -0.3421 C   0  0  0  0  0  0  0  0  0  0  0  0
    5.6365   -2.4143   -0.4646 O   0  0  0  0  0  0  0  0  0  0  0  0
    6.8170   -2.4868   -1.1145 C   0  0  0  0  0  0  0  0  0  0  0  0
    7.8633   -1.4925   -0.8039 C   0  0  0  0  0  0  0  0  0  0  0  0
    8.6636   -1.6959    0.3152 C   0  0  0  0  0  0  0  0  0  0  0  0
    9.6778   -0.8188    0.6359 C   0  0  0  0  0  0  0  0  0  0  0  0
    9.9223    0.2897   -0.1546 C   0  0  0  0  0  0  0  0  0  0  0  0
    9.1284    0.4976   -1.2710 C   0  0  0  0  0  0  0  0  0  0  0  0
    8.1008   -0.4003   -1.5872 C   0  0  0  0  0  0  0  0  0  0  0  0
    4.5574   -0.3267   -0.9885 C   0  0  0  0  0  0  0  0  0  0  0  0
    3.4960    0.5363   -0.8379 C   0  0  0  0  0  0  0  0  0  0  0  0
    2.4320    0.2198   -0.0247 C   0  0  0  0  0  0  0  0  0  0  0  0
  1  2  2  0
  2  3  1  0
  4  3  1  1
  4  5  1  0
  6  5  1  1
  6  7  1  0
  8  7  1  6
  8  9  1  0
 10  9  1  6
 10 11  1  0
 10 12  1  0
  8 13  1  0
  2 14  1  0
 14 15  1  0
 15 16  2  0
 16 17  1  0
 17 18  2  0
 18 19  1  0
 19 20  1  0
 20 21  2  0
 21 22  1  0
 22 23  1  0
 23 24  1  0
 24 25  1  0
 25 26  2  0
 26 27  1  0
 27 28  2  0
 28 29  1  0
 29 30  2  0
 22 31  2  0
 31 32  1  0
 32 33  2  0
 12  4  1  0
 33 17  1  0
 13  4  1  0
 33 20  1  0
 11  6  1  0
 30 25  1  0
M  END
>  <score>  (151) 
0.877782

$$$$
HIPS6980
     RDKit          3D

 31 34  0  0  0  0  0  0  0  0999 V2000
   -6.6010   -3.1532   -3.3674 O   0  0  0  0  0  0  0  0  0  0  0  0
   -6.3146   -2.7358   -2.2108 C   0  0  0  0  0  0  0  0  0  0  0  0
   -6.1887   -3.6465   -1.1716 O   0  0  0  0  0  0  0  0  0  0  0  0
   -6.0673   -1.2972   -1.9663 C   0  0  0  0  0  0  0  0  0  0  0  0
   -5.0586   -0.9365   -1.0546 C   0  0  0  0  0  0  0  0  0  0  0  0
   -4.7389    0.4066   -0.8293 C   0  0  0  0  0  0  0  0  0  0  0  0
   -3.7078    0.7001    0.0737 O   0  0  0  0  0  0  0  0  0  0  0  0
   -3.3020    2.0153    0.4460 C   0  0  0  0  0  0  0  0  0  0  0  0
   -2.1671    1.9162    1.4249 C   0  0  0  0  0  0  0  0  0  0  0  0
   -2.3886    2.0980    2.7982 C   0  0  0  0  0  0  0  0  0  0  0  0
   -1.3358    1.9511    3.7043 C   0  0  0  0  0  0  0  0  0  0  0  0
   -0.0610    1.6035    3.2510 C   0  0  0  0  0  0  0  0  0  0  0  0
    0.1754    1.4022    1.8804 C   0  0  0  0  0  0  0  0  0  0  0  0
    1.5153    0.9913    1.3969 C   0  0  0  0  0  0  0  0  0  0  0  0
    2.0696    1.5772    0.2454 C   0  0  0  0  0  0  0  0  0  0  0  0
    3.3201    1.1690   -0.2225 C   0  0  0  0  0  0  0  0  0  0  0  0
    4.0200    0.1573    0.4385 C   0  0  0  0  0  0  0  0  0  0  0  0
    3.4685   -0.4561    1.5760 C   0  0  0  0  0  0  0  0  0  0  0  0
    4.1366   -1.4837    2.2568 O   0  0  0  0  0  0  0  0  0  0  0  0
    4.8681   -2.5190    1.6493 C   0  0  0  0  0  0  0  0  0  0  0  0
    4.6167   -2.9413    0.3313 C   0  0  0  0  0  0  0  0  0  0  0  0
    5.3436   -4.0088   -0.2002 C   0  0  0  0  0  0  0  0  0  0  0  0
    6.2812   -4.6393    0.5572 N   0  0  0  0  0  0  0  0  0  0  0  0
    6.5423   -4.2545    1.8339 C   0  0  0  0  0  0  0  0  0  0  0  0
    5.8396   -3.1879    2.4013 C   0  0  0  0  0  0  0  0  0  0  0  0
    2.2351   -0.0149    2.0664 C   0  0  0  0  0  0  0  0  0  0  0  0
   -0.8860    1.5641    0.9728 C   0  0  0  0  0  0  0  0  0  0  0  0
   -5.4446    1.4090   -1.5192 C   0  0  0  0  0  0  0  0  0  0  0  0
   -6.4602    1.0642   -2.4103 C   0  0  0  0  0  0  0  0  0  0  0  0
   -6.7949   -0.2767   -2.6272 C   0  0  0  0  0  0  0  0  0  0  0  0
   -7.8714   -0.5490   -3.4704 O   0  0  0  0  0  0  0  0  0  0  0  0
  1  2  2  0
  2  3  1  0
  2  4  1  0
  4  5  2  0
  5  6  1  0
  6  7  1  0
  7  8  1  0
  8  9  1  0
  9 10  2  0
 10 11  1  0
 11 12  2  0
 12 13  1  0
 13 14  1  0
 14 15  2  0
 15 16  1  0
 16 17  2  0
 17 18  1  0
 18 19  1  0
 19 20  1  0
 20 21  2  0
 21 22  1  0
 22 23  2  0
 23 24  1  0
 24 25  2  0
 18 26  2  0
 13 27  2  0
  6 28  2  0
 28 29  1  0
 29 30  2  0
 30 31  1  0
 30  4  1  0
 27  9  1  0
 26 14  1  0
 25 20  1  0
M  END
>  <score>  (152) 
0.540856

$$$$
HIPS6981
     RDKit          3D

 32 35  0  0  0  0  0  0  0  0999 V2000
    5.1188    3.2041    1.6012 O   0  0  0  0  0  0  0  0  0  0  0  0
    4.2635    2.4946    2.1988 C   0  0  0  0  0  0  0  0  0  0  0  0
    2.9502    2.9537    2.3052 O   0  0  0  0  0  0  0  0  0  0  0  0
    4.6230    1.1593    2.7296 C   0  0  0  0  0  0  0  0  0  0  0  0
    3.6514    0.1423    2.6886 C   0  0  0  0  0  0  0  0  0  0  0  0
    3.9600   -1.1687    3.0971 C   0  0  0  0  0  0  0  0  0  0  0  0
    3.0213   -2.2131    3.0680 O   0  0  0  0  0  0  0  0  0  0  0  0
    1.6570   -2.0889    2.6679 C   0  0  0  0  0  0  0  0  0  0  0  0
    1.5406   -1.9454    1.1744 C   0  0  0  0  0  0  0  0  0  0  0  0
    2.1293   -2.8982    0.3287 C   0  0  0  0  0  0  0  0  0  0  0  0
    1.9862   -2.7942   -1.0559 C   0  0  0  0  0  0  0  0  0  0  0  0
    1.2500   -1.7434   -1.6098 C   0  0  0  0  0  0  0  0  0  0  0  0
    0.6474   -0.7799   -0.7803 C   0  0  0  0  0  0  0  0  0  0  0  0
   -0.1674    0.3185   -1.3652 C   0  0  0  0  0  0  0  0  0  0  0  0
    0.2338    0.9615   -2.5494 C   0  0  0  0  0  0  0  0  0  0  0  0
   -0.5613    1.9634   -3.1165 C   0  0  0  0  0  0  0  0  0  0  0  0
   -1.7691    2.3256   -2.5188 C   0  0  0  0  0  0  0  0  0  0  0  0
   -2.1815    1.6949   -1.3397 C   0  0  0  0  0  0  0  0  0  0  0  0
   -3.3905    2.0452   -0.7261 O   0  0  0  0  0  0  0  0  0  0  0  0
   -4.6429    1.9672   -1.3600 C   0  0  0  0  0  0  0  0  0  0  0  0
   -4.8465    1.1958   -2.5218 C   0  0  0  0  0  0  0  0  0  0  0  0
   -6.1262    1.0805   -3.0775 C   0  0  0  0  0  0  0  0  0  0  0  0
   -7.2090    1.7415   -2.4883 C   0  0  0  0  0  0  0  0  0  0  0  0
   -8.4523    1.6247   -3.0258 F   0  0  0  0  0  0  0  0  0  0  0  0
   -7.0101    2.5307   -1.3513 C   0  0  0  0  0  0  0  0  0  0  0  0
   -5.7320    2.6347   -0.7837 C   0  0  0  0  0  0  0  0  0  0  0  0
   -1.3743    0.7111   -0.7571 C   0  0  0  0  0  0  0  0  0  0  0  0
    0.7975   -0.8937    0.6146 C   0  0  0  0  0  0  0  0  0  0  0  0
    5.2494   -1.4540    3.5545 C   0  0  0  0  0  0  0  0  0  0  0  0
    6.2151   -0.4505    3.6279 C   0  0  0  0  0  0  0  0  0  0  0  0
    5.9127    0.8593    3.2419 C   0  0  0  0  0  0  0  0  0  0  0  0
    6.9027    1.8311    3.4142 O   0  0  0  0  0  0  0  0  0  0  0  0
  1  2  2  0
  2  3  1  0
  2  4  1  0
  4  5  2  0
  5  6  1  0
  6  7  1  0
  7  8  1  0
  8  9  1  0
  9 10  2  0
 10 11  1  0
 11 12  2  0
 12 13  1  0
 13 14  1  0
 14 15  2  0
 15 16  1  0
 16 17  2  0
 17 18  1  0
 18 19  1  0
 19 20  1  0
 20 21  2  0
 21 22  1  0
 22 23  2  0
 23 24  1  0
 23 25  1  0
 25 26  2  0
 18 27  2  0
 13 28  2  0
  6 29  2  0
 29 30  1  0
 30 31  2  0
 31 32  1  0
 31  4  1  0
 28  9  1  0
 27 14  1  0
 26 20  1  0
M  END
>  <score>  (153) 
-0.839276

$$$$
HIPS6982
     RDKit          3D

 31 34  0  0  0  0  0  0  0  0999 V2000
   -6.5863    3.8093    0.5087 O   0  0  0  0  0  0  0  0  0  0  0  0
   -5.5154    3.5656   -0.1013 C   0  0  0  0  0  0  0  0  0  0  0  0
   -4.5793    4.5529   -0.3328 O   0  0  0  0  0  0  0  0  0  0  0  0
   -5.2330    2.2001   -0.5893 C   0  0  0  0  0  0  0  0  0  0  0  0
   -4.0809    1.9046   -1.2532 C   0  0  0  0  0  0  0  0  0  0  0  0
   -3.7764    0.6138   -1.7332 C   0  0  0  0  0  0  0  0  0  0  0  0
   -2.6292    0.3956   -2.3762 O   0  0  0  0  0  0  0  0  0  0  0  0
   -1.9078   -0.5654   -2.9771 C   0  0  0  0  0  0  0  0  0  0  0  0
   -1.4980   -1.6895   -2.0885 C   0  0  0  0  0  0  0  0  0  0  0  0
   -2.2255   -2.8520   -2.0590 C   0  0  0  0  0  0  0  0  0  0  0  0
   -1.8117   -3.8649   -1.2089 C   0  0  0  0  0  0  0  0  0  0  0  0
   -0.6924   -3.7208   -0.4030 C   0  0  0  0  0  0  0  0  0  0  0  0
    0.0512   -2.5568   -0.4211 C   0  0  0  0  0  0  0  0  0  0  0  0
    1.2295   -2.4042    0.4303 C   0  0  0  0  0  0  0  0  0  0  0  0
    2.0530   -3.4494    0.7912 C   0  0  0  0  0  0  0  0  0  0  0  0
    3.1573   -3.2864    1.5948 C   0  0  0  0  0  0  0  0  0  0  0  0
    3.4521   -2.0270    2.0575 C   0  0  0  0  0  0  0  0  0  0  0  0
    2.6714   -0.9373    1.7348 C   0  0  0  0  0  0  0  0  0  0  0  0
    2.9832    0.4384    2.2174 C   0  0  0  0  0  0  0  0  0  0  0  0
    3.7410    1.1460    1.2723 N   0  0  0  0  0  0  0  0  0  0  0  0
    4.1142    2.4975    1.6063 C   0  0  0  0  0  0  0  0  0  0  0  0
    4.4701    3.1976    0.3286 C   0  0  0  0  0  0  0  0  0  0  0  0
    5.4946    2.6043   -0.3296 O   0  0  0  0  0  0  0  0  0  0  0  0
    5.8806    1.3894    0.1322 C   0  0  0  0  0  0  0  0  0  0  0  0
    4.7468    0.4573    0.5324 C   0  0  0  0  0  0  0  0  0  0  0  0
    1.5568   -1.1581    0.9126 C   0  0  0  0  0  0  0  0  0  0  0  0
   -0.3674   -1.5560   -1.2685 C   0  0  0  0  0  0  0  0  0  0  0  0
   -4.7377   -0.3348   -1.4797 C   0  0  0  0  0  0  0  0  0  0  0  0
   -5.9286   -0.0593   -0.8006 C   0  0  0  0  0  0  0  0  0  0  0  0
   -6.1562    1.2140   -0.3643 C   0  0  0  0  0  0  0  0  0  0  0  0
   -7.3290    1.5005    0.3083 O   0  0  0  0  0  0  0  0  0  0  0  0
  1  2  2  0
  2  3  1  0
  2  4  1  0
  4  5  2  0
  5  6  1  0
  6  7  1  0
  7  8  1  0
  8  9  1  0
  9 10  2  0
 10 11  1  0
 11 12  2  0
 12 13  1  0
 13 14  1  0
 14 15  2  0
 15 16  1  0
 16 17  2  0
 17 18  1  0
 18 19  1  0
 19 20  1  0
 20 21  1  0
 21 22  1  0
 22 23  1  0
 23 24  1  0
 24 25  1  0
 18 26  2  0
 13 27  2  0
  6 28  2  0
 28 29  1  0
 29 30  2  0
 30 31  1  0
 30  4  1  0
 27  9  1  0
 26 14  1  0
 25 20  1  0
M  END
>  <score>  (154) 
0.61493

$$$$
HIPS6983
     RDKit          3D

 30 33  0  0  0  0  0  0  0  0999 V2000
    8.0154    2.4974   -2.1593 O   0  0  0  0  0  0  0  0  0  0  0  0
    7.2580    1.5167   -2.3365 C   0  0  0  0  0  0  0  0  0  0  0  0
    7.0808    0.9815   -3.5998 O   0  0  0  0  0  0  0  0  0  0  0  0
    6.5783    0.9746   -1.1438 C   0  0  0  0  0  0  0  0  0  0  0  0
    5.7387   -0.0936   -1.2708 C   0  0  0  0  0  0  0  0  0  0  0  0
    5.0435   -0.6840   -0.1982 C   0  0  0  0  0  0  0  0  0  0  0  0
    4.2536   -1.7282   -0.4651 O   0  0  0  0  0  0  0  0  0  0  0  0
    3.4336   -2.5478    0.2235 C   0  0  0  0  0  0  0  0  0  0  0  0
    2.2593   -1.9374    0.8880 C   0  0  0  0  0  0  0  0  0  0  0  0
    2.2751   -1.6452    2.2205 C   0  0  0  0  0  0  0  0  0  0  0  0
    1.1543   -1.0604    2.8091 C   0  0  0  0  0  0  0  0  0  0  0  0
    0.0243   -0.7668    2.0835 C   0  0  0  0  0  0  0  0  0  0  0  0
   -0.0122   -1.0540    0.7382 C   0  0  0  0  0  0  0  0  0  0  0  0
   -1.1906   -0.7644   -0.0926 C   0  0  0  0  0  0  0  0  0  0  0  0
   -1.0550   -0.4448   -1.4289 C   0  0  0  0  0  0  0  0  0  0  0  0
   -2.1328   -0.1672   -2.2397 C   0  0  0  0  0  0  0  0  0  0  0  0
   -3.3977   -0.2152   -1.6752 C   0  0  0  0  0  0  0  0  0  0  0  0
   -3.5788   -0.5311   -0.3405 C   0  0  0  0  0  0  0  0  0  0  0  0
   -4.9406   -0.5740    0.2456 C   0  0  0  0  0  0  0  0  0  0  0  0
   -5.3593    0.6841    0.8066 N   0  0  0  0  0  0  0  0  0  0  0  0
   -6.6958    0.4831    1.3311 C   0  0  0  0  0  0  0  0  0  0  0  0
   -7.6494    1.2297    0.4346 C   0  0  0  0  0  0  0  0  0  0  0  0
   -6.7919    1.4753   -0.7999 C   0  0  0  0  0  0  0  0  0  0  0  0
   -5.4416    1.7637   -0.1335 C   0  0  0  0  0  0  0  0  0  0  0  0
   -2.4622   -0.8039    0.4392 C   0  0  0  0  0  0  0  0  0  0  0  0
    1.1040   -1.6309    0.1759 C   0  0  0  0  0  0  0  0  0  0  0  0
    5.2841   -0.0824    1.0256 C   0  0  0  0  0  0  0  0  0  0  0  0
    6.1316    1.0005    1.1703 C   0  0  0  0  0  0  0  0  0  0  0  0
    6.7793    1.5321    0.0952 C   0  0  0  0  0  0  0  0  0  0  0  0
    7.6447    2.6315    0.2175 O   0  0  0  0  0  0  0  0  0  0  0  0
  1  2  2  0
  2  3  1  0
  2  4  1  0
  4  5  2  0
  5  6  1  0
  6  7  1  0
  7  8  1  0
  8  9  1  0
  9 10  2  0
 10 11  1  0
 11 12  2  0
 12 13  1  0
 13 14  1  0
 14 15  2  0
 15 16  1  0
 16 17  2  0
 17 18  1  0
 18 19  1  0
 19 20  1  0
 20 21  1  0
 21 22  1  0
 22 23  1  0
 23 24  1  0
 18 25  2  0
 13 26  2  0
  6 27  2  0
 27 28  1  0
 28 29  2  0
 29 30  1  0
 29  4  1  0
 26  9  1  0
 25 14  1  0
 24 20  1  0
M  END
>  <score>  (155) 
0.527388

$$$$
HIPS6984
     RDKit          3D

 31 34  0  0  0  0  0  0  0  0999 V2000
    8.8681   -2.7367   -0.2544 O   0  0  0  0  0  0  0  0  0  0  0  0
    7.9925   -2.1788   -0.9396 C   0  0  0  0  0  0  0  0  0  0  0  0
    7.8614   -2.5879   -2.2605 O   0  0  0  0  0  0  0  0  0  0  0  0
    7.1179   -1.1258   -0.3970 C   0  0  0  0  0  0  0  0  0  0  0  0
    6.1627   -0.5276   -1.1720 C   0  0  0  0  0  0  0  0  0  0  0  0
    5.3261    0.4862   -0.6372 C   0  0  0  0  0  0  0  0  0  0  0  0
    4.4180    1.0137   -1.4802 O   0  0  0  0  0  0  0  0  0  0  0  0
    3.4447    1.9607   -1.3868 C   0  0  0  0  0  0  0  0  0  0  0  0
    2.3323    1.7333   -0.4516 C   0  0  0  0  0  0  0  0  0  0  0  0
    2.2129    2.2475    0.8166 C   0  0  0  0  0  0  0  0  0  0  0  0
    1.1410    1.9787    1.6468 C   0  0  0  0  0  0  0  0  0  0  0  0
    0.1531    1.1502    1.1556 C   0  0  0  0  0  0  0  0  0  0  0  0
    0.2166    0.6063   -0.1048 C   0  0  0  0  0  0  0  0  0  0  0  0
   -0.8110   -0.2607   -0.6321 C   0  0  0  0  0  0  0  0  0  0  0  0
   -0.5862   -1.2723   -1.5250 C   0  0  0  0  0  0  0  0  0  0  0  0
   -1.6109   -2.0717   -1.9980 C   0  0  0  0  0  0  0  0  0  0  0  0
   -2.8747   -1.8120   -1.5354 C   0  0  0  0  0  0  0  0  0  0  0  0
   -3.1802   -0.7999   -0.6264 C   0  0  0  0  0  0  0  0  0  0  0  0
   -4.4617   -0.5924   -0.2041 O   0  0  0  0  0  0  0  0  0  0  0  0
   -4.8760    0.3778    0.6911 C   0  0  0  0  0  0  0  0  0  0  0  0
   -5.8455    1.2969   -0.0841 C   0  0  0  0  0  0  0  0  0  0  0  0
   -6.9892    0.4153   -0.5291 C   0  0  0  0  0  0  0  0  0  0  0  0
   -7.8757    0.2135    0.6940 C   0  0  0  0  0  0  0  0  0  0  0  0
   -7.0566    0.2768    1.9461 C   0  0  0  0  0  0  0  0  0  0  0  0
   -5.6766   -0.2866    1.8041 C   0  0  0  0  0  0  0  0  0  0  0  0
   -2.1258   -0.0379   -0.1906 C   0  0  0  0  0  0  0  0  0  0  0  0
    1.2983    0.8943   -0.9056 C   0  0  0  0  0  0  0  0  0  0  0  0
    5.5301    0.8255    0.6828 C   0  0  0  0  0  0  0  0  0  0  0  0
    6.5048    0.2206    1.4881 C   0  0  0  0  0  0  0  0  0  0  0  0
    7.2936   -0.7603    0.9229 C   0  0  0  0  0  0  0  0  0  0  0  0
    8.2813   -1.4075    1.6539 O   0  0  0  0  0  0  0  0  0  0  0  0
  1  2  2  0
  2  3  1  0
  2  4  1  0
  4  5  2  0
  5  6  1  0
  6  7  1  0
  7  8  1  0
  8  9  1  0
  9 10  2  0
 10 11  1  0
 11 12  2  0
 12 13  1  0
 13 14  1  0
 14 15  2  0
 15 16  1  0
 16 17  2  0
 17 18  1  0
 18 19  1  0
 19 20  1  0
 20 21  1  0
 21 22  1  0
 22 23  1  0
 23 24  1  0
 24 25  1  0
 18 26  2  0
 13 27  2  0
  6 28  2  0
 28 29  1  0
 29 30  2  0
 30 31  1  0
 30  4  1  0
 27  9  1  0
 26 14  1  0
 25 20  1  0
M  END
>  <score>  (156) 
-0.786406

$$$$
HIPS6985
     RDKit          3D

 30 33  0  0  0  0  0  0  0  0999 V2000
    7.8309    1.4194    1.6151 O   0  0  0  0  0  0  0  0  0  0  0  0
    7.0065    0.6295    1.1101 C   0  0  0  0  0  0  0  0  0  0  0  0
    6.9086   -0.6505    1.6098 O   0  0  0  0  0  0  0  0  0  0  0  0
    6.1803    1.0943    0.0109 C   0  0  0  0  0  0  0  0  0  0  0  0
    5.2428    0.2618   -0.5884 C   0  0  0  0  0  0  0  0  0  0  0  0
    4.4191    0.5956   -1.6196 C   0  0  0  0  0  0  0  0  0  0  0  0
    3.5058   -0.1682   -2.2213 O   0  0  0  0  0  0  0  0  0  0  0  0
    2.9703   -1.4177   -2.1710 C   0  0  0  0  0  0  0  0  0  0  0  0
    2.2977   -1.6657   -0.8721 C   0  0  0  0  0  0  0  0  0  0  0  0
    2.9082   -2.3279    0.1595 C   0  0  0  0  0  0  0  0  0  0  0  0
    2.2929   -2.5482    1.3668 C   0  0  0  0  0  0  0  0  0  0  0  0
    0.9883   -2.0798    1.5570 C   0  0  0  0  0  0  0  0  0  0  0  0
    0.3309   -1.4080    0.5491 C   0  0  0  0  0  0  0  0  0  0  0  0
   -1.0292   -0.9275    0.7755 C   0  0  0  0  0  0  0  0  0  0  0  0
   -1.3709   -0.5370    2.0642 C   0  0  0  0  0  0  0  0  0  0  0  0
   -2.6233   -0.0741    2.3855 C   0  0  0  0  0  0  0  0  0  0  0  0
   -3.5645   -0.0057    1.3563 C   0  0  0  0  0  0  0  0  0  0  0  0
   -3.2584   -0.3831    0.0779 C   0  0  0  0  0  0  0  0  0  0  0  0
   -4.1868   -0.3131   -0.9177 O   0  0  0  0  0  0  0  0  0  0  0  0
   -5.5079    0.0743   -0.9106 C   0  0  0  0  0  0  0  0  0  0  0  0
   -6.4159   -0.7262   -0.0114 C   0  0  0  0  0  0  0  0  0  0  0  0
   -7.2553    0.2688    0.7060 C   0  0  0  0  0  0  0  0  0  0  0  0
   -7.2250    1.4877   -0.1792 C   0  0  0  0  0  0  0  0  0  0  0  0
   -5.7866    1.5172   -0.6487 C   0  0  0  0  0  0  0  0  0  0  0  0
   -1.9765   -0.8430   -0.1886 C   0  0  0  0  0  0  0  0  0  0  0  0
    1.0085   -1.2237   -0.6318 C   0  0  0  0  0  0  0  0  0  0  0  0
    4.5549    1.9178   -2.1034 C   0  0  0  0  0  0  0  0  0  0  0  0
    5.4608    2.7762   -1.5504 C   0  0  0  0  0  0  0  0  0  0  0  0
    6.2745    2.3716   -0.4952 C   0  0  0  0  0  0  0  0  0  0  0  0
    7.1692    3.2760    0.0247 O   0  0  0  0  0  0  0  0  0  0  0  0
  1  2  2  0
  2  3  1  0
  2  4  1  0
  4  5  2  0
  5  6  1  0
  6  7  1  0
  7  8  1  0
  8  9  1  0
  9 10  2  0
 10 11  1  0
 11 12  2  0
 12 13  1  0
 13 14  1  0
 14 15  2  0
 15 16  1  0
 16 17  2  0
 17 18  1  0
 18 19  1  0
 19 20  1  0
 20 21  1  0
 21 22  1  0
 22 23  1  0
 23 24  1  0
 18 25  2  0
 13 26  2  0
  6 27  2  0
 27 28  1  0
 28 29  2  0
 29 30  1  0
 29  4  1  0
 26  9  1  0
 25 14  1  0
 24 20  1  0
M  END
>  <score>  (157) 
-0.646155

$$$$
HIPS6986
     RDKit          3D

 28 30  0  0  0  0  0  0  0  0999 V2000
   -0.4145    1.1087   -6.9503 C   0  0  0  0  0  0  0  0  0  0  0  0
   -0.4826    2.0954   -5.7800 C   0  0  0  0  0  0  0  0  0  0  0  0
    0.0751    3.4535   -6.2019 C   0  0  0  0  0  0  0  0  0  0  0  0
    0.2851    1.6087   -4.6767 O   0  0  0  0  0  0  0  0  0  0  0  0
   -0.0892    0.5691   -3.8087 C   0  0  0  0  0  0  0  0  0  0  0  0
   -1.3513   -0.0526   -3.8609 C   0  0  0  0  0  0  0  0  0  0  0  0
   -1.6669   -1.0774   -2.9667 C   0  0  0  0  0  0  0  0  0  0  0  0
   -0.7355   -1.4915   -2.0127 C   0  0  0  0  0  0  0  0  0  0  0  0
    0.5289   -0.8818   -1.9420 C   0  0  0  0  0  0  0  0  0  0  0  0
    1.5212   -1.3180   -0.9267 C   0  0  0  0  0  0  0  0  0  0  0  0
    2.8801   -1.4463   -1.2654 C   0  0  0  0  0  0  0  0  0  0  0  0
    3.8116   -1.8591   -0.3100 C   0  0  0  0  0  0  0  0  0  0  0  0
    3.4021   -2.1427    0.9941 C   0  0  0  0  0  0  0  0  0  0  0  0
    2.0537   -2.0071    1.3562 C   0  0  0  0  0  0  0  0  0  0  0  0
    1.6054   -2.3138    2.7611 C   0  0  0  0  0  0  0  0  0  0  0  0
    0.8016   -1.2540    3.2816 O   0  0  0  0  0  0  0  0  0  0  0  0
    1.2643    0.0321    3.6050 C   0  0  0  0  0  0  0  0  0  0  0  0
    2.6246    0.3805    3.5635 C   0  0  0  0  0  0  0  0  0  0  0  0
    3.0267    1.6789    3.8773 C   0  0  0  0  0  0  0  0  0  0  0  0
    2.0882    2.6514    4.2378 C   0  0  0  0  0  0  0  0  0  0  0  0
    2.5524    3.9495    4.4619 O   0  0  0  0  0  0  0  0  0  0  0  0
    0.7177    2.3016    4.3289 C   0  0  0  0  0  0  0  0  0  0  0  0
   -0.3207    3.2461    4.7969 C   0  0  0  0  0  0  0  0  0  0  0  0
   -0.0577    4.1100    5.6757 O   0  0  0  0  0  0  0  0  0  0  0  0
   -1.6208    3.1436    4.3089 O   0  0  0  0  0  0  0  0  0  0  0  0
    0.3251    0.9944    3.9896 C   0  0  0  0  0  0  0  0  0  0  0  0
    1.1165   -1.6079    0.3894 C   0  0  0  0  0  0  0  0  0  0  0  0
    0.8389    0.1500   -2.8471 C   0  0  0  0  0  0  0  0  0  0  0  0
  1  2  1  0
  2  3  1  0
  2  4  1  0
  4  5  1  0
  5  6  2  0
  6  7  1  0
  7  8  2  0
  8  9  1  0
  9 10  1  0
 10 11  2  0
 11 12  1  0
 12 13  2  0
 13 14  1  0
 14 15  1  0
 15 16  1  0
 16 17  1  0
 17 18  2  0
 18 19  1  0
 19 20  2  0
 20 21  1  0
 20 22  1  0
 22 23  1  0
 23 24  2  0
 23 25  1  0
 22 26  2  0
 14 27  2  0
  9 28  2  0
 28  5  1  0
 27 10  1  0
 26 17  1  0
M  END
>  <score>  (158) 
-0.442309

$$$$
HIPS6987
     RDKit          3D

 31 34  0  0  0  0  0  0  0  0999 V2000
   -3.2373    4.9568   -0.4612 O   0  0  0  0  0  0  0  0  0  0  0  0
   -2.9324    3.7609   -0.2063 C   0  0  0  0  0  0  0  0  0  0  0  0
   -3.7699    2.7372   -0.6453 O   0  0  0  0  0  0  0  0  0  0  0  0
   -1.7386    3.4364    0.6091 C   0  0  0  0  0  0  0  0  0  0  0  0
   -1.7707    2.2737    1.4004 C   0  0  0  0  0  0  0  0  0  0  0  0
   -0.7055    1.9382    2.2431 C   0  0  0  0  0  0  0  0  0  0  0  0
   -0.7942    0.7437    2.9792 O   0  0  0  0  0  0  0  0  0  0  0  0
    0.1961    0.2478    3.8842 C   0  0  0  0  0  0  0  0  0  0  0  0
    1.3562   -0.4334    3.1888 C   0  0  0  0  0  0  0  0  0  0  0  0
    2.3188   -1.0813    3.9762 C   0  0  0  0  0  0  0  0  0  0  0  0
    3.4043   -1.7259    3.3814 C   0  0  0  0  0  0  0  0  0  0  0  0
    3.5489   -1.7248    1.9933 C   0  0  0  0  0  0  0  0  0  0  0  0
    2.6069   -1.0721    1.1770 C   0  0  0  0  0  0  0  0  0  0  0  0
    2.7795   -1.0360   -0.3042 C   0  0  0  0  0  0  0  0  0  0  0  0
    4.0643   -0.9298   -0.8717 C   0  0  0  0  0  0  0  0  0  0  0  0
    4.2253   -0.8635   -2.2575 C   0  0  0  0  0  0  0  0  0  0  0  0
    3.1110   -0.8955   -3.0964 C   0  0  0  0  0  0  0  0  0  0  0  0
    1.8245   -1.0085   -2.5606 C   0  0  0  0  0  0  0  0  0  0  0  0
    0.7294   -0.9964   -3.4388 O   0  0  0  0  0  0  0  0  0  0  0  0
   -0.5312   -1.5481   -3.1757 C   0  0  0  0  0  0  0  0  0  0  0  0
   -1.6723   -0.9301   -3.6898 C   0  0  0  0  0  0  0  0  0  0  0  0
   -2.9002   -1.4596   -3.4509 N   0  0  0  0  0  0  0  0  0  0  0  0
   -3.0401   -2.5996   -2.7238 C   0  0  0  0  0  0  0  0  0  0  0  0
   -1.9428   -3.2334   -2.2336 N   0  0  0  0  0  0  0  0  0  0  0  0
   -0.6965   -2.7363   -2.4474 C   0  0  0  0  0  0  0  0  0  0  0  0
    1.6629   -1.0750   -1.1635 C   0  0  0  0  0  0  0  0  0  0  0  0
    1.5056   -0.4394    1.7872 C   0  0  0  0  0  0  0  0  0  0  0  0
    0.4119    2.7879    2.3074 C   0  0  0  0  0  0  0  0  0  0  0  0
    0.4662    3.9365    1.5175 C   0  0  0  0  0  0  0  0  0  0  0  0
   -0.5828    4.2586    0.6484 C   0  0  0  0  0  0  0  0  0  0  0  0
   -0.4191    5.3744   -0.1751 O   0  0  0  0  0  0  0  0  0  0  0  0
  1  2  2  0
  2  3  1  0
  2  4  1  0
  4  5  2  0
  5  6  1  0
  6  7  1  0
  7  8  1  0
  8  9  1  0
  9 10  2  0
 10 11  1  0
 11 12  2  0
 12 13  1  0
 13 14  1  0
 14 15  2  0
 15 16  1  0
 16 17  2  0
 17 18  1  0
 18 19  1  0
 19 20  1  0
 20 21  2  0
 21 22  1  0
 22 23  2  0
 23 24  1  0
 24 25  2  0
 18 26  2  0
 13 27  2  0
  6 28  2  0
 28 29  1  0
 29 30  2  0
 30 31  1  0
 30  4  1  0
 27  9  1  0
 26 14  1  0
 25 20  1  0
M  END
>  <score>  (159) 
0.113247

$$$$
HIPS6988
     RDKit          3D

 31 34  0  0  0  0  0  0  0  0999 V2000
    3.4261    2.9009    2.7280 O   0  0  0  0  0  0  0  0  0  0  0  0
    2.9713    2.1886    1.7935 C   0  0  0  0  0  0  0  0  0  0  0  0
    1.6462    2.3493    1.3952 O   0  0  0  0  0  0  0  0  0  0  0  0
    3.8437    1.2318    1.0767 C   0  0  0  0  0  0  0  0  0  0  0  0
    3.6209    1.0291   -0.2972 C   0  0  0  0  0  0  0  0  0  0  0  0
    4.4452    0.1680   -1.0452 C   0  0  0  0  0  0  0  0  0  0  0  0
    4.2415   -0.0782   -2.4133 O   0  0  0  0  0  0  0  0  0  0  0  0
    3.1236    0.3766   -3.1774 C   0  0  0  0  0  0  0  0  0  0  0  0
    1.8563   -0.3010   -2.7260 C   0  0  0  0  0  0  0  0  0  0  0  0
    1.7829   -1.7010   -2.6973 C   0  0  0  0  0  0  0  0  0  0  0  0
    0.6200   -2.3355   -2.2574 C   0  0  0  0  0  0  0  0  0  0  0  0
   -0.4795   -1.5797   -1.8445 C   0  0  0  0  0  0  0  0  0  0  0  0
   -0.4302   -0.1744   -1.8757 C   0  0  0  0  0  0  0  0  0  0  0  0
   -1.5957    0.6301   -1.4298 C   0  0  0  0  0  0  0  0  0  0  0  0
   -1.9831    1.7819   -2.1376 C   0  0  0  0  0  0  0  0  0  0  0  0
   -3.0744    2.5412   -1.7091 C   0  0  0  0  0  0  0  0  0  0  0  0
   -3.7961    2.1568   -0.5773 C   0  0  0  0  0  0  0  0  0  0  0  0
   -3.4406    1.0042    0.1301 C   0  0  0  0  0  0  0  0  0  0  0  0
   -4.1833    0.6568    1.2682 O   0  0  0  0  0  0  0  0  0  0  0  0
   -4.3915   -0.6498    1.7354 C   0  0  0  0  0  0  0  0  0  0  0  0
   -4.5971   -0.8566    3.1027 C   0  0  0  0  0  0  0  0  0  0  0  0
   -4.8220   -2.1455    3.5906 C   0  0  0  0  0  0  0  0  0  0  0  0
   -4.8544   -3.2184    2.6977 C   0  0  0  0  0  0  0  0  0  0  0  0
   -4.6746   -3.0023    1.3677 N   0  0  0  0  0  0  0  0  0  0  0  0
   -4.4498   -1.7569    0.8698 C   0  0  0  0  0  0  0  0  0  0  0  0
   -2.3263    0.2541   -0.2877 C   0  0  0  0  0  0  0  0  0  0  0  0
    0.7426    0.4570   -2.3282 C   0  0  0  0  0  0  0  0  0  0  0  0
    5.5134   -0.4707   -0.4122 C   0  0  0  0  0  0  0  0  0  0  0  0
    5.7411   -0.2875    0.9518 C   0  0  0  0  0  0  0  0  0  0  0  0
    4.9028    0.5356    1.7113 C   0  0  0  0  0  0  0  0  0  0  0  0
    5.1342    0.6051    3.0869 O   0  0  0  0  0  0  0  0  0  0  0  0
  1  2  2  0
  2  3  1  0
  2  4  1  0
  4  5  2  0
  5  6  1  0
  6  7  1  0
  7  8  1  0
  8  9  1  0
  9 10  2  0
 10 11  1  0
 11 12  2  0
 12 13  1  0
 13 14  1  0
 14 15  2  0
 15 16  1  0
 16 17  2  0
 17 18  1  0
 18 19  1  0
 19 20  1  0
 20 21  2  0
 21 22  1  0
 22 23  2  0
 23 24  1  0
 24 25  2  0
 18 26  2  0
 13 27  2  0
  6 28  2  0
 28 29  1  0
 29 30  2  0
 30 31  1  0
 30  4  1  0
 27  9  1  0
 26 14  1  0
 25 20  1  0
M  END
>  <score>  (160) 
0.503819

$$$$
HIPS6989
     RDKit          3D

 35 38  0  0  0  0  0  0  0  0999 V2000
    4.3653    2.7398    1.5678 O   0  0  0  0  0  0  0  0  0  0  0  0
    3.7506    2.8132    0.4700 C   0  0  0  0  0  0  0  0  0  0  0  0
    2.9563    3.9244    0.2064 O   0  0  0  0  0  0  0  0  0  0  0  0
    3.8220    1.6940   -0.4938 C   0  0  0  0  0  0  0  0  0  0  0  0
    3.9020    0.3804    0.0035 C   0  0  0  0  0  0  0  0  0  0  0  0
    3.8757   -0.7241   -0.8680 C   0  0  0  0  0  0  0  0  0  0  0  0
    3.9253   -2.0514   -0.4119 O   0  0  0  0  0  0  0  0  0  0  0  0
    3.8828   -2.4585    0.9568 C   0  0  0  0  0  0  0  0  0  0  0  0
    2.5360   -2.1636    1.5635 C   0  0  0  0  0  0  0  0  0  0  0  0
    2.4409   -1.4931    2.7922 C   0  0  0  0  0  0  0  0  0  0  0  0
    1.1902   -1.2046    3.3406 C   0  0  0  0  0  0  0  0  0  0  0  0
    0.0251   -1.5887    2.6738 C   0  0  0  0  0  0  0  0  0  0  0  0
    0.0997   -2.2777    1.4508 C   0  0  0  0  0  0  0  0  0  0  0  0
   -1.1369   -2.6816    0.7390 C   0  0  0  0  0  0  0  0  0  0  0  0
   -1.2440   -3.9587    0.1615 C   0  0  0  0  0  0  0  0  0  0  0  0
   -2.4171   -4.3409   -0.4935 C   0  0  0  0  0  0  0  0  0  0  0  0
   -3.4894   -3.4512   -0.5904 C   0  0  0  0  0  0  0  0  0  0  0  0
   -3.3923   -2.1665   -0.0477 C   0  0  0  0  0  0  0  0  0  0  0  0
   -4.4882   -1.2989   -0.1633 O   0  0  0  0  0  0  0  0  0  0  0  0
   -4.4044    0.0958   -0.2856 C   0  0  0  0  0  0  0  0  0  0  0  0
   -5.4523    0.8782    0.2094 C   0  0  0  0  0  0  0  0  0  0  0  0
   -5.4158    2.2707    0.0883 C   0  0  0  0  0  0  0  0  0  0  0  0
   -4.3407    2.9017   -0.5619 C   0  0  0  0  0  0  0  0  0  0  0  0
   -4.2800    4.4059   -0.6533 C   0  0  0  0  0  0  0  0  0  0  0  0
   -5.5546    4.9406   -0.7391 F   0  0  0  0  0  0  0  0  0  0  0  0
   -3.5691    4.8007   -1.7740 F   0  0  0  0  0  0  0  0  0  0  0  0
   -3.6560    4.9056    0.4750 F   0  0  0  0  0  0  0  0  0  0  0  0
   -3.2841    2.1144   -1.0514 C   0  0  0  0  0  0  0  0  0  0  0  0
   -3.3215    0.7223   -0.9272 C   0  0  0  0  0  0  0  0  0  0  0  0
   -2.2210   -1.7915    0.6341 C   0  0  0  0  0  0  0  0  0  0  0  0
    1.3633   -2.5697    0.9067 C   0  0  0  0  0  0  0  0  0  0  0  0
    3.7889   -0.5042   -2.2439 C   0  0  0  0  0  0  0  0  0  0  0  0
    3.7377    0.7936   -2.7520 C   0  0  0  0  0  0  0  0  0  0  0  0
    3.7741    1.8973   -1.8944 C   0  0  0  0  0  0  0  0  0  0  0  0
    3.7988    3.1688   -2.4708 O   0  0  0  0  0  0  0  0  0  0  0  0
  1  2  2  0
  2  3  1  0
  2  4  1  0
  4  5  2  0
  5  6  1  0
  6  7  1  0
  7  8  1  0
  8  9  1  0
  9 10  2  0
 10 11  1  0
 11 12  2  0
 12 13  1  0
 13 14  1  0
 14 15  2  0
 15 16  1  0
 16 17  2  0
 17 18  1  0
 18 19  1  0
 19 20  1  0
 20 21  2  0
 21 22  1  0
 22 23  2  0
 23 24  1  0
 24 25  1  0
 24 26  1  0
 24 27  1  0
 23 28  1  0
 28 29  2  0
 18 30  2  0
 13 31  2  0
  6 32  2  0
 32 33  1  0
 33 34  2  0
 34 35  1  0
 34  4  1  0
 31  9  1  0
 30 14  1  0
 29 20  1  0
M  END
>  <score>  (161) 
-1.273758

$$$$
HIPS6990
     RDKit          3D

 33 36  0  0  0  0  0  0  0  0999 V2000
   -0.1684   -5.4477    4.0464 C   0  0  0  0  0  0  0  0  0  0  0  0
   -0.0730   -4.0946    3.6131 O   0  0  0  0  0  0  0  0  0  0  0  0
   -1.0022   -3.4653    2.7712 C   0  0  0  0  0  0  0  0  0  0  0  0
   -0.8166   -2.1108    2.4716 C   0  0  0  0  0  0  0  0  0  0  0  0
   -1.7170   -1.4372    1.6423 C   0  0  0  0  0  0  0  0  0  0  0  0
   -2.8109   -2.1203    1.0789 C   0  0  0  0  0  0  0  0  0  0  0  0
   -3.7405   -1.4784    0.2471 O   0  0  0  0  0  0  0  0  0  0  0  0
   -3.4643   -0.3789   -0.5790 C   0  0  0  0  0  0  0  0  0  0  0  0
   -4.4709    0.5659   -0.8023 C   0  0  0  0  0  0  0  0  0  0  0  0
   -4.2288    1.6756   -1.6149 C   0  0  0  0  0  0  0  0  0  0  0  0
   -2.9816    1.8436   -2.2220 C   0  0  0  0  0  0  0  0  0  0  0  0
   -1.9657    0.8898   -2.0340 C   0  0  0  0  0  0  0  0  0  0  0  0
   -0.6438    1.0575   -2.6862 C   0  0  0  0  0  0  0  0  0  0  0  0
   -0.0022   -0.0378   -3.2899 C   0  0  0  0  0  0  0  0  0  0  0  0
    1.2456    0.1206   -3.8970 C   0  0  0  0  0  0  0  0  0  0  0  0
    1.8710    1.3687   -3.9021 C   0  0  0  0  0  0  0  0  0  0  0  0
    1.2528    2.4710   -3.2928 C   0  0  0  0  0  0  0  0  0  0  0  0
    1.9263    3.8176   -3.2817 C   0  0  0  0  0  0  0  0  0  0  0  0
    2.0109    4.3289   -1.9509 O   0  0  0  0  0  0  0  0  0  0  0  0
    2.8314    3.8149   -0.9337 C   0  0  0  0  0  0  0  0  0  0  0  0
    3.7801    2.8053   -1.1646 C   0  0  0  0  0  0  0  0  0  0  0  0
    4.5686    2.3285   -0.1168 C   0  0  0  0  0  0  0  0  0  0  0  0
    4.4277    2.8491    1.1767 C   0  0  0  0  0  0  0  0  0  0  0  0
    5.2319    2.3526    2.2046 O   0  0  0  0  0  0  0  0  0  0  0  0
    3.4787    3.8680    1.4252 C   0  0  0  0  0  0  0  0  0  0  0  0
    3.2889    4.4521    2.7780 C   0  0  0  0  0  0  0  0  0  0  0  0
    3.9670    4.0475    3.7600 O   0  0  0  0  0  0  0  0  0  0  0  0
    2.3496    5.4607    2.9781 O   0  0  0  0  0  0  0  0  0  0  0  0
    2.6922    4.3392    0.3563 C   0  0  0  0  0  0  0  0  0  0  0  0
   -0.0096    2.3129   -2.6990 C   0  0  0  0  0  0  0  0  0  0  0  0
   -2.2196   -0.2262   -1.2161 C   0  0  0  0  0  0  0  0  0  0  0  0
   -3.0058   -3.4706    1.3885 C   0  0  0  0  0  0  0  0  0  0  0  0
   -2.1093   -4.1435    2.2250 C   0  0  0  0  0  0  0  0  0  0  0  0
  1  2  1  0
  2  3  1  0
  3  4  2  0
  4  5  1  0
  5  6  2  0
  6  7  1  0
  7  8  1  0
  8  9  2  0
  9 10  1  0
 10 11  2  0
 11 12  1  0
 12 13  1  0
 13 14  2  0
 14 15  1  0
 15 16  2  0
 16 17  1  0
 17 18  1  0
 18 19  1  0
 19 20  1  0
 20 21  2  0
 21 22  1  0
 22 23  2  0
 23 24  1  0
 23 25  1  0
 25 26  1  0
 26 27  2  0
 26 28  1  0
 25 29  2  0
 17 30  2  0
 12 31  2  0
  6 32  1  0
 32 33  2  0
 33  3  1  0
 31  8  1  0
 30 13  1  0
 29 20  1  0
M  END
>  <score>  (162) 
-0.524576

$$$$
HIPS6991
     RDKit          3D

 32 35  0  0  0  0  0  0  0  0999 V2000
   -5.1896    0.9295   -3.5293 O   0  0  0  0  0  0  0  0  0  0  0  0
   -4.4450    0.2453   -2.7766 C   0  0  0  0  0  0  0  0  0  0  0  0
   -4.0009   -1.0027   -3.2082 O   0  0  0  0  0  0  0  0  0  0  0  0
   -4.0960    0.7230   -1.4197 C   0  0  0  0  0  0  0  0  0  0  0  0
   -3.9572   -0.2285   -0.3925 C   0  0  0  0  0  0  0  0  0  0  0  0
   -3.6816    0.1595    0.9238 C   0  0  0  0  0  0  0  0  0  0  0  0
   -3.5347   -0.8451    1.8960 O   0  0  0  0  0  0  0  0  0  0  0  0
   -3.0599   -0.6406    3.2277 C   0  0  0  0  0  0  0  0  0  0  0  0
   -1.6056   -0.2491    3.2176 C   0  0  0  0  0  0  0  0  0  0  0  0
   -1.1801    0.9367    3.8344 C   0  0  0  0  0  0  0  0  0  0  0  0
    0.1659    1.3049    3.7950 C   0  0  0  0  0  0  0  0  0  0  0  0
    1.0985    0.4926    3.1464 C   0  0  0  0  0  0  0  0  0  0  0  0
    0.6940   -0.7068    2.5353 C   0  0  0  0  0  0  0  0  0  0  0  0
    1.6818   -1.5683    1.8393 C   0  0  0  0  0  0  0  0  0  0  0  0
    1.6524   -2.9644    2.0051 C   0  0  0  0  0  0  0  0  0  0  0  0
    2.5896   -3.7726    1.3566 C   0  0  0  0  0  0  0  0  0  0  0  0
    3.5549   -3.2007    0.5254 C   0  0  0  0  0  0  0  0  0  0  0  0
    3.5853   -1.8166    0.3248 C   0  0  0  0  0  0  0  0  0  0  0  0
    4.5694   -1.2786   -0.5182 O   0  0  0  0  0  0  0  0  0  0  0  0
    4.4199   -0.1321   -1.3138 C   0  0  0  0  0  0  0  0  0  0  0  0
    3.1705    0.2590   -1.8320 C   0  0  0  0  0  0  0  0  0  0  0  0
    3.0664    1.4024   -2.6308 C   0  0  0  0  0  0  0  0  0  0  0  0
    4.2086    2.1508   -2.9381 C   0  0  0  0  0  0  0  0  0  0  0  0
    4.0791    3.5770   -3.9525 Cl  0  0  0  0  0  0  0  0  0  0  0  0
    5.4564    1.7503   -2.4494 C   0  0  0  0  0  0  0  0  0  0  0  0
    5.5607    0.6136   -1.6404 C   0  0  0  0  0  0  0  0  0  0  0  0
    2.6617   -1.0006    1.0046 C   0  0  0  0  0  0  0  0  0  0  0  0
   -0.6634   -1.0725    2.5810 C   0  0  0  0  0  0  0  0  0  0  0  0
   -3.5662    1.5269    1.2246 C   0  0  0  0  0  0  0  0  0  0  0  0
   -3.6872    2.4808    0.2139 C   0  0  0  0  0  0  0  0  0  0  0  0
   -3.9236    2.0953   -1.1104 C   0  0  0  0  0  0  0  0  0  0  0  0
   -3.9419    3.0950   -2.0857 O   0  0  0  0  0  0  0  0  0  0  0  0
  1  2  2  0
  2  3  1  0
  2  4  1  0
  4  5  2  0
  5  6  1  0
  6  7  1  0
  7  8  1  0
  8  9  1  0
  9 10  2  0
 10 11  1  0
 11 12  2  0
 12 13  1  0
 13 14  1  0
 14 15  2  0
 15 16  1  0
 16 17  2  0
 17 18  1  0
 18 19  1  0
 19 20  1  0
 20 21  2  0
 21 22  1  0
 22 23  2  0
 23 24  1  0
 23 25  1  0
 25 26  2  0
 18 27  2  0
 13 28  2  0
  6 29  2  0
 29 30  1  0
 30 31  2  0
 31 32  1  0
 31  4  1  0
 28  9  1  0
 27 14  1  0
 26 20  1  0
M  END
>  <score>  (163) 
-1.070214

$$$$
HIPS6992
     RDKit          3D

 33 36  0  0  0  0  0  0  0  0999 V2000
    2.3354   -2.6130   -4.8260 N   0  0  0  0  0  0  0  0  0  0  0  0
    2.5659   -1.9629   -3.8967 C   0  0  0  0  0  0  0  0  0  0  0  0
    2.8560   -1.1545   -2.7418 C   0  0  0  0  0  0  0  0  0  0  0  0
    2.4238   -1.5581   -1.4721 C   0  0  0  0  0  0  0  0  0  0  0  0
    2.7373   -0.7882   -0.3468 C   0  0  0  0  0  0  0  0  0  0  0  0
    3.4733    0.4035   -0.4860 C   0  0  0  0  0  0  0  0  0  0  0  0
    3.8411    1.1881    0.6175 O   0  0  0  0  0  0  0  0  0  0  0  0
    3.1131    1.3294    1.8086 C   0  0  0  0  0  0  0  0  0  0  0  0
    3.8095    1.6262    2.9842 C   0  0  0  0  0  0  0  0  0  0  0  0
    3.1235    1.8023    4.1868 C   0  0  0  0  0  0  0  0  0  0  0  0
    1.7318    1.6941    4.2238 C   0  0  0  0  0  0  0  0  0  0  0  0
    1.0073    1.4118    3.0515 C   0  0  0  0  0  0  0  0  0  0  0  0
   -0.4755    1.3059    3.0863 C   0  0  0  0  0  0  0  0  0  0  0  0
   -1.1251    0.6892    4.1715 C   0  0  0  0  0  0  0  0  0  0  0  0
   -2.5174    0.5769    4.1929 C   0  0  0  0  0  0  0  0  0  0  0  0
   -3.2786    1.0644    3.1291 C   0  0  0  0  0  0  0  0  0  0  0  0
   -2.6495    1.6696    2.0317 C   0  0  0  0  0  0  0  0  0  0  0  0
   -3.4563    2.1645    0.8603 C   0  0  0  0  0  0  0  0  0  0  0  0
   -2.9244    1.6546   -0.3637 O   0  0  0  0  0  0  0  0  0  0  0  0
   -2.9091    0.3000   -0.7353 C   0  0  0  0  0  0  0  0  0  0  0  0
   -3.6364   -0.6813   -0.0418 C   0  0  0  0  0  0  0  0  0  0  0  0
   -3.5870   -2.0131   -0.4525 C   0  0  0  0  0  0  0  0  0  0  0  0
   -2.8204   -2.3930   -1.5588 C   0  0  0  0  0  0  0  0  0  0  0  0
   -2.8823   -3.7292   -1.9609 O   0  0  0  0  0  0  0  0  0  0  0  0
   -2.0496   -1.4199   -2.2440 C   0  0  0  0  0  0  0  0  0  0  0  0
   -1.1326   -1.7600   -3.3547 C   0  0  0  0  0  0  0  0  0  0  0  0
   -0.5471   -2.8749   -3.3892 O   0  0  0  0  0  0  0  0  0  0  0  0
   -0.8637   -0.8181   -4.3444 O   0  0  0  0  0  0  0  0  0  0  0  0
   -2.1293   -0.0768   -1.8334 C   0  0  0  0  0  0  0  0  0  0  0  0
   -1.2528    1.8072    2.0258 C   0  0  0  0  0  0  0  0  0  0  0  0
    1.7098    1.2360    1.8431 C   0  0  0  0  0  0  0  0  0  0  0  0
    3.9057    0.7964   -1.7582 C   0  0  0  0  0  0  0  0  0  0  0  0
    3.5958    0.0255   -2.8824 C   0  0  0  0  0  0  0  0  0  0  0  0
  1  2  3  0
  2  3  1  0
  3  4  2  0
  4  5  1  0
  5  6  2  0
  6  7  1  0
  7  8  1  0
  8  9  2  0
  9 10  1  0
 10 11  2  0
 11 12  1  0
 12 13  1  0
 13 14  2  0
 14 15  1  0
 15 16  2  0
 16 17  1  0
 17 18  1  0
 18 19  1  0
 19 20  1  0
 20 21  2  0
 21 22  1  0
 22 23  2  0
 23 24  1  0
 23 25  1  0
 25 26  1  0
 26 27  2  0
 26 28  1  0
 25 29  2  0
 17 30  2  0
 12 31  2  0
  6 32  1  0
 32 33  2  0
 33  3  1  0
 31  8  1  0
 30 13  1  0
 29 20  1  0
M  END
>  <score>  (164) 
-0.960538

$$$$
HIPS6993
     RDKit          3D

 32 35  0  0  0  0  0  0  0  0999 V2000
   -3.9290    2.3326   -0.8999 N   0  0  0  0  0  0  0  0  0  0  0  0
   -2.9069    1.5105   -1.4720 C   0  0  0  0  0  0  0  0  0  0  0  0
   -2.0203    0.8120   -0.6430 C   0  0  0  0  0  0  0  0  0  0  0  0
   -1.0358   -0.0105   -1.1984 C   0  0  0  0  0  0  0  0  0  0  0  0
   -0.9237   -0.1399   -2.5959 C   0  0  0  0  0  0  0  0  0  0  0  0
    0.0407   -0.9685   -3.1926 O   0  0  0  0  0  0  0  0  0  0  0  0
    1.2798   -1.2989   -2.6232 C   0  0  0  0  0  0  0  0  0  0  0  0
    1.8043   -2.5766   -2.8387 C   0  0  0  0  0  0  0  0  0  0  0  0
    3.0163   -2.9457   -2.2534 C   0  0  0  0  0  0  0  0  0  0  0  0
    3.7166   -2.0372   -1.4553 C   0  0  0  0  0  0  0  0  0  0  0  0
    3.2278   -0.7312   -1.2578 C   0  0  0  0  0  0  0  0  0  0  0  0
    3.9648    0.2360   -0.3952 C   0  0  0  0  0  0  0  0  0  0  0  0
    5.3707    0.2286   -0.3440 C   0  0  0  0  0  0  0  0  0  0  0  0
    6.0545    1.0823    0.5255 C   0  0  0  0  0  0  0  0  0  0  0  0
    5.3489    1.9574    1.3503 C   0  0  0  0  0  0  0  0  0  0  0  0
    3.9503    2.0126    1.2852 C   0  0  0  0  0  0  0  0  0  0  0  0
    3.1828    2.9253    2.2042 C   0  0  0  0  0  0  0  0  0  0  0  0
    2.8386    2.2468    3.4131 O   0  0  0  0  0  0  0  0  0  0  0  0
    1.7790    1.3378    3.4733 C   0  0  0  0  0  0  0  0  0  0  0  0
    0.5187    1.7704    3.8903 C   0  0  0  0  0  0  0  0  0  0  0  0
   -0.5500    0.8726    3.9343 C   0  0  0  0  0  0  0  0  0  0  0  0
   -0.3723   -0.4678    3.5581 C   0  0  0  0  0  0  0  0  0  0  0  0
   -1.4585   -1.3437    3.6158 O   0  0  0  0  0  0  0  0  0  0  0  0
    0.9008   -0.9178    3.1344 C   0  0  0  0  0  0  0  0  0  0  0  0
    1.1287   -2.3226    2.7018 C   0  0  0  0  0  0  0  0  0  0  0  0
    2.2835   -2.7006    2.3601 O   0  0  0  0  0  0  0  0  0  0  0  0
    0.0785   -3.2340    2.6450 O   0  0  0  0  0  0  0  0  0  0  0  0
    1.9727   -0.0041    3.1201 C   0  0  0  0  0  0  0  0  0  0  0  0
    3.2648    1.1568    0.4096 C   0  0  0  0  0  0  0  0  0  0  0  0
    2.0132   -0.3677   -1.8673 C   0  0  0  0  0  0  0  0  0  0  0  0
   -1.8199    0.5532   -3.4221 C   0  0  0  0  0  0  0  0  0  0  0  0
   -2.7973    1.3829   -2.8643 C   0  0  0  0  0  0  0  0  0  0  0  0
  1  2  1  0
  2  3  2  0
  3  4  1  0
  4  5  2  0
  5  6  1  0
  6  7  1  0
  7  8  2  0
  8  9  1  0
  9 10  2  0
 10 11  1  0
 11 12  1  0
 12 13  2  0
 13 14  1  0
 14 15  2  0
 15 16  1  0
 16 17  1  0
 17 18  1  0
 18 19  1  0
 19 20  2  0
 20 21  1  0
 21 22  2  0
 22 23  1  0
 22 24  1  0
 24 25  1  0
 25 26  2  0
 25 27  1  0
 24 28  2  0
 16 29  2  0
 11 30  2  0
  5 31  1  0
 31 32  2  0
 32  2  1  0
 30  7  1  0
 29 12  1  0
 28 19  1  0
M  END
>  <score>  (165) 
-0.223454

$$$$
HIPS6994
     RDKit          3D

 32 35  0  0  0  0  0  0  0  0999 V2000
    3.3873   -1.7100    4.5449 C   0  0  0  0  0  0  0  0  0  0  0  0
    3.0114   -2.2222    3.1873 C   0  0  0  0  0  0  0  0  0  0  0  0
    2.6574   -1.3241    2.1739 C   0  0  0  0  0  0  0  0  0  0  0  0
    2.3635   -1.7881    0.8889 C   0  0  0  0  0  0  0  0  0  0  0  0
    2.4339   -3.1675    0.5997 C   0  0  0  0  0  0  0  0  0  0  0  0
    2.2265   -3.6695   -0.6965 O   0  0  0  0  0  0  0  0  0  0  0  0
    1.5780   -2.9795   -1.7264 C   0  0  0  0  0  0  0  0  0  0  0  0
    2.1644   -2.9459   -2.9949 C   0  0  0  0  0  0  0  0  0  0  0  0
    1.5509   -2.2484   -4.0346 C   0  0  0  0  0  0  0  0  0  0  0  0
    0.3305   -1.6006   -3.8208 C   0  0  0  0  0  0  0  0  0  0  0  0
   -0.2910   -1.6566   -2.5605 C   0  0  0  0  0  0  0  0  0  0  0  0
   -1.6001   -1.0015   -2.3360 C   0  0  0  0  0  0  0  0  0  0  0  0
   -2.6358   -1.6939   -1.6864 C   0  0  0  0  0  0  0  0  0  0  0  0
   -3.8676   -1.0735   -1.4614 C   0  0  0  0  0  0  0  0  0  0  0  0
   -4.0729    0.2494   -1.8628 C   0  0  0  0  0  0  0  0  0  0  0  0
   -3.0423    0.9624   -2.4963 C   0  0  0  0  0  0  0  0  0  0  0  0
   -3.2204    2.4194   -2.8506 C   0  0  0  0  0  0  0  0  0  0  0  0
   -2.1847    3.2047   -2.2559 O   0  0  0  0  0  0  0  0  0  0  0  0
   -1.9377    3.2908   -0.8754 C   0  0  0  0  0  0  0  0  0  0  0  0
   -2.9031    2.9437    0.0828 C   0  0  0  0  0  0  0  0  0  0  0  0
   -2.5803    2.9559    1.4415 C   0  0  0  0  0  0  0  0  0  0  0  0
   -1.2966    3.3142    1.8668 C   0  0  0  0  0  0  0  0  0  0  0  0
   -1.0064    3.1840    3.2246 O   0  0  0  0  0  0  0  0  0  0  0  0
   -0.3367    3.7457    0.9156 C   0  0  0  0  0  0  0  0  0  0  0  0
    1.0071    4.2375    1.2982 C   0  0  0  0  0  0  0  0  0  0  0  0
    1.1947    4.8159    2.4011 O   0  0  0  0  0  0  0  0  0  0  0  0
    2.0674    4.1132    0.4058 O   0  0  0  0  0  0  0  0  0  0  0  0
   -0.6752    3.7187   -0.4494 C   0  0  0  0  0  0  0  0  0  0  0  0
   -1.8158    0.3246   -2.7508 C   0  0  0  0  0  0  0  0  0  0  0  0
    0.3415   -2.3499   -1.5147 C   0  0  0  0  0  0  0  0  0  0  0  0
    2.7819   -4.0628    1.6175 C   0  0  0  0  0  0  0  0  0  0  0  0
    3.0706   -3.5969    2.9024 C   0  0  0  0  0  0  0  0  0  0  0  0
  1  2  1  0
  2  3  2  0
  3  4  1  0
  4  5  2  0
  5  6  1  0
  6  7  1  0
  7  8  2  0
  8  9  1  0
  9 10  2  0
 10 11  1  0
 11 12  1  0
 12 13  2  0
 13 14  1  0
 14 15  2  0
 15 16  1  0
 16 17  1  0
 17 18  1  0
 18 19  1  0
 19 20  2  0
 20 21  1  0
 21 22  2  0
 22 23  1  0
 22 24  1  0
 24 25  1  0
 25 26  2  0
 25 27  1  0
 24 28  2  0
 16 29  2  0
 11 30  2  0
  5 31  1  0
 31 32  2  0
 32  2  1  0
 30  7  1  0
 29 12  1  0
 28 19  1  0
M  END
>  <score>  (166) 
-1.38477

$$$$
HIPS6995
     RDKit          3D

 32 35  0  0  0  0  0  0  0  0999 V2000
   -6.0985   -7.1052    0.1416 O   0  0  0  0  0  0  0  0  0  0  0  0
   -5.0687   -6.4312    0.4133 C   0  0  0  0  0  0  0  0  0  0  0  0
   -4.4882   -6.5653    1.6724 O   0  0  0  0  0  0  0  0  0  0  0  0
   -4.4757   -5.5056   -0.5867 C   0  0  0  0  0  0  0  0  0  0  0  0
   -3.3260   -4.7673   -0.2441 C   0  0  0  0  0  0  0  0  0  0  0  0
   -2.7354   -3.8807   -1.1644 C   0  0  0  0  0  0  0  0  0  0  0  0
   -1.5912   -3.1285   -0.8592 O   0  0  0  0  0  0  0  0  0  0  0  0
   -0.9078   -3.1665    0.3903 C   0  0  0  0  0  0  0  0  0  0  0  0
    0.2588   -2.2238    0.3418 C   0  0  0  0  0  0  0  0  0  0  0  0
    1.5223   -2.6820   -0.0587 C   0  0  0  0  0  0  0  0  0  0  0  0
    2.5990   -1.7964   -0.1350 C   0  0  0  0  0  0  0  0  0  0  0  0
    2.4217   -0.4460    0.1750 C   0  0  0  0  0  0  0  0  0  0  0  0
    1.1581    0.0370    0.5602 C   0  0  0  0  0  0  0  0  0  0  0  0
    0.9659    1.4748    0.8786 C   0  0  0  0  0  0  0  0  0  0  0  0
   -0.1833    2.1559    0.4407 C   0  0  0  0  0  0  0  0  0  0  0  0
   -0.3612    3.5076    0.7416 C   0  0  0  0  0  0  0  0  0  0  0  0
    0.6017    4.1967    1.4810 C   0  0  0  0  0  0  0  0  0  0  0  0
    1.7610    3.5339    1.9258 C   0  0  0  0  0  0  0  0  0  0  0  0
    2.7627    4.1775    2.6712 O   0  0  0  0  0  0  0  0  0  0  0  0
    2.7827    5.5667    2.9993 C   0  0  0  0  0  0  0  0  0  0  0  0
    3.0423    6.3940    1.7788 C   0  0  0  0  0  0  0  0  0  0  0  0
    4.0980    6.1031    0.9715 N   0  0  0  0  0  0  0  0  0  0  0  0
    4.3563    6.8467   -0.1355 C   0  0  0  0  0  0  0  0  0  0  0  0
    3.5361    7.9284   -0.4534 C   0  0  0  0  0  0  0  0  0  0  0  0
    2.4634    8.2184    0.3886 C   0  0  0  0  0  0  0  0  0  0  0  0
    2.2377    7.4515    1.4867 N   0  0  0  0  0  0  0  0  0  0  0  0
    1.9318    2.1775    1.6224 C   0  0  0  0  0  0  0  0  0  0  0  0
    0.0783   -0.8627    0.6351 C   0  0  0  0  0  0  0  0  0  0  0  0
   -3.3012   -3.7356   -2.4326 C   0  0  0  0  0  0  0  0  0  0  0  0
   -4.4392   -4.4592   -2.7872 C   0  0  0  0  0  0  0  0  0  0  0  0
   -5.0328   -5.3435   -1.8764 C   0  0  0  0  0  0  0  0  0  0  0  0
   -6.1708   -6.0546   -2.2578 O   0  0  0  0  0  0  0  0  0  0  0  0
  1  2  2  0
  2  3  1  0
  2  4  1  0
  4  5  2  0
  5  6  1  0
  6  7  1  0
  7  8  1  0
  8  9  1  0
  9 10  2  0
 10 11  1  0
 11 12  2  0
 12 13  1  0
 13 14  1  0
 14 15  2  0
 15 16  1  0
 16 17  2  0
 17 18  1  0
 18 19  1  0
 19 20  1  0
 20 21  1  0
 21 22  2  0
 22 23  1  0
 23 24  2  0
 24 25  1  0
 25 26  2  0
 18 27  2  0
 13 28  2  0
  6 29  2  0
 29 30  1  0
 30 31  2  0
 31 32  1  0
 31  4  1  0
 28  9  1  0
 27 14  1  0
 26 21  1  0
M  END
>  <score>  (167) 
-0.428841

$$$$
HIPS6996
     RDKit          3D

 32 35  0  0  0  0  0  0  0  0999 V2000
    1.1510   -0.3683   -7.0752 O   0  0  0  0  0  0  0  0  0  0  0  0
    2.1132   -0.3486   -6.2613 C   0  0  0  0  0  0  0  0  0  0  0  0
    3.3705    0.0454   -6.7129 O   0  0  0  0  0  0  0  0  0  0  0  0
    1.9199   -0.7377   -4.8407 C   0  0  0  0  0  0  0  0  0  0  0  0
    3.0200   -0.7031   -3.9630 C   0  0  0  0  0  0  0  0  0  0  0  0
    2.8851   -1.0567   -2.6160 C   0  0  0  0  0  0  0  0  0  0  0  0
    4.0242   -0.9918   -1.7967 O   0  0  0  0  0  0  0  0  0  0  0  0
    4.0384   -1.1970   -0.3834 C   0  0  0  0  0  0  0  0  0  0  0  0
    3.3518   -0.0607    0.3276 C   0  0  0  0  0  0  0  0  0  0  0  0
    3.7587    1.2606    0.0919 C   0  0  0  0  0  0  0  0  0  0  0  0
    3.1237    2.3191    0.7435 C   0  0  0  0  0  0  0  0  0  0  0  0
    2.0817    2.0691    1.6393 C   0  0  0  0  0  0  0  0  0  0  0  0
    1.6660    0.7509    1.8987 C   0  0  0  0  0  0  0  0  0  0  0  0
    0.5573    0.4835    2.8498 C   0  0  0  0  0  0  0  0  0  0  0  0
    0.6359   -0.5889    3.7552 C   0  0  0  0  0  0  0  0  0  0  0  0
   -0.4092   -0.8388    4.6467 C   0  0  0  0  0  0  0  0  0  0  0  0
   -1.5450   -0.0270    4.6450 C   0  0  0  0  0  0  0  0  0  0  0  0
   -1.6455    1.0479    3.7424 C   0  0  0  0  0  0  0  0  0  0  0  0
   -2.7679    1.8906    3.6900 O   0  0  0  0  0  0  0  0  0  0  0  0
   -3.9714    1.7100    4.4374 C   0  0  0  0  0  0  0  0  0  0  0  0
   -4.7369    0.5132    3.9386 C   0  0  0  0  0  0  0  0  0  0  0  0
   -5.1878   -0.4706    4.8312 C   0  0  0  0  0  0  0  0  0  0  0  0
   -5.9054   -1.5654    4.3430 C   0  0  0  0  0  0  0  0  0  0  0  0
   -6.1714   -1.6693    3.0138 N   0  0  0  0  0  0  0  0  0  0  0  0
   -5.7561   -0.7251    2.1282 C   0  0  0  0  0  0  0  0  0  0  0  0
   -5.0356    0.3855    2.5742 C   0  0  0  0  0  0  0  0  0  0  0  0
   -0.5906    1.2972    2.8558 C   0  0  0  0  0  0  0  0  0  0  0  0
    2.3138   -0.3108    1.2402 C   0  0  0  0  0  0  0  0  0  0  0  0
    1.6286   -1.4625   -2.1359 C   0  0  0  0  0  0  0  0  0  0  0  0
    0.5286   -1.5017   -2.9925 C   0  0  0  0  0  0  0  0  0  0  0  0
    0.6610   -1.1423   -4.3405 C   0  0  0  0  0  0  0  0  0  0  0  0
   -0.4570   -1.1903   -5.1735 O   0  0  0  0  0  0  0  0  0  0  0  0
  1  2  2  0
  2  3  1  0
  2  4  1  0
  4  5  2  0
  5  6  1  0
  6  7  1  0
  7  8  1  0
  8  9  1  0
  9 10  2  0
 10 11  1  0
 11 12  2  0
 12 13  1  0
 13 14  1  0
 14 15  2  0
 15 16  1  0
 16 17  2  0
 17 18  1  0
 18 19  1  0
 19 20  1  0
 20 21  1  0
 21 22  2  0
 22 23  1  0
 23 24  2  0
 24 25  1  0
 25 26  2  0
 18 27  2  0
 13 28  2  0
  6 29  2  0
 29 30  1  0
 30 31  2  0
 31 32  1  0
 31  4  1  0
 28  9  1  0
 27 14  1  0
 26 21  1  0
M  END
>  <score>  (168) 
0.453314

$$$$
HIPS6997
     RDKit          3D

 32 35  0  0  0  0  0  0  0  0999 V2000
    1.3106    1.4768   -3.9078 O   0  0  0  0  0  0  0  0  0  0  0  0
    1.5458    0.6251   -3.0097 C   0  0  0  0  0  0  0  0  0  0  0  0
    1.0880   -0.6801   -3.1725 O   0  0  0  0  0  0  0  0  0  0  0  0
    2.3544    0.9789   -1.8207 C   0  0  0  0  0  0  0  0  0  0  0  0
    3.1549   -0.0212   -1.2393 C   0  0  0  0  0  0  0  0  0  0  0  0
    3.9990    0.2678   -0.1514 C   0  0  0  0  0  0  0  0  0  0  0  0
    4.8128   -0.7021    0.4572 O   0  0  0  0  0  0  0  0  0  0  0  0
    4.6016   -2.1139    0.4054 C   0  0  0  0  0  0  0  0  0  0  0  0
    3.4710   -2.5024    1.3196 C   0  0  0  0  0  0  0  0  0  0  0  0
    3.7145   -2.7024    2.6868 C   0  0  0  0  0  0  0  0  0  0  0  0
    2.6660   -3.0307    3.5486 C   0  0  0  0  0  0  0  0  0  0  0  0
    1.3628   -3.1411    3.0589 C   0  0  0  0  0  0  0  0  0  0  0  0
    1.0950   -2.9189    1.6976 C   0  0  0  0  0  0  0  0  0  0  0  0
   -0.2947   -2.9827    1.1868 C   0  0  0  0  0  0  0  0  0  0  0  0
   -1.1450   -4.0360    1.5617 C   0  0  0  0  0  0  0  0  0  0  0  0
   -2.4560   -4.0871    1.0836 C   0  0  0  0  0  0  0  0  0  0  0  0
   -2.9361   -3.0812    0.2423 C   0  0  0  0  0  0  0  0  0  0  0  0
   -2.1137   -2.0115   -0.1274 C   0  0  0  0  0  0  0  0  0  0  0  0
   -2.6574   -1.0092   -0.9474 O   0  0  0  0  0  0  0  0  0  0  0  0
   -2.0430    0.2486   -1.2307 C   0  0  0  0  0  0  0  0  0  0  0  0
   -2.0323    1.1207   -0.0042 C   0  0  0  0  0  0  0  0  0  0  0  0
   -3.2381    1.5045    0.5990 C   0  0  0  0  0  0  0  0  0  0  0  0
   -3.2235    2.3102    1.7389 C   0  0  0  0  0  0  0  0  0  0  0  0
   -1.9997    2.7270    2.2660 C   0  0  0  0  0  0  0  0  0  0  0  0
   -0.8377    2.3484    1.6708 N   0  0  0  0  0  0  0  0  0  0  0  0
   -0.8263    1.5643    0.5599 C   0  0  0  0  0  0  0  0  0  0  0  0
   -0.7835   -1.9763    0.3346 C   0  0  0  0  0  0  0  0  0  0  0  0
    2.1582   -2.6069    0.8318 C   0  0  0  0  0  0  0  0  0  0  0  0
    4.0563    1.5751    0.3356 C   0  0  0  0  0  0  0  0  0  0  0  0
    3.2523    2.5727   -0.2155 C   0  0  0  0  0  0  0  0  0  0  0  0
    2.3804    2.2851   -1.2705 C   0  0  0  0  0  0  0  0  0  0  0  0
    1.5364    3.3068   -1.7114 O   0  0  0  0  0  0  0  0  0  0  0  0
  1  2  2  0
  2  3  1  0
  2  4  1  0
  4  5  2  0
  5  6  1  0
  6  7  1  0
  7  8  1  0
  8  9  1  0
  9 10  2  0
 10 11  1  0
 11 12  2  0
 12 13  1  0
 13 14  1  0
 14 15  2  0
 15 16  1  0
 16 17  2  0
 17 18  1  0
 18 19  1  0
 19 20  1  0
 20 21  1  0
 21 22  2  0
 22 23  1  0
 23 24  2  0
 24 25  1  0
 25 26  2  0
 18 27  2  0
 13 28  2  0
  6 29  2  0
 29 30  1  0
 30 31  2  0
 31 32  1  0
 31  4  1  0
 28  9  1  0
 27 14  1  0
 26 21  1  0
M  END
>  <score>  (169) 
0.419644

$$$$
HIPS6998
     RDKit          3D

 33 36  0  0  0  0  0  0  0  0999 V2000
   -5.7282   -3.0173    2.9875 O   0  0  0  0  0  0  0  0  0  0  0  0
   -4.5455   -2.6953    2.6956 C   0  0  0  0  0  0  0  0  0  0  0  0
   -4.1113   -1.3956    2.9429 O   0  0  0  0  0  0  0  0  0  0  0  0
   -3.5994   -3.6968    2.1557 C   0  0  0  0  0  0  0  0  0  0  0  0
   -2.2451   -3.5990    2.5234 C   0  0  0  0  0  0  0  0  0  0  0  0
   -1.3075   -4.5553    2.0912 C   0  0  0  0  0  0  0  0  0  0  0  0
    0.0544   -4.4885    2.4290 O   0  0  0  0  0  0  0  0  0  0  0  0
    0.6799   -3.4115    3.1288 C   0  0  0  0  0  0  0  0  0  0  0  0
    0.6873   -2.1584    2.2925 C   0  0  0  0  0  0  0  0  0  0  0  0
    0.2792   -0.9341    2.8428 C   0  0  0  0  0  0  0  0  0  0  0  0
    0.2909    0.2250    2.0650 C   0  0  0  0  0  0  0  0  0  0  0  0
    0.7162    0.1753    0.7358 C   0  0  0  0  0  0  0  0  0  0  0  0
    1.1422   -1.0398    0.1690 C   0  0  0  0  0  0  0  0  0  0  0  0
    1.5910   -1.0944   -1.2455 C   0  0  0  0  0  0  0  0  0  0  0  0
    1.2168   -2.1672   -2.0736 C   0  0  0  0  0  0  0  0  0  0  0  0
    1.6293   -2.2070   -3.4071 C   0  0  0  0  0  0  0  0  0  0  0  0
    2.4108   -1.1757   -3.9313 C   0  0  0  0  0  0  0  0  0  0  0  0
    2.7904   -0.0946   -3.1291 C   0  0  0  0  0  0  0  0  0  0  0  0
    3.5596    0.9268   -3.7109 O   0  0  0  0  0  0  0  0  0  0  0  0
    3.9183    2.1542   -3.0735 C   0  0  0  0  0  0  0  0  0  0  0  0
    2.7026    3.0129   -2.8405 C   0  0  0  0  0  0  0  0  0  0  0  0
    1.8411    3.3174   -3.9069 C   0  0  0  0  0  0  0  0  0  0  0  0
    0.7064    4.1061   -3.6935 C   0  0  0  0  0  0  0  0  0  0  0  0
    0.4271    4.6020   -2.4159 C   0  0  0  0  0  0  0  0  0  0  0  0
   -0.9993    5.5873   -2.1488 Cl  0  0  0  0  0  0  0  0  0  0  0  0
    1.2876    4.3132   -1.3519 C   0  0  0  0  0  0  0  0  0  0  0  0
    2.4241    3.5268   -1.5627 C   0  0  0  0  0  0  0  0  0  0  0  0
    2.3890   -0.0664   -1.7794 C   0  0  0  0  0  0  0  0  0  0  0  0
    1.1313   -2.2025    0.9610 C   0  0  0  0  0  0  0  0  0  0  0  0
   -1.7376   -5.6200    1.2971 C   0  0  0  0  0  0  0  0  0  0  0  0
   -3.0741   -5.7213    0.9113 C   0  0  0  0  0  0  0  0  0  0  0  0
   -4.0074   -4.7593    1.3108 C   0  0  0  0  0  0  0  0  0  0  0  0
   -5.3105   -4.8768    0.8218 O   0  0  0  0  0  0  0  0  0  0  0  0
  1  2  2  0
  2  3  1  0
  2  4  1  0
  4  5  2  0
  5  6  1  0
  6  7  1  0
  7  8  1  0
  8  9  1  0
  9 10  2  0
 10 11  1  0
 11 12  2  0
 12 13  1  0
 13 14  1  0
 14 15  2  0
 15 16  1  0
 16 17  2  0
 17 18  1  0
 18 19  1  0
 19 20  1  0
 20 21  1  0
 21 22  2  0
 22 23  1  0
 23 24  2  0
 24 25  1  0
 24 26  1  0
 26 27  2  0
 18 28  2  0
 13 29  2  0
  6 30  2  0
 30 31  1  0
 31 32  2  0
 32 33  1  0
 32  4  1  0
 29  9  1  0
 28 14  1  0
 27 21  1  0
M  END
>  <score>  (170) 
-1.0183

$$$$
HIPS6999
     RDKit          3D

 33 36  0  0  0  0  0  0  0  0999 V2000
   -3.8810    2.7278    1.0189 C   0  0  0  0  0  0  0  0  0  0  0  0
   -3.4412    1.2951    0.9595 C   0  0  0  0  0  0  0  0  0  0  0  0
   -3.9025    0.3733    1.9114 C   0  0  0  0  0  0  0  0  0  0  0  0
   -3.5197   -0.9692    1.8362 C   0  0  0  0  0  0  0  0  0  0  0  0
   -2.6762   -1.4088    0.8044 C   0  0  0  0  0  0  0  0  0  0  0  0
   -2.2636   -2.8555    0.7301 C   0  0  0  0  0  0  0  0  0  0  0  0
   -1.6817   -3.2809    1.9631 O   0  0  0  0  0  0  0  0  0  0  0  0
   -0.4473   -2.8444    2.4716 C   0  0  0  0  0  0  0  0  0  0  0  0
   -0.0801   -3.2578    3.7564 C   0  0  0  0  0  0  0  0  0  0  0  0
    1.1256   -2.8360    4.3192 C   0  0  0  0  0  0  0  0  0  0  0  0
    1.9787   -1.9952    3.6020 C   0  0  0  0  0  0  0  0  0  0  0  0
    1.6368   -1.5739    2.3052 C   0  0  0  0  0  0  0  0  0  0  0  0
    2.5386   -0.6732    1.5441 C   0  0  0  0  0  0  0  0  0  0  0  0
    3.1615    0.4139    2.1825 C   0  0  0  0  0  0  0  0  0  0  0  0
    4.0086    1.2632    1.4679 C   0  0  0  0  0  0  0  0  0  0  0  0
    4.2450    1.0393    0.1108 C   0  0  0  0  0  0  0  0  0  0  0  0
    3.6287   -0.0355   -0.5468 C   0  0  0  0  0  0  0  0  0  0  0  0
    3.9088   -0.2793   -2.0056 C   0  0  0  0  0  0  0  0  0  0  0  0
    3.6166    0.8878   -2.7743 O   0  0  0  0  0  0  0  0  0  0  0  0
    2.3300    1.3776   -3.0517 C   0  0  0  0  0  0  0  0  0  0  0  0
    1.1624    0.6602   -2.7420 C   0  0  0  0  0  0  0  0  0  0  0  0
   -0.0890    1.1894   -3.0564 C   0  0  0  0  0  0  0  0  0  0  0  0
   -0.2018    2.4458   -3.6657 C   0  0  0  0  0  0  0  0  0  0  0  0
   -1.4689    2.9521   -3.9547 O   0  0  0  0  0  0  0  0  0  0  0  0
    0.9623    3.1821   -3.9804 C   0  0  0  0  0  0  0  0  0  0  0  0
    0.8901    4.5176   -4.6285 C   0  0  0  0  0  0  0  0  0  0  0  0
    1.9475    5.1496   -4.8985 O   0  0  0  0  0  0  0  0  0  0  0  0
   -0.3370    5.0928   -4.9474 O   0  0  0  0  0  0  0  0  0  0  0  0
    2.2199    2.6277   -3.6705 C   0  0  0  0  0  0  0  0  0  0  0  0
    2.7803   -0.8915    0.1747 C   0  0  0  0  0  0  0  0  0  0  0  0
    0.4231   -2.0098    1.7428 C   0  0  0  0  0  0  0  0  0  0  0  0
   -2.2405   -0.4921   -0.1649 C   0  0  0  0  0  0  0  0  0  0  0  0
   -2.6218    0.8508   -0.0887 C   0  0  0  0  0  0  0  0  0  0  0  0
  1  2  1  0
  2  3  2  0
  3  4  1  0
  4  5  2  0
  5  6  1  0
  6  7  1  0
  7  8  1  0
  8  9  2  0
  9 10  1  0
 10 11  2  0
 11 12  1  0
 12 13  1  0
 13 14  2  0
 14 15  1  0
 15 16  2  0
 16 17  1  0
 17 18  1  0
 18 19  1  0
 19 20  1  0
 20 21  2  0
 21 22  1  0
 22 23  2  0
 23 24  1  0
 23 25  1  0
 25 26  1  0
 26 27  2  0
 26 28  1  0
 25 29  2  0
 17 30  2  0
 12 31  2  0
  5 32  1  0
 32 33  2  0
 33  2  1  0
 31  8  1  0
 30 13  1  0
 29 20  1  0
M  END
>  <score>  (171) 
-1.166813

$$$$
HIPS7000
     RDKit          3D

 36 39  0  0  0  0  0  0  0  0999 V2000
    0.7262   -7.0292    4.6974 O   0  0  0  0  0  0  0  0  0  0  0  0
    0.6289   -6.4034    3.6077 C   0  0  0  0  0  0  0  0  0  0  0  0
   -0.0176   -7.0137    2.5354 O   0  0  0  0  0  0  0  0  0  0  0  0
    1.1915   -5.0361    3.4591 C   0  0  0  0  0  0  0  0  0  0  0  0
    1.0605   -4.3687    2.2255 C   0  0  0  0  0  0  0  0  0  0  0  0
    1.5796   -3.0725    2.0462 C   0  0  0  0  0  0  0  0  0  0  0  0
    1.4678   -2.3764    0.8333 O   0  0  0  0  0  0  0  0  0  0  0  0
    0.8264   -2.8827   -0.3339 C   0  0  0  0  0  0  0  0  0  0  0  0
    0.8979   -1.8502   -1.4204 C   0  0  0  0  0  0  0  0  0  0  0  0
    1.9694   -1.8485   -2.3253 C   0  0  0  0  0  0  0  0  0  0  0  0
    2.0593   -0.8587   -3.3058 C   0  0  0  0  0  0  0  0  0  0  0  0
    1.0902    0.1441   -3.3832 C   0  0  0  0  0  0  0  0  0  0  0  0
    0.0171    0.1696   -2.4743 C   0  0  0  0  0  0  0  0  0  0  0  0
   -1.0032    1.2463   -2.5413 C   0  0  0  0  0  0  0  0  0  0  0  0
   -2.3661    0.9499   -2.3660 C   0  0  0  0  0  0  0  0  0  0  0  0
   -3.3226    1.9654   -2.4233 C   0  0  0  0  0  0  0  0  0  0  0  0
   -2.9313    3.2864   -2.6480 C   0  0  0  0  0  0  0  0  0  0  0  0
   -1.5806    3.6079   -2.8175 C   0  0  0  0  0  0  0  0  0  0  0  0
   -1.2405    4.9553   -3.0227 O   0  0  0  0  0  0  0  0  0  0  0  0
    0.0905    5.4672   -3.1072 C   0  0  0  0  0  0  0  0  0  0  0  0
    0.7849    5.3802   -1.7733 C   0  0  0  0  0  0  0  0  0  0  0  0
    2.0601    4.8042   -1.6689 C   0  0  0  0  0  0  0  0  0  0  0  0
    2.6995    4.7237   -0.4286 C   0  0  0  0  0  0  0  0  0  0  0  0
    2.0706    5.2108    0.7304 C   0  0  0  0  0  0  0  0  0  0  0  0
    2.7780    5.1654    2.0613 C   0  0  0  0  0  0  0  0  0  0  0  0
    1.8641    5.0612    3.0955 F   0  0  0  0  0  0  0  0  0  0  0  0
    3.5141    6.3237    2.2253 F   0  0  0  0  0  0  0  0  0  0  0  0
    3.6301    4.0763    2.1264 F   0  0  0  0  0  0  0  0  0  0  0  0
    0.8121    5.8260    0.6152 C   0  0  0  0  0  0  0  0  0  0  0  0
    0.1731    5.9053   -0.6254 C   0  0  0  0  0  0  0  0  0  0  0  0
   -0.6185    2.5798   -2.7729 C   0  0  0  0  0  0  0  0  0  0  0  0
   -0.0673   -0.8330   -1.4905 C   0  0  0  0  0  0  0  0  0  0  0  0
    2.2327   -2.4450    3.1089 C   0  0  0  0  0  0  0  0  0  0  0  0
    2.3707   -3.0922    4.3363 C   0  0  0  0  0  0  0  0  0  0  0  0
    1.8563   -4.3825    4.5224 C   0  0  0  0  0  0  0  0  0  0  0  0
    2.0089   -5.0063    5.7609 O   0  0  0  0  0  0  0  0  0  0  0  0
  1  2  2  0
  2  3  1  0
  2  4  1  0
  4  5  2  0
  5  6  1  0
  6  7  1  0
  7  8  1  0
  8  9  1  0
  9 10  2  0
 10 11  1  0
 11 12  2  0
 12 13  1  0
 13 14  1  0
 14 15  2  0
 15 16  1  0
 16 17  2  0
 17 18  1  0
 18 19  1  0
 19 20  1  0
 20 21  1  0
 21 22  2  0
 22 23  1  0
 23 24  2  0
 24 25  1  0
 25 26  1  0
 25 27  1  0
 25 28  1  0
 24 29  1  0
 29 30  2  0
 18 31  2  0
 13 32  2  0
  6 33  2  0
 33 34  1  0
 34 35  2  0
 35 36  1  0
 35  4  1  0
 32  9  1  0
 31 14  1  0
 30 21  1  0
M  END
>  <score>  (172) 
-1.222361

$$$$
HIPS7001
     RDKit          3D

 34 37  0  0  0  0  0  0  0  0999 V2000
   -1.2497  -10.1508    2.4862 N   0  0  0  0  0  0  0  0  0  0  0  0
   -1.0581   -9.0944    2.0572 C   0  0  0  0  0  0  0  0  0  0  0  0
   -0.8238   -7.7799    1.5206 C   0  0  0  0  0  0  0  0  0  0  0  0
   -0.9316   -7.5538    0.1429 C   0  0  0  0  0  0  0  0  0  0  0  0
   -0.7208   -6.2737   -0.3788 C   0  0  0  0  0  0  0  0  0  0  0  0
   -0.3938   -5.2091    0.4736 C   0  0  0  0  0  0  0  0  0  0  0  0
   -0.2204   -3.8275   -0.0861 C   0  0  0  0  0  0  0  0  0  0  0  0
   -1.5043   -3.2598   -0.3355 O   0  0  0  0  0  0  0  0  0  0  0  0
   -1.7183   -1.9876   -0.8881 C   0  0  0  0  0  0  0  0  0  0  0  0
   -3.0358   -1.5862   -1.1347 C   0  0  0  0  0  0  0  0  0  0  0  0
   -3.3029   -0.3329   -1.6883 C   0  0  0  0  0  0  0  0  0  0  0  0
   -2.2548    0.5348   -1.9990 C   0  0  0  0  0  0  0  0  0  0  0  0
   -0.9201    0.1568   -1.7556 C   0  0  0  0  0  0  0  0  0  0  0  0
    0.1953    1.0827   -2.0741 C   0  0  0  0  0  0  0  0  0  0  0  0
    1.3826    0.5974   -2.6477 C   0  0  0  0  0  0  0  0  0  0  0  0
    2.4424    1.4649   -2.9192 C   0  0  0  0  0  0  0  0  0  0  0  0
    2.3324    2.8240   -2.6201 C   0  0  0  0  0  0  0  0  0  0  0  0
    1.1525    3.3299   -2.0577 C   0  0  0  0  0  0  0  0  0  0  0  0
    1.0663    4.7869   -1.6917 C   0  0  0  0  0  0  0  0  0  0  0  0
    1.9257    5.0631   -0.5862 O   0  0  0  0  0  0  0  0  0  0  0  0
    1.7203    4.6219    0.7314 C   0  0  0  0  0  0  0  0  0  0  0  0
    2.8126    4.6121    1.6030 C   0  0  0  0  0  0  0  0  0  0  0  0
    2.6686    4.1640    2.9153 C   0  0  0  0  0  0  0  0  0  0  0  0
    1.4240    3.7223    3.3823 C   0  0  0  0  0  0  0  0  0  0  0  0
    1.3128    3.2744    4.6996 O   0  0  0  0  0  0  0  0  0  0  0  0
    0.3017    3.7428    2.5241 C   0  0  0  0  0  0  0  0  0  0  0  0
   -1.0417    3.3044    2.9875 C   0  0  0  0  0  0  0  0  0  0  0  0
   -2.0312    3.3701    2.2130 O   0  0  0  0  0  0  0  0  0  0  0  0
   -1.2328    2.8270    4.2804 O   0  0  0  0  0  0  0  0  0  0  0  0
    0.4625    4.2005    1.2007 C   0  0  0  0  0  0  0  0  0  0  0  0
    0.0846    2.4570   -1.7923 C   0  0  0  0  0  0  0  0  0  0  0  0
   -0.6597   -1.1091   -1.1975 C   0  0  0  0  0  0  0  0  0  0  0  0
   -0.2976   -5.4378    1.8560 C   0  0  0  0  0  0  0  0  0  0  0  0
   -0.5053   -6.7189    2.3763 C   0  0  0  0  0  0  0  0  0  0  0  0
  1  2  3  0
  2  3  1  0
  3  4  2  0
  4  5  1  0
  5  6  2  0
  6  7  1  0
  7  8  1  0
  8  9  1  0
  9 10  2  0
 10 11  1  0
 11 12  2  0
 12 13  1  0
 13 14  1  0
 14 15  2  0
 15 16  1  0
 16 17  2  0
 17 18  1  0
 18 19  1  0
 19 20  1  0
 20 21  1  0
 21 22  2  0
 22 23  1  0
 23 24  2  0
 24 25  1  0
 24 26  1  0
 26 27  1  0
 27 28  2  0
 27 29  1  0
 26 30  2  0
 18 31  2  0
 13 32  2  0
  6 33  1  0
 33 34  2  0
 34  3  1  0
 32  9  1  0
 31 14  1  0
 30 21  1  0
M  END
>  <score>  (173) 
-0.970519

$$$$
HIPS7002
     RDKit          3D

 37 40  0  0  0  0  0  0  0  0999 V2000
    0.5235   -3.0490    5.2758 O   0  0  0  0  0  0  0  0  0  0  0  0
    0.0781   -2.9726    4.0995 C   0  0  0  0  0  0  0  0  0  0  0  0
   -1.0325   -2.1698    3.8481 O   0  0  0  0  0  0  0  0  0  0  0  0
    0.7265   -3.7130    2.9891 C   0  0  0  0  0  0  0  0  0  0  0  0
    0.2395   -3.5544    1.6787 C   0  0  0  0  0  0  0  0  0  0  0  0
    0.8341   -4.2166    0.5989 C   0  0  0  0  0  0  0  0  0  0  0  0
    0.3080   -3.9989   -0.6807 O   0  0  0  0  0  0  0  0  0  0  0  0
    0.8609   -4.5135   -1.8909 C   0  0  0  0  0  0  0  0  0  0  0  0
    0.1015   -3.9346   -3.0505 C   0  0  0  0  0  0  0  0  0  0  0  0
   -0.5831   -4.7661   -3.9505 C   0  0  0  0  0  0  0  0  0  0  0  0
   -1.3322   -4.2051   -4.9865 C   0  0  0  0  0  0  0  0  0  0  0  0
   -1.4172   -2.8144   -5.1241 C   0  0  0  0  0  0  0  0  0  0  0  0
   -0.7355   -1.9636   -4.2342 C   0  0  0  0  0  0  0  0  0  0  0  0
   -0.8710   -0.4838   -4.3380 C   0  0  0  0  0  0  0  0  0  0  0  0
   -0.9842    0.1454   -5.5904 C   0  0  0  0  0  0  0  0  0  0  0  0
   -1.1312    1.5314   -5.6744 C   0  0  0  0  0  0  0  0  0  0  0  0
   -1.1580    2.3096   -4.5144 C   0  0  0  0  0  0  0  0  0  0  0  0
   -1.0267    1.7014   -3.2541 C   0  0  0  0  0  0  0  0  0  0  0  0
   -1.0030    2.4315   -2.0591 O   0  0  0  0  0  0  0  0  0  0  0  0
   -1.2071    3.8369   -1.9587 C   0  0  0  0  0  0  0  0  0  0  0  0
   -1.0708    4.2489   -0.5194 C   0  0  0  0  0  0  0  0  0  0  0  0
   -2.0847    3.9363    0.3967 C   0  0  0  0  0  0  0  0  0  0  0  0
   -1.9441    4.2714    1.7465 C   0  0  0  0  0  0  0  0  0  0  0  0
   -0.7910    4.9132    2.2054 C   0  0  0  0  0  0  0  0  0  0  0  0
   -0.7163    5.2382    3.5686 O   0  0  0  0  0  0  0  0  0  0  0  0
    0.3376    5.9707    4.1846 C   0  0  0  0  0  0  0  0  0  0  0  0
    0.0338    6.1591    5.5179 F   0  0  0  0  0  0  0  0  0  0  0  0
    0.4748    7.2056    3.5782 F   0  0  0  0  0  0  0  0  0  0  0  0
    1.5239    5.2662    4.0953 F   0  0  0  0  0  0  0  0  0  0  0  0
    0.2391    5.2120    1.2911 C   0  0  0  0  0  0  0  0  0  0  0  0
    0.0958    4.8831   -0.0615 C   0  0  0  0  0  0  0  0  0  0  0  0
   -0.8989    0.3114   -3.1761 C   0  0  0  0  0  0  0  0  0  0  0  0
    0.0433   -2.5401   -3.2120 C   0  0  0  0  0  0  0  0  0  0  0  0
    1.9277   -5.0638    0.8296 C   0  0  0  0  0  0  0  0  0  0  0  0
    2.4157   -5.2406    2.1253 C   0  0  0  0  0  0  0  0  0  0  0  0
    1.8286   -4.5695    3.2063 C   0  0  0  0  0  0  0  0  0  0  0  0
    2.3432   -4.7576    4.4886 O   0  0  0  0  0  0  0  0  0  0  0  0
  1  2  2  0
  2  3  1  0
  2  4  1  0
  4  5  2  0
  5  6  1  0
  6  7  1  0
  7  8  1  0
  8  9  1  0
  9 10  2  0
 10 11  1  0
 11 12  2  0
 12 13  1  0
 13 14  1  0
 14 15  2  0
 15 16  1  0
 16 17  2  0
 17 18  1  0
 18 19  1  0
 19 20  1  0
 20 21  1  0
 21 22  2  0
 22 23  1  0
 23 24  2  0
 24 25  1  0
 25 26  1  0
 26 27  1  0
 26 28  1  0
 26 29  1  0
 24 30  1  0
 30 31  2  0
 18 32  2  0
 13 33  2  0
  6 34  2  0
 34 35  1  0
 35 36  2  0
 36 37  1  0
 36  4  1  0
 33  9  1  0
 32 14  1  0
 31 21  1  0
M  END
>  <score>  (174) 
-1.326906

$$$$
HIPS7003
     RDKit          3D

 32 35  0  0  0  0  0  0  0  0999 V2000
    4.3466    0.7331   -4.9258 O   0  0  0  0  0  0  0  0  0  0  0  0
    4.0860   -0.0263   -3.9543 C   0  0  0  0  0  0  0  0  0  0  0  0
    3.3750   -1.2010   -4.1886 O   0  0  0  0  0  0  0  0  0  0  0  0
    4.5252    0.3172   -2.5769 C   0  0  0  0  0  0  0  0  0  0  0  0
    4.2383   -0.5710   -1.5225 C   0  0  0  0  0  0  0  0  0  0  0  0
    4.6286   -0.2772   -0.2021 C   0  0  0  0  0  0  0  0  0  0  0  0
    4.3489   -1.1296    0.8790 O   0  0  0  0  0  0  0  0  0  0  0  0
    3.5549   -2.3153    0.8130 C   0  0  0  0  0  0  0  0  0  0  0  0
    2.1108   -1.9818    0.5428 C   0  0  0  0  0  0  0  0  0  0  0  0
    1.3958   -2.6707   -0.4483 C   0  0  0  0  0  0  0  0  0  0  0  0
    0.0562   -2.3622   -0.6913 C   0  0  0  0  0  0  0  0  0  0  0  0
   -0.5836   -1.3710    0.0561 C   0  0  0  0  0  0  0  0  0  0  0  0
    0.1117   -0.6778    1.0637 C   0  0  0  0  0  0  0  0  0  0  0  0
   -0.5672    0.3779    1.8573 C   0  0  0  0  0  0  0  0  0  0  0  0
    0.0985    1.5681    2.1934 C   0  0  0  0  0  0  0  0  0  0  0  0
   -0.5389    2.5319    2.9082 N   0  0  0  0  0  0  0  0  0  0  0  0
   -1.8256    2.3879    3.3189 C   0  0  0  0  0  0  0  0  0  0  0  0
   -2.5410    1.2285    3.0099 C   0  0  0  0  0  0  0  0  0  0  0  0
   -3.8752    1.1284    3.4372 O   0  0  0  0  0  0  0  0  0  0  0  0
   -4.7715    0.0692    3.0970 C   0  0  0  0  0  0  0  0  0  0  0  0
   -5.1096    0.1036    1.6294 C   0  0  0  0  0  0  0  0  0  0  0  0
   -5.6060    1.2826    1.0491 C   0  0  0  0  0  0  0  0  0  0  0  0
   -5.9160    1.3206   -0.3139 C   0  0  0  0  0  0  0  0  0  0  0  0
   -5.7390    0.1819   -1.1046 C   0  0  0  0  0  0  0  0  0  0  0  0
   -5.2562   -0.9982   -0.5325 C   0  0  0  0  0  0  0  0  0  0  0  0
   -4.9471   -1.0412    0.8305 C   0  0  0  0  0  0  0  0  0  0  0  0
   -1.8952    0.2135    2.2829 C   0  0  0  0  0  0  0  0  0  0  0  0
    1.4604   -0.9976    1.3046 C   0  0  0  0  0  0  0  0  0  0  0  0
    5.3217    0.9069    0.0565 C   0  0  0  0  0  0  0  0  0  0  0  0
    5.6167    1.7954   -0.9769 C   0  0  0  0  0  0  0  0  0  0  0  0
    5.2232    1.5134   -2.2919 C   0  0  0  0  0  0  0  0  0  0  0  0
    5.5272    2.4223   -3.3057 O   0  0  0  0  0  0  0  0  0  0  0  0
  1  2  2  0
  2  3  1  0
  2  4  1  0
  4  5  2  0
  5  6  1  0
  6  7  1  0
  7  8  1  0
  8  9  1  0
  9 10  2  0
 10 11  1  0
 11 12  2  0
 12 13  1  0
 13 14  1  0
 14 15  2  0
 15 16  1  0
 16 17  2  0
 17 18  1  0
 18 19  1  0
 19 20  1  0
 20 21  1  0
 21 22  2  0
 22 23  1  0
 23 24  2  0
 24 25  1  0
 25 26  2  0
 18 27  2  0
 13 28  2  0
  6 29  2  0
 29 30  1  0
 30 31  2  0
 31 32  1  0
 31  4  1  0
 28  9  1  0
 27 14  1  0
 26 21  1  0
M  END
>  <score>  (175) 
0.271496

$$$$
HIPS7004
     RDKit          3D

 32 35  0  0  0  0  0  0  0  0999 V2000
   -2.0419    2.9403    5.1354 O   0  0  0  0  0  0  0  0  0  0  0  0
   -1.3904    3.2449    4.1005 C   0  0  0  0  0  0  0  0  0  0  0  0
   -1.7188    4.4132    3.4167 O   0  0  0  0  0  0  0  0  0  0  0  0
   -0.2885    2.3777    3.6089 C   0  0  0  0  0  0  0  0  0  0  0  0
    0.4244    2.7598    2.4561 C   0  0  0  0  0  0  0  0  0  0  0  0
    1.4667    1.9596    1.9513 C   0  0  0  0  0  0  0  0  0  0  0  0
    2.1875    2.2943    0.7930 O   0  0  0  0  0  0  0  0  0  0  0  0
    1.9422    3.4308   -0.0370 C   0  0  0  0  0  0  0  0  0  0  0  0
    0.6318    3.2981   -0.7692 C   0  0  0  0  0  0  0  0  0  0  0  0
   -0.2728    4.3697   -0.8024 C   0  0  0  0  0  0  0  0  0  0  0  0
   -1.4814    4.2484   -1.4898 C   0  0  0  0  0  0  0  0  0  0  0  0
   -1.7934    3.0638   -2.1606 C   0  0  0  0  0  0  0  0  0  0  0  0
   -0.8901    1.9847   -2.1585 C   0  0  0  0  0  0  0  0  0  0  0  0
   -1.2079    0.7152   -2.8570 C   0  0  0  0  0  0  0  0  0  0  0  0
   -1.9725    0.6955   -4.0368 C   0  0  0  0  0  0  0  0  0  0  0  0
   -2.2395   -0.5233   -4.6626 C   0  0  0  0  0  0  0  0  0  0  0  0
   -1.7471   -1.7089   -4.1177 C   0  0  0  0  0  0  0  0  0  0  0  0
   -0.9864   -1.6615   -2.9480 C   0  0  0  0  0  0  0  0  0  0  0  0
   -0.4915   -2.8516   -2.4025 O   0  0  0  0  0  0  0  0  0  0  0  0
    0.2834   -2.9073   -1.2059 C   0  0  0  0  0  0  0  0  0  0  0  0
    1.6437   -2.3008   -1.4228 C   0  0  0  0  0  0  0  0  0  0  0  0
    2.0828   -1.2291   -0.6282 C   0  0  0  0  0  0  0  0  0  0  0  0
    3.3459   -0.6674   -0.8393 C   0  0  0  0  0  0  0  0  0  0  0  0
    4.1789   -1.1733   -1.8407 C   0  0  0  0  0  0  0  0  0  0  0  0
    3.7514   -2.2440   -2.6309 C   0  0  0  0  0  0  0  0  0  0  0  0
    2.4893   -2.8088   -2.4224 C   0  0  0  0  0  0  0  0  0  0  0  0
   -0.7364   -0.4608   -2.3539 N   0  0  0  0  0  0  0  0  0  0  0  0
    0.3230    2.1143   -1.4582 C   0  0  0  0  0  0  0  0  0  0  0  0
    1.8069    0.7821    2.6203 C   0  0  0  0  0  0  0  0  0  0  0  0
    1.1129    0.3910    3.7644 C   0  0  0  0  0  0  0  0  0  0  0  0
    0.0656    1.1760    4.2644 C   0  0  0  0  0  0  0  0  0  0  0  0
   -0.6153    0.7582    5.4080 O   0  0  0  0  0  0  0  0  0  0  0  0
  1  2  2  0
  2  3  1  0
  2  4  1  0
  4  5  2  0
  5  6  1  0
  6  7  1  0
  7  8  1  0
  8  9  1  0
  9 10  2  0
 10 11  1  0
 11 12  2  0
 12 13  1  0
 13 14  1  0
 14 15  2  0
 15 16  1  0
 16 17  2  0
 17 18  1  0
 18 19  1  0
 19 20  1  0
 20 21  1  0
 21 22  2  0
 22 23  1  0
 23 24  2  0
 24 25  1  0
 25 26  2  0
 18 27  2  0
 13 28  2  0
  6 29  2  0
 29 30  1  0
 30 31  2  0
 31 32  1  0
 31  4  1  0
 28  9  1  0
 27 14  1  0
 26 21  1  0
M  END
>  <score>  (176) 
-0.9805

$$$$
HIPS7005
     RDKit          3D

 32 35  0  0  0  0  0  0  0  0999 V2000
    5.4731   -0.2379    3.6731 O   0  0  0  0  0  0  0  0  0  0  0  0
    5.1977   -1.1381    2.8367 C   0  0  0  0  0  0  0  0  0  0  0  0
    5.0364   -2.4477    3.2775 O   0  0  0  0  0  0  0  0  0  0  0  0
    5.0209   -0.8161    1.4022 C   0  0  0  0  0  0  0  0  0  0  0  0
    4.0660   -1.5449    0.6706 C   0  0  0  0  0  0  0  0  0  0  0  0
    3.8117   -1.2587   -0.6759 C   0  0  0  0  0  0  0  0  0  0  0  0
    2.8183   -1.9990   -1.3394 O   0  0  0  0  0  0  0  0  0  0  0  0
    2.2379   -1.6459   -2.5951 C   0  0  0  0  0  0  0  0  0  0  0  0
    1.4887   -0.3459   -2.4796 C   0  0  0  0  0  0  0  0  0  0  0  0
    1.7347    0.7053   -3.3775 C   0  0  0  0  0  0  0  0  0  0  0  0
    1.0728    1.9273   -3.2304 C   0  0  0  0  0  0  0  0  0  0  0  0
    0.1678    2.1128   -2.1837 C   0  0  0  0  0  0  0  0  0  0  0  0
   -0.0988    1.0670   -1.2805 C   0  0  0  0  0  0  0  0  0  0  0  0
   -1.0165    1.2751   -0.1344 C   0  0  0  0  0  0  0  0  0  0  0  0
   -0.9129    2.4328    0.6546 C   0  0  0  0  0  0  0  0  0  0  0  0
   -1.7343    2.5995    1.7724 C   0  0  0  0  0  0  0  0  0  0  0  0
   -2.6745    1.6210    2.1051 C   0  0  0  0  0  0  0  0  0  0  0  0
   -2.8148    0.4820    1.3109 C   0  0  0  0  0  0  0  0  0  0  0  0
   -3.7764   -0.4766    1.6530 O   0  0  0  0  0  0  0  0  0  0  0  0
   -4.7887   -0.9318    0.7890 C   0  0  0  0  0  0  0  0  0  0  0  0
   -5.1028   -0.2750   -0.4193 C   0  0  0  0  0  0  0  0  0  0  0  0
   -6.1907   -0.7069   -1.1899 C   0  0  0  0  0  0  0  0  0  0  0  0
   -6.9598   -1.8061   -0.7807 C   0  0  0  0  0  0  0  0  0  0  0  0
   -8.0425   -2.2236   -1.5574 O   0  0  0  0  0  0  0  0  0  0  0  0
   -6.6319   -2.4803    0.4036 C   0  0  0  0  0  0  0  0  0  0  0  0
   -5.5558   -2.0435    1.1850 C   0  0  0  0  0  0  0  0  0  0  0  0
   -1.9746    0.3011    0.2024 C   0  0  0  0  0  0  0  0  0  0  0  0
    0.5527   -0.1674   -1.4506 C   0  0  0  0  0  0  0  0  0  0  0  0
    4.5419   -0.2414   -1.3120 C   0  0  0  0  0  0  0  0  0  0  0  0
    5.5009    0.4815   -0.6020 C   0  0  0  0  0  0  0  0  0  0  0  0
    5.7647    0.1953    0.7411 C   0  0  0  0  0  0  0  0  0  0  0  0
    6.7888    0.9084    1.3640 O   0  0  0  0  0  0  0  0  0  0  0  0
  1  2  2  0
  2  3  1  0
  2  4  1  0
  4  5  2  0
  5  6  1  0
  6  7  1  0
  7  8  1  0
  8  9  1  0
  9 10  2  0
 10 11  1  0
 11 12  2  0
 12 13  1  0
 13 14  1  0
 14 15  2  0
 15 16  1  0
 16 17  2  0
 17 18  1  0
 18 19  1  0
 19 20  1  0
 20 21  2  0
 21 22  1  0
 22 23  2  0
 23 24  1  0
 23 25  1  0
 25 26  2  0
 18 27  2  0
 13 28  2  0
  6 29  2  0
 29 30  1  0
 30 31  2  0
 31 32  1  0
 31  4  1  0
 28  9  1  0
 27 14  1  0
 26 20  1  0
M  END
>  <score>  (177) 
-0.73298

$$$$
HIPS7006
     RDKit          3D

 33 36  0  0  0  0  0  0  0  0999 V2000
    0.4210    1.6593   -7.3399 O   0  0  0  0  0  0  0  0  0  0  0  0
   -0.4562    1.4430   -6.4610 C   0  0  0  0  0  0  0  0  0  0  0  0
   -1.5113    0.5837   -6.7586 O   0  0  0  0  0  0  0  0  0  0  0  0
   -0.3750    2.0897   -5.1255 C   0  0  0  0  0  0  0  0  0  0  0  0
   -1.3906    1.8455   -4.1809 C   0  0  0  0  0  0  0  0  0  0  0  0
   -1.3455    2.4318   -2.9017 C   0  0  0  0  0  0  0  0  0  0  0  0
   -2.3310    2.2029   -1.9271 O   0  0  0  0  0  0  0  0  0  0  0  0
   -3.4159    1.2815   -2.0484 C   0  0  0  0  0  0  0  0  0  0  0  0
   -2.9171   -0.1400   -2.0454 C   0  0  0  0  0  0  0  0  0  0  0  0
   -3.3472   -1.0469   -3.0254 C   0  0  0  0  0  0  0  0  0  0  0  0
   -2.8803   -2.3624   -3.0191 C   0  0  0  0  0  0  0  0  0  0  0  0
   -1.9881   -2.7871   -2.0319 C   0  0  0  0  0  0  0  0  0  0  0  0
   -1.5563   -1.8979   -1.0316 C   0  0  0  0  0  0  0  0  0  0  0  0
   -0.6080   -2.3473    0.0191 C   0  0  0  0  0  0  0  0  0  0  0  0
    0.4802   -3.1747   -0.3084 C   0  0  0  0  0  0  0  0  0  0  0  0
    1.3741   -3.5905    0.6802 C   0  0  0  0  0  0  0  0  0  0  0  0
    1.1960   -3.1871    2.0049 C   0  0  0  0  0  0  0  0  0  0  0  0
    0.1143   -2.3569    2.3527 C   0  0  0  0  0  0  0  0  0  0  0  0
   -0.1122   -1.9192    3.6678 O   0  0  0  0  0  0  0  0  0  0  0  0
    0.7642   -2.1399    4.7737 C   0  0  0  0  0  0  0  0  0  0  0  0
    2.0263   -1.3320    4.6251 C   0  0  0  0  0  0  0  0  0  0  0  0
    3.2849   -1.9422    4.7530 C   0  0  0  0  0  0  0  0  0  0  0  0
    4.4523   -1.1839    4.6216 C   0  0  0  0  0  0  0  0  0  0  0  0
    4.3733    0.1926    4.3705 C   0  0  0  0  0  0  0  0  0  0  0  0
    5.5295    0.9580    4.2368 O   0  0  0  0  0  0  0  0  0  0  0  0
    3.1218    0.8059    4.2545 C   0  0  0  0  0  0  0  0  0  0  0  0
    1.9531    0.0497    4.3852 C   0  0  0  0  0  0  0  0  0  0  0  0
   -0.7809   -1.9471    1.3570 C   0  0  0  0  0  0  0  0  0  0  0  0
   -2.0335   -0.5742   -1.0440 C   0  0  0  0  0  0  0  0  0  0  0  0
   -0.2830    3.2771   -2.5763 C   0  0  0  0  0  0  0  0  0  0  0  0
    0.7290    3.5316   -3.5013 C   0  0  0  0  0  0  0  0  0  0  0  0
    0.6949    2.9442   -4.7730 C   0  0  0  0  0  0  0  0  0  0  0  0
    1.7229    3.2124   -5.6772 O   0  0  0  0  0  0  0  0  0  0  0  0
  1  2  2  0
  2  3  1  0
  2  4  1  0
  4  5  2  0
  5  6  1  0
  6  7  1  0
  7  8  1  0
  8  9  1  0
  9 10  2  0
 10 11  1  0
 11 12  2  0
 12 13  1  0
 13 14  1  0
 14 15  2  0
 15 16  1  0
 16 17  2  0
 17 18  1  0
 18 19  1  0
 19 20  1  0
 20 21  1  0
 21 22  2  0
 22 23  1  0
 23 24  2  0
 24 25  1  0
 24 26  1  0
 26 27  2  0
 18 28  2  0
 13 29  2  0
  6 30  2  0
 30 31  1  0
 31 32  2  0
 32 33  1  0
 32  4  1  0
 29  9  1  0
 28 14  1  0
 27 21  1  0
M  END
>  <score>  (178) 
-1.116919

$$$$
HIPS7007
     RDKit          3D

 32 35  0  0  0  0  0  0  0  0999 V2000
   -4.1161   -2.3678    5.4500 O   0  0  0  0  0  0  0  0  0  0  0  0
   -3.7780   -2.0561    4.2784 C   0  0  0  0  0  0  0  0  0  0  0  0
   -4.2231   -2.8295    3.2097 O   0  0  0  0  0  0  0  0  0  0  0  0
   -2.9651   -0.8492    4.0221 C   0  0  0  0  0  0  0  0  0  0  0  0
   -3.2605   -0.0787    2.8829 C   0  0  0  0  0  0  0  0  0  0  0  0
   -2.5744    1.1127    2.6191 C   0  0  0  0  0  0  0  0  0  0  0  0
   -2.9260    1.8413    1.4714 O   0  0  0  0  0  0  0  0  0  0  0  0
   -2.1039    2.8227    0.8357 C   0  0  0  0  0  0  0  0  0  0  0  0
   -0.9083    2.1634    0.2020 C   0  0  0  0  0  0  0  0  0  0  0  0
    0.3794    2.3305    0.7329 C   0  0  0  0  0  0  0  0  0  0  0  0
    1.4334    1.6669    0.1904 N   0  0  0  0  0  0  0  0  0  0  0  0
    1.2842    0.8302   -0.8705 C   0  0  0  0  0  0  0  0  0  0  0  0
    0.0201    0.6388   -1.4494 C   0  0  0  0  0  0  0  0  0  0  0  0
   -0.1496   -0.2653   -2.6082 C   0  0  0  0  0  0  0  0  0  0  0  0
   -0.8620    0.1574   -3.7425 C   0  0  0  0  0  0  0  0  0  0  0  0
   -0.9918   -0.6861   -4.8473 C   0  0  0  0  0  0  0  0  0  0  0  0
   -0.4153   -1.9583   -4.8299 C   0  0  0  0  0  0  0  0  0  0  0  0
    0.2894   -2.4044   -3.7056 C   0  0  0  0  0  0  0  0  0  0  0  0
    0.8471   -3.6944   -3.7381 O   0  0  0  0  0  0  0  0  0  0  0  0
    1.5632   -4.3106   -2.6662 C   0  0  0  0  0  0  0  0  0  0  0  0
    2.9031   -3.6508   -2.4519 C   0  0  0  0  0  0  0  0  0  0  0  0
    3.3188   -3.2893   -1.1585 C   0  0  0  0  0  0  0  0  0  0  0  0
    4.5650   -2.6878   -0.9617 C   0  0  0  0  0  0  0  0  0  0  0  0
    5.4104   -2.4546   -2.0499 C   0  0  0  0  0  0  0  0  0  0  0  0
    5.0121   -2.8266   -3.3371 C   0  0  0  0  0  0  0  0  0  0  0  0
    3.7651   -3.4269   -3.5387 C   0  0  0  0  0  0  0  0  0  0  0  0
    0.4140   -1.5519   -2.5908 C   0  0  0  0  0  0  0  0  0  0  0  0
   -1.0785    1.3163   -0.9017 C   0  0  0  0  0  0  0  0  0  0  0  0
   -1.5846    1.5468    3.5149 C   0  0  0  0  0  0  0  0  0  0  0  0
   -1.2736    0.7851    4.6416 C   0  0  0  0  0  0  0  0  0  0  0  0
   -1.9406   -0.4149    4.9021 C   0  0  0  0  0  0  0  0  0  0  0  0
   -1.5474   -1.1512    6.0224 O   0  0  0  0  0  0  0  0  0  0  0  0
  1  2  2  0
  2  3  1  0
  2  4  1  0
  4  5  2  0
  5  6  1  0
  6  7  1  0
  7  8  1  0
  8  9  1  0
  9 10  2  0
 10 11  1  0
 11 12  2  0
 12 13  1  0
 13 14  1  0
 14 15  2  0
 15 16  1  0
 16 17  2  0
 17 18  1  0
 18 19  1  0
 19 20  1  0
 20 21  1  0
 21 22  2  0
 22 23  1  0
 23 24  2  0
 24 25  1  0
 25 26  2  0
 18 27  2  0
 13 28  2  0
  6 29  2  0
 29 30  1  0
 30 31  2  0
 31 32  1  0
 31  4  1  0
 28  9  1  0
 27 14  1  0
 26 21  1  0
M  END
>  <score>  (179) 
0.012237

$$$$
HIPS7008
     RDKit          3D

 32 35  0  0  0  0  0  0  0  0999 V2000
   -4.9399    1.1429    3.5043 O   0  0  0  0  0  0  0  0  0  0  0  0
   -3.7212    1.2759    3.2166 C   0  0  0  0  0  0  0  0  0  0  0  0
   -2.8204    0.2857    3.6069 O   0  0  0  0  0  0  0  0  0  0  0  0
   -3.2427    2.4398    2.4214 C   0  0  0  0  0  0  0  0  0  0  0  0
   -1.9613    2.3943    1.8476 C   0  0  0  0  0  0  0  0  0  0  0  0
   -1.4797    3.4557    1.0700 C   0  0  0  0  0  0  0  0  0  0  0  0
   -0.1966    3.3646    0.5353 O   0  0  0  0  0  0  0  0  0  0  0  0
    0.0946    3.6170   -0.8314 C   0  0  0  0  0  0  0  0  0  0  0  0
    1.4401    3.0162   -1.1311 C   0  0  0  0  0  0  0  0  0  0  0  0
    2.5913    3.8135   -1.1515 C   0  0  0  0  0  0  0  0  0  0  0  0
    3.8441    3.2073   -1.2852 C   0  0  0  0  0  0  0  0  0  0  0  0
    3.9395    1.8556   -1.3925 N   0  0  0  0  0  0  0  0  0  0  0  0
    2.8438    1.0427   -1.3806 C   0  0  0  0  0  0  0  0  0  0  0  0
    3.0204   -0.4331   -1.4594 C   0  0  0  0  0  0  0  0  0  0  0  0
    4.2136   -1.0250   -0.9983 C   0  0  0  0  0  0  0  0  0  0  0  0
    4.3713   -2.4125   -1.0258 C   0  0  0  0  0  0  0  0  0  0  0  0
    3.3455   -3.2282   -1.5055 C   0  0  0  0  0  0  0  0  0  0  0  0
    2.1509   -2.6661   -1.9797 C   0  0  0  0  0  0  0  0  0  0  0  0
    1.1375   -3.5233   -2.4363 O   0  0  0  0  0  0  0  0  0  0  0  0
   -0.1612   -3.1034   -2.8595 C   0  0  0  0  0  0  0  0  0  0  0  0
   -0.9700   -2.5868   -1.6941 C   0  0  0  0  0  0  0  0  0  0  0  0
   -1.5114   -1.2880   -1.7145 C   0  0  0  0  0  0  0  0  0  0  0  0
   -2.2460   -0.8116   -0.6244 C   0  0  0  0  0  0  0  0  0  0  0  0
   -2.4659   -1.6348    0.4844 C   0  0  0  0  0  0  0  0  0  0  0  0
   -1.9456   -2.9334    0.5081 C   0  0  0  0  0  0  0  0  0  0  0  0
   -1.1998   -3.4100   -0.5756 C   0  0  0  0  0  0  0  0  0  0  0  0
    2.0121   -1.2656   -1.9794 C   0  0  0  0  0  0  0  0  0  0  0  0
    1.5681    1.6247   -1.2381 C   0  0  0  0  0  0  0  0  0  0  0  0
   -2.2776    4.5923    0.8821 C   0  0  0  0  0  0  0  0  0  0  0  0
   -3.5370    4.6704    1.4770 C   0  0  0  0  0  0  0  0  0  0  0  0
   -4.0261    3.6088    2.2598 C   0  0  0  0  0  0  0  0  0  0  0  0
   -5.2725    3.7263    2.8755 O   0  0  0  0  0  0  0  0  0  0  0  0
  1  2  2  0
  2  3  1  0
  2  4  1  0
  4  5  2  0
  5  6  1  0
  6  7  1  0
  7  8  1  0
  8  9  1  0
  9 10  2  0
 10 11  1  0
 11 12  2  0
 12 13  1  0
 13 14  1  0
 14 15  2  0
 15 16  1  0
 16 17  2  0
 17 18  1  0
 18 19  1  0
 19 20  1  0
 20 21  1  0
 21 22  2  0
 22 23  1  0
 23 24  2  0
 24 25  1  0
 25 26  2  0
 18 27  2  0
 13 28  2  0
  6 29  2  0
 29 30  1  0
 30 31  2  0
 31 32  1  0
 31  4  1  0
 28  9  1  0
 27 14  1  0
 26 21  1  0
M  END
>  <score>  (180) 
-0.236922

$$$$
HIPS7009
     RDKit          3D

 32 35  0  0  0  0  0  0  0  0999 V2000
    1.9060   -3.3519    3.5872 O   0  0  0  0  0  0  0  0  0  0  0  0
    0.7604   -2.9530    3.9267 C   0  0  0  0  0  0  0  0  0  0  0  0
    0.6430   -2.0077    4.9422 O   0  0  0  0  0  0  0  0  0  0  0  0
   -0.4502   -3.4292    3.2195 C   0  0  0  0  0  0  0  0  0  0  0  0
   -1.5265   -2.5359    3.0645 C   0  0  0  0  0  0  0  0  0  0  0  0
   -2.6725   -2.9030    2.3319 C   0  0  0  0  0  0  0  0  0  0  0  0
   -3.7539   -2.0293    2.1273 O   0  0  0  0  0  0  0  0  0  0  0  0
   -3.7897   -0.6536    2.5138 C   0  0  0  0  0  0  0  0  0  0  0  0
   -2.7991    0.1556    1.7250 C   0  0  0  0  0  0  0  0  0  0  0  0
   -2.3270    1.3791    2.2165 C   0  0  0  0  0  0  0  0  0  0  0  0
   -1.4062    2.1078    1.4633 C   0  0  0  0  0  0  0  0  0  0  0  0
   -0.9734    1.6211    0.2283 C   0  0  0  0  0  0  0  0  0  0  0  0
   -1.4832    0.4008   -0.2540 C   0  0  0  0  0  0  0  0  0  0  0  0
   -1.0462   -0.1751   -1.5519 C   0  0  0  0  0  0  0  0  0  0  0  0
   -1.0559   -1.5695   -1.7363 C   0  0  0  0  0  0  0  0  0  0  0  0
   -0.6466   -2.1267   -2.9499 C   0  0  0  0  0  0  0  0  0  0  0  0
   -0.2196   -1.3021   -3.9919 C   0  0  0  0  0  0  0  0  0  0  0  0
   -0.2037    0.0882   -3.8358 C   0  0  0  0  0  0  0  0  0  0  0  0
    0.2461    0.8708   -4.9122 O   0  0  0  0  0  0  0  0  0  0  0  0
    0.4580    2.2838   -4.8738 C   0  0  0  0  0  0  0  0  0  0  0  0
    1.6103    2.6286   -3.9665 C   0  0  0  0  0  0  0  0  0  0  0  0
    2.8648    2.0291   -4.1658 C   0  0  0  0  0  0  0  0  0  0  0  0
    3.9357    2.3408   -3.3229 C   0  0  0  0  0  0  0  0  0  0  0  0
    3.7638    3.2561   -2.2801 C   0  0  0  0  0  0  0  0  0  0  0  0
    2.5216    3.8650   -2.0819 C   0  0  0  0  0  0  0  0  0  0  0  0
    1.4490    3.5585   -2.9244 C   0  0  0  0  0  0  0  0  0  0  0  0
   -0.6355    0.6493   -2.6174 C   0  0  0  0  0  0  0  0  0  0  0  0
   -2.3777   -0.2875    0.5086 N   0  0  0  0  0  0  0  0  0  0  0  0
   -2.7413   -4.1781    1.7675 C   0  0  0  0  0  0  0  0  0  0  0  0
   -1.6919   -5.0817    1.9311 C   0  0  0  0  0  0  0  0  0  0  0  0
   -0.5538   -4.7309    2.6672 C   0  0  0  0  0  0  0  0  0  0  0  0
    0.4252   -5.7086    2.8528 O   0  0  0  0  0  0  0  0  0  0  0  0
  1  2  2  0
  2  3  1  0
  2  4  1  0
  4  5  2  0
  5  6  1  0
  6  7  1  0
  7  8  1  0
  8  9  1  0
  9 10  2  0
 10 11  1  0
 11 12  2  0
 12 13  1  0
 13 14  1  0
 14 15  2  0
 15 16  1  0
 16 17  2  0
 17 18  1  0
 18 19  1  0
 19 20  1  0
 20 21  1  0
 21 22  2  0
 22 23  1  0
 23 24  2  0
 24 25  1  0
 25 26  2  0
 18 27  2  0
 13 28  2  0
  6 29  2  0
 29 30  1  0
 30 31  2  0
 31 32  1  0
 31  4  1  0
 28  9  1  0
 27 14  1  0
 26 21  1  0
M  END
>  <score>  (181) 
-0.565679

$$$$
HIPS7010
     RDKit          3D

 32 35  0  0  0  0  0  0  0  0999 V2000
   -2.7705    3.8205    2.2606 O   0  0  0  0  0  0  0  0  0  0  0  0
   -2.9481    2.6180    2.5951 C   0  0  0  0  0  0  0  0  0  0  0  0
   -2.7475    2.2407    3.9197 O   0  0  0  0  0  0  0  0  0  0  0  0
   -3.3047    1.6115    1.5726 C   0  0  0  0  0  0  0  0  0  0  0  0
   -2.7425    1.7267    0.2889 C   0  0  0  0  0  0  0  0  0  0  0  0
   -2.9767    0.7598   -0.6938 C   0  0  0  0  0  0  0  0  0  0  0  0
   -2.3546    0.9200   -1.9429 O   0  0  0  0  0  0  0  0  0  0  0  0
   -2.4340   -0.0035   -3.0305 C   0  0  0  0  0  0  0  0  0  0  0  0
   -1.7379   -1.3027   -2.7092 C   0  0  0  0  0  0  0  0  0  0  0  0
   -2.2656   -2.5137   -3.1801 C   0  0  0  0  0  0  0  0  0  0  0  0
   -1.6250   -3.7197   -2.8925 C   0  0  0  0  0  0  0  0  0  0  0  0
   -0.4463   -3.7288   -2.1440 C   0  0  0  0  0  0  0  0  0  0  0  0
    0.1182   -2.5252   -1.6862 C   0  0  0  0  0  0  0  0  0  0  0  0
    1.3599   -2.5547   -0.8711 C   0  0  0  0  0  0  0  0  0  0  0  0
    2.2655   -1.4788   -0.8685 C   0  0  0  0  0  0  0  0  0  0  0  0
    3.4019   -1.5226   -0.0412 C   0  0  0  0  0  0  0  0  0  0  0  0
    4.3150   -0.4589    0.0472 O   0  0  0  0  0  0  0  0  0  0  0  0
    4.1574    0.8161   -0.5785 C   0  0  0  0  0  0  0  0  0  0  0  0
    2.9846    1.5626    0.0035 C   0  0  0  0  0  0  0  0  0  0  0  0
    2.0109    2.1286   -0.8373 C   0  0  0  0  0  0  0  0  0  0  0  0
    0.9231    2.8165   -0.2918 C   0  0  0  0  0  0  0  0  0  0  0  0
    0.8035    2.9520    1.0939 C   0  0  0  0  0  0  0  0  0  0  0  0
    1.7734    2.4025    1.9364 C   0  0  0  0  0  0  0  0  0  0  0  0
    2.8638    1.7144    1.3949 C   0  0  0  0  0  0  0  0  0  0  0  0
    3.6347   -2.6630    0.7310 C   0  0  0  0  0  0  0  0  0  0  0  0
    2.7343   -3.7269    0.6819 C   0  0  0  0  0  0  0  0  0  0  0  0
    1.6286   -3.6478   -0.1033 N   0  0  0  0  0  0  0  0  0  0  0  0
   -0.5371   -1.3120   -1.9791 C   0  0  0  0  0  0  0  0  0  0  0  0
   -3.8089   -0.3325   -0.3960 C   0  0  0  0  0  0  0  0  0  0  0  0
   -4.3902   -0.4482    0.8671 C   0  0  0  0  0  0  0  0  0  0  0  0
   -4.1624    0.5200    1.8508 C   0  0  0  0  0  0  0  0  0  0  0  0
   -4.8315    0.3820    3.0687 O   0  0  0  0  0  0  0  0  0  0  0  0
  1  2  2  0
  2  3  1  0
  2  4  1  0
  4  5  2  0
  5  6  1  0
  6  7  1  0
  7  8  1  0
  8  9  1  0
  9 10  2  0
 10 11  1  0
 11 12  2  0
 12 13  1  0
 13 14  1  0
 14 15  2  0
 15 16  1  0
 16 17  1  0
 17 18  1  0
 18 19  1  0
 19 20  2  0
 20 21  1  0
 21 22  2  0
 22 23  1  0
 23 24  2  0
 16 25  2  0
 25 26  1  0
 26 27  2  0
 13 28  2  0
  6 29  2  0
 29 30  1  0
 30 31  2  0
 31 32  1  0
 31  4  1  0
 28  9  1  0
 27 14  1  0
 24 19  1  0
M  END
>  <score>  (182) 
-0.038268

$$$$
HIPS7011
     RDKit          3D

 32 35  0  0  0  0  0  0  0  0999 V2000
   -5.5449   -4.1043    5.7086 O   0  0  0  0  0  0  0  0  0  0  0  0
   -6.0307   -3.9490    4.5548 C   0  0  0  0  0  0  0  0  0  0  0  0
   -7.4085   -4.0642    4.3819 O   0  0  0  0  0  0  0  0  0  0  0  0
   -5.1407   -3.6490    3.4023 C   0  0  0  0  0  0  0  0  0  0  0  0
   -3.7497   -3.5516    3.6062 C   0  0  0  0  0  0  0  0  0  0  0  0
   -2.8906   -3.2663    2.5404 C   0  0  0  0  0  0  0  0  0  0  0  0
   -1.5217   -3.1712    2.7557 O   0  0  0  0  0  0  0  0  0  0  0  0
   -0.1270   -3.0754    2.9812 C   0  0  0  0  0  0  0  0  0  0  0  0
    0.5699   -2.8553    1.6708 C   0  0  0  0  0  0  0  0  0  0  0  0
    0.8894   -3.9497    0.8538 C   0  0  0  0  0  0  0  0  0  0  0  0
    1.4813   -3.7449   -0.3938 C   0  0  0  0  0  0  0  0  0  0  0  0
    1.7518   -2.4496   -0.8406 C   0  0  0  0  0  0  0  0  0  0  0  0
    1.4225   -1.3363   -0.0440 C   0  0  0  0  0  0  0  0  0  0  0  0
    1.6830    0.0445   -0.5313 C   0  0  0  0  0  0  0  0  0  0  0  0
    0.7721    1.0782   -0.2757 C   0  0  0  0  0  0  0  0  0  0  0  0
    1.0218    2.3629   -0.7608 C   0  0  0  0  0  0  0  0  0  0  0  0
    2.1490    2.6321   -1.4885 N   0  0  0  0  0  0  0  0  0  0  0  0
    2.3336    3.9838   -2.0424 C   0  0  0  0  0  0  0  0  0  0  0  0
    1.7612    4.0569   -3.4340 C   0  0  0  0  0  0  0  0  0  0  0  0
    0.3734    4.1820   -3.6203 C   0  0  0  0  0  0  0  0  0  0  0  0
   -0.1668    4.1977   -4.9100 C   0  0  0  0  0  0  0  0  0  0  0  0
    0.6723    4.0842   -6.0215 C   0  0  0  0  0  0  0  0  0  0  0  0
    2.0541    3.9575   -5.8448 C   0  0  0  0  0  0  0  0  0  0  0  0
    2.5987    3.9389   -4.5566 C   0  0  0  0  0  0  0  0  0  0  0  0
    3.0534    1.6341   -1.7517 C   0  0  0  0  0  0  0  0  0  0  0  0
    4.0909    1.8681   -2.4313 O   0  0  0  0  0  0  0  0  0  0  0  0
    2.8371    0.3378   -1.2726 C   0  0  0  0  0  0  0  0  0  0  0  0
    0.8261   -1.5526    1.2139 C   0  0  0  0  0  0  0  0  0  0  0  0
   -3.4040   -3.0749    1.2581 C   0  0  0  0  0  0  0  0  0  0  0  0
   -4.7779   -3.1635    1.0377 C   0  0  0  0  0  0  0  0  0  0  0  0
   -5.6527   -3.4497    2.0975 C   0  0  0  0  0  0  0  0  0  0  0  0
   -7.0226   -3.5316    1.8477 O   0  0  0  0  0  0  0  0  0  0  0  0
  1  2  2  0
  2  3  1  0
  2  4  1  0
  4  5  2  0
  5  6  1  0
  6  7  1  0
  7  8  1  0
  8  9  1  0
  9 10  2  0
 10 11  1  0
 11 12  2  0
 12 13  1  0
 13 14  1  0
 14 15  1  0
 15 16  2  0
 16 17  1  0
 17 18  1  0
 18 19  1  0
 19 20  2  0
 20 21  1  0
 21 22  2  0
 22 23  1  0
 23 24  2  0
 17 25  1  0
 25 26  2  0
 25 27  1  0
 13 28  2  0
  6 29  2  0
 29 30  1  0
 30 31  2  0
 31 32  1  0
 31  4  1  0
 28  9  1  0
 27 14  2  0
 24 19  1  0
M  END
>  <score>  (183) 
-0.078672

$$$$
HIPS7012
     RDKit          3D

 30 33  0  0  0  0  0  0  0  0999 V2000
   -0.1750   -1.7553   -3.9362 O   0  0  0  0  0  0  0  0  0  0  0  0
   -1.3009   -2.0321   -3.4404 C   0  0  0  0  0  0  0  0  0  0  0  0
   -1.7271   -3.3572   -3.4393 O   0  0  0  0  0  0  0  0  0  0  0  0
   -2.1497   -0.9570   -2.8645 C   0  0  0  0  0  0  0  0  0  0  0  0
   -1.6876    0.3750   -2.8777 C   0  0  0  0  0  0  0  0  0  0  0  0
   -2.4536    1.4122   -2.3121 C   0  0  0  0  0  0  0  0  0  0  0  0
   -2.0160    2.7472   -2.2776 O   0  0  0  0  0  0  0  0  0  0  0  0
   -0.7611    3.2237   -2.7715 C   0  0  0  0  0  0  0  0  0  0  0  0
    0.3874    2.7258   -1.9384 C   0  0  0  0  0  0  0  0  0  0  0  0
    1.7045    2.8679   -2.3959 C   0  0  0  0  0  0  0  0  0  0  0  0
    2.7598    2.3786   -1.6227 C   0  0  0  0  0  0  0  0  0  0  0  0
    2.4955    1.7512   -0.3986 C   0  0  0  0  0  0  0  0  0  0  0  0
    3.5299    1.2230    0.3853 C   0  0  0  0  0  0  0  0  0  0  0  0
    3.2327    0.5835    1.5912 C   0  0  0  0  0  0  0  0  0  0  0  0
    1.9072    0.4684    2.0229 C   0  0  0  0  0  0  0  0  0  0  0  0
    0.8562    0.9973    1.2481 C   0  0  0  0  0  0  0  0  0  0  0  0
   -0.4905    0.8975    1.6381 O   0  0  0  0  0  0  0  0  0  0  0  0
   -0.9987   -0.0120    2.6134 C   0  0  0  0  0  0  0  0  0  0  0  0
   -0.8739   -1.4279    2.1181 C   0  0  0  0  0  0  0  0  0  0  0  0
   -0.1308   -2.3780    2.8373 C   0  0  0  0  0  0  0  0  0  0  0  0
   -0.0017   -3.6823    2.3516 C   0  0  0  0  0  0  0  0  0  0  0  0
   -0.6141   -4.0475    1.1486 C   0  0  0  0  0  0  0  0  0  0  0  0
   -1.3601   -3.1090    0.4314 C   0  0  0  0  0  0  0  0  0  0  0  0
   -1.4910   -1.8040    0.9131 C   0  0  0  0  0  0  0  0  0  0  0  0
    1.1563    1.6423    0.0395 C   0  0  0  0  0  0  0  0  0  0  0  0
    0.1523    2.1340   -0.7349 N   0  0  0  0  0  0  0  0  0  0  0  0
   -3.6958    1.1129   -1.7493 C   0  0  0  0  0  0  0  0  0  0  0  0
   -4.1724   -0.1969   -1.7399 C   0  0  0  0  0  0  0  0  0  0  0  0
   -3.4095   -1.2363   -2.2882 C   0  0  0  0  0  0  0  0  0  0  0  0
   -3.9052   -2.5392   -2.2484 O   0  0  0  0  0  0  0  0  0  0  0  0
  1  2  2  0
  2  3  1  0
  2  4  1  0
  4  5  2  0
  5  6  1  0
  6  7  1  0
  7  8  1  0
  8  9  1  0
  9 10  2  0
 10 11  1  0
 11 12  2  0
 12 13  1  0
 13 14  2  0
 14 15  1  0
 15 16  2  0
 16 17  1  0
 17 18  1  0
 18 19  1  0
 19 20  2  0
 20 21  1  0
 21 22  2  0
 22 23  1  0
 23 24  2  0
 16 25  1  0
 25 26  2  0
  6 27  2  0
 27 28  1  0
 28 29  2  0
 29 30  1  0
 29  4  1  0
 26  9  1  0
 25 12  1  0
 24 19  1  0
M  END
>  <score>  (184) 
0.07621

$$$$
HIPS7013
     RDKit          3D

 30 33  0  0  0  0  0  0  0  0999 V2000
    4.2701   -1.4861   -3.1023 O   0  0  0  0  0  0  0  0  0  0  0  0
    3.3302   -1.2550   -2.2956 C   0  0  0  0  0  0  0  0  0  0  0  0
    2.0379   -1.6619   -2.6183 O   0  0  0  0  0  0  0  0  0  0  0  0
    3.5944   -0.6159   -0.9874 C   0  0  0  0  0  0  0  0  0  0  0  0
    2.8212   -1.0175    0.1166 C   0  0  0  0  0  0  0  0  0  0  0  0
    3.0555   -0.4838    1.3973 C   0  0  0  0  0  0  0  0  0  0  0  0
    2.2935   -0.8456    2.5207 O   0  0  0  0  0  0  0  0  0  0  0  0
    1.1216   -1.6623    2.4963 C   0  0  0  0  0  0  0  0  0  0  0  0
   -0.0062   -0.9571    1.7886 C   0  0  0  0  0  0  0  0  0  0  0  0
   -0.4030    0.3206    2.2065 C   0  0  0  0  0  0  0  0  0  0  0  0
   -1.4324    1.0059    1.5398 C   0  0  0  0  0  0  0  0  0  0  0  0
   -1.8415    2.3637    1.9812 C   0  0  0  0  0  0  0  0  0  0  0  0
   -1.9338    2.6808    3.3474 C   0  0  0  0  0  0  0  0  0  0  0  0
   -2.3193    3.9616    3.7464 C   0  0  0  0  0  0  0  0  0  0  0  0
   -2.6100    4.9216    2.7771 C   0  0  0  0  0  0  0  0  0  0  0  0
   -2.5163    4.6070    1.4586 N   0  0  0  0  0  0  0  0  0  0  0  0
   -2.1452    3.3665    1.0429 C   0  0  0  0  0  0  0  0  0  0  0  0
   -2.0669    0.3900    0.4469 C   0  0  0  0  0  0  0  0  0  0  0  0
   -1.6877   -0.8955    0.0229 C   0  0  0  0  0  0  0  0  0  0  0  0
   -2.3584   -1.5340   -1.1380 C   0  0  0  0  0  0  0  0  0  0  0  0
   -2.6799   -0.7869   -2.2842 C   0  0  0  0  0  0  0  0  0  0  0  0
   -3.3047   -1.4015   -3.3704 C   0  0  0  0  0  0  0  0  0  0  0  0
   -3.6070   -2.7618   -3.3058 C   0  0  0  0  0  0  0  0  0  0  0  0
   -3.2938   -3.4760   -2.1931 N   0  0  0  0  0  0  0  0  0  0  0  0
   -2.6830   -2.9023   -1.1221 C   0  0  0  0  0  0  0  0  0  0  0  0
   -0.6603   -1.5653    0.7075 C   0  0  0  0  0  0  0  0  0  0  0  0
    4.0869    0.4413    1.5703 C   0  0  0  0  0  0  0  0  0  0  0  0
    4.8550    0.8578    0.4830 C   0  0  0  0  0  0  0  0  0  0  0  0
    4.6056    0.3596   -0.8001 C   0  0  0  0  0  0  0  0  0  0  0  0
    5.3557    0.8814   -1.8563 O   0  0  0  0  0  0  0  0  0  0  0  0
  1  2  2  0
  2  3  1  0
  2  4  1  0
  4  5  2  0
  5  6  1  0
  6  7  1  0
  7  8  1  0
  8  9  1  0
  9 10  2  0
 10 11  1  0
 11 12  1  0
 12 13  2  0
 13 14  1  0
 14 15  2  0
 15 16  1  0
 16 17  2  0
 11 18  2  0
 18 19  1  0
 19 20  1  0
 20 21  2  0
 21 22  1  0
 22 23  2  0
 23 24  1  0
 24 25  2  0
 19 26  2  0
  6 27  2  0
 27 28  1  0
 28 29  2  0
 29 30  1  0
 29  4  1  0
 26  9  1  0
 17 12  1  0
 25 20  1  0
M  END
>  <score>  (185) 
0.239319

$$$$
HIPS7014
     RDKit          3D

 32 35  0  0  0  0  0  0  0  0999 V2000
   -3.8110   -4.3731   -3.1253 N   0  0  0  0  0  0  0  0  0  0  0  0
   -4.6900   -3.6085   -2.2444 C   0  0  0  0  0  0  0  0  0  0  0  0
   -3.9897   -3.2444   -0.9697 C   0  0  0  0  0  0  0  0  0  0  0  0
   -3.1737   -2.1377   -0.7798 C   0  0  0  0  0  0  0  0  0  0  0  0
   -2.5825   -2.0924    0.4969 C   0  0  0  0  0  0  0  0  0  0  0  0
   -1.6718   -1.0067    0.9413 C   0  0  0  0  0  0  0  0  0  0  0  0
   -0.6498   -1.2681    1.8696 C   0  0  0  0  0  0  0  0  0  0  0  0
    0.2195   -0.2489    2.2829 C   0  0  0  0  0  0  0  0  0  0  0  0
    1.3228   -0.5370    3.2676 C   0  0  0  0  0  0  0  0  0  0  0  0
    2.5797   -0.0767    2.7694 O   0  0  0  0  0  0  0  0  0  0  0  0
    3.2722   -0.6286    1.6791 C   0  0  0  0  0  0  0  0  0  0  0  0
    2.8558   -1.8050    1.0339 C   0  0  0  0  0  0  0  0  0  0  0  0
    3.5711   -2.2982   -0.0574 C   0  0  0  0  0  0  0  0  0  0  0  0
    4.7103   -1.6350   -0.5253 C   0  0  0  0  0  0  0  0  0  0  0  0
    5.3311   -2.1403   -1.6699 O   0  0  0  0  0  0  0  0  0  0  0  0
    5.1689   -0.4736    0.1455 C   0  0  0  0  0  0  0  0  0  0  0  0
    6.4179    0.2263   -0.2278 C   0  0  0  0  0  0  0  0  0  0  0  0
    7.4106   -0.4149   -0.6649 O   0  0  0  0  0  0  0  0  0  0  0  0
    6.5244    1.6017   -0.0379 O   0  0  0  0  0  0  0  0  0  0  0  0
    4.4256    0.0233    1.2311 C   0  0  0  0  0  0  0  0  0  0  0  0
    0.0503    1.0495    1.7828 C   0  0  0  0  0  0  0  0  0  0  0  0
   -0.9643    1.3348    0.8540 C   0  0  0  0  0  0  0  0  0  0  0  0
   -1.1307    2.7104    0.3197 C   0  0  0  0  0  0  0  0  0  0  0  0
   -0.8127    3.8617    1.0437 C   0  0  0  0  0  0  0  0  0  0  0  0
   -1.1592    5.2056    0.0949 S   0  0  0  0  0  0  0  0  0  0  0  0
   -1.6917    4.3496   -1.2476 C   0  0  0  0  0  0  0  0  0  0  0  0
   -2.2356    4.9590   -2.4999 C   0  0  0  0  0  0  0  0  0  0  0  0
   -3.6877    5.0632   -2.4117 N   0  0  0  0  0  0  0  0  0  0  0  0
   -1.6310    2.9917   -0.9659 C   0  0  0  0  0  0  0  0  0  0  0  0
   -1.8199    0.2986    0.4396 C   0  0  0  0  0  0  0  0  0  0  0  0
   -2.9318   -3.1826    1.2971 C   0  0  0  0  0  0  0  0  0  0  0  0
   -3.9613   -4.1829    0.4221 S   0  0  0  0  0  0  0  0  0  0  0  0
  1  2  1  0
  2  3  1  0
  3  4  2  0
  4  5  1  0
  5  6  1  0
  6  7  2  0
  7  8  1  0
  8  9  1  0
  9 10  1  0
 10 11  1  0
 11 12  2  0
 12 13  1  0
 13 14  2  0
 14 15  1  0
 14 16  1  0
 16 17  1  0
 17 18  2  0
 17 19  1  0
 16 20  2  0
  8 21  2  0
 21 22  1  0
 22 23  1  0
 23 24  2  0
 24 25  1  0
 25 26  1  0
 26 27  1  0
 27 28  1  0
 26 29  2  0
 22 30  2  0
  5 31  2  0
 31 32  1  0
 32  3  1  0
 30  6  1  0
 20 11  1  0
 29 23  1  0
M  END
>  <score>  (186) 
0.257233

$$$$
HIPS7015
     RDKit          3D

 36 39  0  0  0  0  0  0  0  0999 V2000
   -7.4148   -3.5646    0.5109 O   0  0  0  0  0  0  0  0  0  0  0  0
   -6.7640   -3.4627   -0.5647 C   0  0  0  0  0  0  0  0  0  0  0  0
   -6.7180   -4.5535   -1.4283 O   0  0  0  0  0  0  0  0  0  0  0  0
   -6.0601   -2.1961   -0.8957 C   0  0  0  0  0  0  0  0  0  0  0  0
   -6.1182   -1.1140    0.0051 C   0  0  0  0  0  0  0  0  0  0  0  0
   -5.4663    0.0936   -0.2680 C   0  0  0  0  0  0  0  0  0  0  0  0
   -5.5643    1.1280    0.6776 O   0  0  0  0  0  0  0  0  0  0  0  0
   -4.8845    2.3817    0.6032 C   0  0  0  0  0  0  0  0  0  0  0  0
   -3.4072    2.2041    0.8307 C   0  0  0  0  0  0  0  0  0  0  0  0
   -2.4663    2.7580   -0.0440 C   0  0  0  0  0  0  0  0  0  0  0  0
   -1.1393    2.5943    0.1933 N   0  0  0  0  0  0  0  0  0  0  0  0
   -0.6931    1.9033    1.2783 C   0  0  0  0  0  0  0  0  0  0  0  0
    0.7625    1.7353    1.5150 C   0  0  0  0  0  0  0  0  0  0  0  0
    1.2276    1.0193    2.6335 C   0  0  0  0  0  0  0  0  0  0  0  0
    2.5974    0.8668    2.8572 C   0  0  0  0  0  0  0  0  0  0  0  0
    3.5209    1.4154    1.9666 C   0  0  0  0  0  0  0  0  0  0  0  0
    3.0795    2.1137    0.8324 C   0  0  0  0  0  0  0  0  0  0  0  0
    4.0096    2.6769   -0.1028 N   0  0  0  0  0  0  0  0  0  0  0  0
    5.3278    1.7719   -0.7813 S   0  0  0  0  0  6  0  0  0  0  0  0
    6.2352    2.7261   -1.5047 O   0  0  0  0  0  0  0  0  0  0  0  0
    6.1215    1.0964    0.2990 O   0  0  0  0  0  0  0  0  0  0  0  0
    4.7123    0.5759   -1.9642 C   0  0  0  0  0  0  0  0  0  0  0  0
    3.9151   -0.5689   -1.3066 C   0  0  0  0  0  0  0  0  0  0  0  0
    4.6670   -1.9066   -1.3078 C   0  0  0  0  0  0  0  0  0  0  0  0
    5.8091   -1.8701   -0.4007 N   0  0  0  0  0  0  0  0  0  0  0  0
    7.1085   -1.7513   -0.7141 C   0  0  0  0  0  0  0  0  0  0  0  0
    7.8432   -1.7438    0.4138 N   0  0  0  0  0  0  0  0  0  0  0  0
    6.9669   -1.8578    1.4047 N   0  0  0  0  0  0  0  0  0  0  0  0
    5.7380   -1.9328    0.9164 N   0  0  0  0  0  0  0  0  0  0  0  0
    1.7029    2.2862    0.6232 C   0  0  0  0  0  0  0  0  0  0  0  0
   -1.5969    1.3697    2.1455 N   0  0  0  0  0  0  0  0  0  0  0  0
   -2.9329    1.5084    1.9477 C   0  0  0  0  0  0  0  0  0  0  0  0
   -4.7464    0.2284   -1.4671 C   0  0  0  0  0  0  0  0  0  0  0  0
   -4.6789   -0.8335   -2.3692 C   0  0  0  0  0  0  0  0  0  0  0  0
   -5.3280   -2.0451   -2.0953 C   0  0  0  0  0  0  0  0  0  0  0  0
   -5.2416   -3.0887   -3.0167 O   0  0  0  0  0  0  0  0  0  0  0  0
  1  2  2  0
  2  3  1  0
  2  4  1  0
  4  5  2  0
  5  6  1  0
  6  7  1  0
  7  8  1  0
  8  9  1  0
  9 10  2  0
 10 11  1  0
 11 12  2  0
 12 13  1  0
 13 14  2  0
 14 15  1  0
 15 16  2  0
 16 17  1  0
 17 18  1  0
 18 19  1  0
 19 20  2  0
 19 21  2  0
 19 22  1  0
 22 23  1  0
 23 24  1  0
 24 25  1  0
 25 26  1  0
 26 27  2  0
 27 28  1  0
 28 29  2  0
 17 30  2  0
 12 31  1  0
 31 32  2  0
  6 33  2  0
 33 34  1  0
 34 35  2  0
 35 36  1  0
 35  4  1  0
 32  9  1  0
 30 13  1  0
 29 25  1  0
M  END
>  <score>  (187) 
0.875691

$$$$
HIPS7022
     RDKit          3D

 36 38  0  0  0  0  0  0  0  0999 V2000
   -5.1900   -1.1035    2.0711 C   0  0  0  0  0  0  0  0  0  0  0  0
   -6.1158   -1.9830    1.2298 C   0  0  0  0  0  0  0  0  0  0  0  0
   -5.3468   -3.0152    0.3851 C   0  0  0  0  0  0  0  0  0  0  0  0
   -4.6343   -2.4190   -0.8418 C   0  0  0  0  0  0  0  0  0  0  0  0
   -5.6167   -1.9656   -1.9385 C   0  0  0  0  0  0  0  0  0  0  0  0
   -4.9276   -1.7266   -3.2918 C   0  0  0  0  0  0  0  0  0  0  0  0
   -3.9042   -0.5771   -3.2932 C   0  0  0  0  0  0  0  0  0  0  0  0
   -4.5419    0.8236   -3.1763 C   0  0  0  0  0  0  0  0  0  0  0  0
   -4.2884    1.5931   -1.5747 S   0  0  0  0  0  6  0  0  0  0  0  0
   -5.3364    1.0993   -0.6189 O   0  0  0  0  0  0  0  0  0  0  0  0
   -4.4373    3.0832   -1.7048 O   0  0  0  0  0  0  0  0  0  0  0  0
   -2.7196    1.2249   -0.9252 N   0  0  0  0  0  0  0  0  0  0  0  0
   -1.4822    1.4580   -1.6216 C   0  0  0  0  0  0  0  0  0  0  0  0
   -1.4079    2.3132   -2.7350 C   0  0  0  0  0  0  0  0  0  0  0  0
   -0.1926    2.5137   -3.3898 C   0  0  0  0  0  0  0  0  0  0  0  0
    0.9638    1.8753   -2.9392 C   0  0  0  0  0  0  0  0  0  0  0  0
    0.9180    1.0233   -1.8207 C   0  0  0  0  0  0  0  0  0  0  0  0
    2.1497    0.3571   -1.3297 C   0  0  0  0  0  0  0  0  0  0  0  0
    2.0849   -0.5553   -0.3214 N   0  0  0  0  0  0  0  0  0  0  0  0
    3.2019   -1.1643    0.1536 C   0  0  0  0  0  0  0  0  0  0  0  0
    4.4537   -0.8496   -0.3858 C   0  0  0  0  0  0  0  0  0  0  0  0
    5.7176   -1.4712    0.1438 C   0  0  0  0  0  0  0  0  0  0  0  0
    6.5955   -0.4626    0.6469 O   0  0  0  0  0  0  0  0  0  0  0  0
    6.3652    0.3150    1.7949 C   0  0  0  0  0  0  0  0  0  0  0  0
    5.3507    0.0164    2.7201 C   0  0  0  0  0  0  0  0  0  0  0  0
    5.1529    0.8309    3.8343 C   0  0  0  0  0  0  0  0  0  0  0  0
    5.9622    1.9542    4.0485 C   0  0  0  0  0  0  0  0  0  0  0  0
    5.7343    2.7535    5.1684 O   0  0  0  0  0  0  0  0  0  0  0  0
    6.9938    2.2646    3.1331 C   0  0  0  0  0  0  0  0  0  0  0  0
    7.8710    3.4495    3.3175 C   0  0  0  0  0  0  0  0  0  0  0  0
    8.7881    3.6952    2.4873 O   0  0  0  0  0  0  0  0  0  0  0  0
    7.6934    4.3084    4.3980 O   0  0  0  0  0  0  0  0  0  0  0  0
    7.1838    1.4283    2.0152 C   0  0  0  0  0  0  0  0  0  0  0  0
    4.5018    0.0807   -1.4284 C   0  0  0  0  0  0  0  0  0  0  0  0
    3.3588    0.6610   -1.8754 N   0  0  0  0  0  0  0  0  0  0  0  0
   -0.3141    0.8225   -1.1696 C   0  0  0  0  0  0  0  0  0  0  0  0
  1  2  1  0
  2  3  1  0
  3  4  1  0
  4  5  1  0
  5  6  1  0
  6  7  1  0
  7  8  1  0
  8  9  1  0
  9 10  2  0
  9 11  2  0
  9 12  1  0
 12 13  1  0
 13 14  2  0
 14 15  1  0
 15 16  2  0
 16 17  1  0
 17 18  1  0
 18 19  2  0
 19 20  1  0
 20 21  2  0
 21 22  1  0
 22 23  1  0
 23 24  1  0
 24 25  2  0
 25 26  1  0
 26 27  2  0
 27 28  1  0
 27 29  1  0
 29 30  1  0
 30 31  2  0
 30 32  1  0
 29 33  2  0
 21 34  1  0
 34 35  2  0
 17 36  2  0
 36 13  1  0
 35 18  1  0
 33 24  1  0
M  END
>  <score>  (188) 
-0.632506

$$$$
HIPS7032
     RDKit          3D

 23 25  0  0  0  0  0  0  0  0999 V2000
   -6.3836   -0.5516    1.1242 O   0  0  0  0  0  0  0  0  0  0  0  0
   -5.2882   -0.9833    1.5740 C   0  0  0  0  0  0  0  0  0  0  0  0
   -5.2509   -1.5186    2.8593 O   0  0  0  0  0  0  0  0  0  0  0  0
   -4.0506   -0.9267    0.7543 C   0  0  0  0  0  0  0  0  0  0  0  0
   -2.8468   -1.4198    1.2923 C   0  0  0  0  0  0  0  0  0  0  0  0
   -1.6557   -1.3839    0.5590 C   0  0  0  0  0  0  0  0  0  0  0  0
   -0.4913   -1.8880    1.1617 O   0  0  0  0  0  0  0  0  0  0  0  0
    0.8221   -1.8221    0.6049 C   0  0  0  0  0  0  0  0  0  0  0  0
    1.3319   -0.4047    0.6060 C   0  0  0  0  0  0  0  0  0  0  0  0
    1.3454    0.3320    1.7988 C   0  0  0  0  0  0  0  0  0  0  0  0
    1.8236    1.6426    1.8099 C   0  0  0  0  0  0  0  0  0  0  0  0
    2.2954    2.2282    0.6333 C   0  0  0  0  0  0  0  0  0  0  0  0
    2.2966    1.5075   -0.5746 C   0  0  0  0  0  0  0  0  0  0  0  0
    2.7877    2.1267   -1.7815 N   0  0  0  0  0  0  0  0  0  0  0  0
    2.7069    1.6651   -3.0453 C   0  0  0  0  0  0  0  0  0  0  0  0
    3.3052    2.6085   -3.8491 C   0  0  0  0  0  0  0  0  0  0  0  0
    3.7311    3.6152   -3.0622 N   0  0  0  0  0  0  0  0  0  0  0  0
    3.4043    3.2986   -1.8180 N   0  0  0  0  0  0  0  0  0  0  0  0
    1.8188    0.1817   -0.5742 C   0  0  0  0  0  0  0  0  0  0  0  0
   -1.6666   -0.8529   -0.7417 C   0  0  0  0  0  0  0  0  0  0  0  0
   -2.8510   -0.3600   -1.2891 C   0  0  0  0  0  0  0  0  0  0  0  0
   -4.0436   -0.3905   -0.5539 C   0  0  0  0  0  0  0  0  0  0  0  0
   -5.2127    0.1105   -1.1270 O   0  0  0  0  0  0  0  0  0  0  0  0
  1  2  2  0
  2  3  1  0
  2  4  1  0
  4  5  2  0
  5  6  1  0
  6  7  1  0
  7  8  1  0
  8  9  1  0
  9 10  2  0
 10 11  1  0
 11 12  2  0
 12 13  1  0
 13 14  1  0
 14 15  1  0
 15 16  2  0
 16 17  1  0
 17 18  2  0
 13 19  2  0
  6 20  2  0
 20 21  1  0
 21 22  2  0
 22 23  1  0
 22  4  1  0
 19  9  1  0
 18 14  1  0
M  END
>  <score>  (189) 
0.200931

$$$$
HIPS7048
     RDKit          3D

 36 39  0  0  0  0  0  0  0  0999 V2000
   -8.5048    2.0770    2.2722 C   0  0  0  0  0  0  0  0  0  0  0  0
   -8.4917    1.1196    1.1169 C   0  0  0  0  0  0  0  0  0  0  0  0
   -8.8752    1.8902   -0.1320 C   0  0  0  0  0  0  0  0  0  0  0  0
   -9.5751    0.0725    1.3902 C   0  0  0  0  0  0  0  0  0  0  0  0
   -7.2755    0.4290    0.9745 O   0  0  0  0  0  0  0  0  0  0  0  0
   -6.0588    1.0557    0.7589 C   0  0  0  0  0  0  0  0  0  0  0  0
   -6.0700    2.3093    0.6911 O   0  0  0  0  0  0  0  0  0  0  0  0
   -4.8393    0.3122    0.6188 N   0  0  0  0  0  0  0  0  0  0  0  0
   -3.6112    1.0494    0.3953 C   0  0  0  0  0  0  0  0  0  0  0  0
   -2.5359    0.4035    1.2168 C   0  0  0  0  0  0  0  0  0  0  0  0
   -2.3208   -0.9920    0.7339 C   0  0  0  0  0  0  0  0  0  0  0  0
   -1.2319   -0.9682   -0.3075 C   0  0  0  0  0  0  0  0  0  0  0  0
   -0.0040   -1.5906   -0.2583 C   0  0  0  0  0  0  0  0  0  0  0  0
    0.6795   -1.3240   -1.3863 N   0  0  0  0  0  0  0  0  0  0  0  0
    1.9842   -1.7559   -1.7663 C   0  0  0  0  0  0  0  0  0  0  0  0
    2.2072   -2.6967   -2.7509 C   0  0  0  0  0  0  0  0  0  0  0  0
    3.4770   -3.1085   -3.1117 C   0  0  0  0  0  0  0  0  0  0  0  0
    4.5861   -2.5733   -2.4776 C   0  0  0  0  0  0  0  0  0  0  0  0
    4.3856   -1.6310   -1.4901 C   0  0  0  0  0  0  0  0  0  0  0  0
    5.5855   -1.0659   -0.8187 C   0  0  0  0  0  0  0  0  0  0  0  0
    6.0456    0.0695   -1.4813 O   0  0  0  0  0  0  0  0  0  0  0  0
    7.1431    0.7455   -1.0267 C   0  0  0  0  0  0  0  0  0  0  0  0
    7.6114    1.8842   -1.6842 C   0  0  0  0  0  0  0  0  0  0  0  0
    8.7189    2.5335   -1.1925 C   0  0  0  0  0  0  0  0  0  0  0  0
    9.3879    2.0956   -0.0643 C   0  0  0  0  0  0  0  0  0  0  0  0
   10.4980    2.7768    0.3981 O   0  0  0  0  0  0  0  0  0  0  0  0
    8.9101    0.9765    0.5637 C   0  0  0  0  0  0  0  0  0  0  0  0
    9.6007    0.4933    1.7597 C   0  0  0  0  0  0  0  0  0  0  0  0
   10.6092    1.0613    2.2310 O   0  0  0  0  0  0  0  0  0  0  0  0
    9.1411   -0.6344    2.4148 O   0  0  0  0  0  0  0  0  0  0  0  0
    7.8079    0.3109    0.0939 C   0  0  0  0  0  0  0  0  0  0  0  0
    3.1108   -1.2327   -1.1439 C   0  0  0  0  0  0  0  0  0  0  0  0
   -0.1121   -0.5542   -2.1125 N   0  0  0  0  0  0  0  0  0  0  0  0
   -1.2570   -0.3282   -1.4905 N   0  0  0  0  0  0  0  0  0  0  0  0
   -3.5151   -1.6231    0.0980 C   0  0  0  0  0  0  0  0  0  0  0  0
   -4.8307   -1.1153    0.6968 C   0  0  0  0  0  0  0  0  0  0  0  0
  1  2  1  0
  2  3  1  0
  2  4  1  0
  2  5  1  0
  5  6  1  0
  6  7  2  0
  6  8  1  0
  8  9  1  0
  9 10  1  0
 10 11  1  0
 11 12  1  0
 12 13  2  0
 13 14  1  0
 14 15  1  0
 15 16  2  0
 16 17  1  0
 17 18  2  0
 18 19  1  0
 19 20  1  0
 20 21  1  0
 21 22  1  0
 22 23  2  0
 23 24  1  0
 24 25  2  0
 25 26  1  0
 25 27  1  0
 27 28  1  0
 28 29  2  0
 28 30  1  0
 27 31  2  0
 19 32  2  0
 14 33  1  0
 33 34  2  0
 11 35  1  0
 35 36  1  0
 36  8  1  0
 34 12  1  0
 32 15  1  0
 31 22  1  0
M  END
>  <score>  (190) 
0.157425

$$$$
HIPS7049
     RDKit          3D

 33 36  0  0  0  0  0  0  0  0999 V2000
   -0.7915   -6.6284    0.8986 O   0  0  0  0  0  0  0  0  0  0  0  0
   -0.3160   -6.1746   -0.1754 C   0  0  0  0  0  0  0  0  0  0  0  0
    0.2295   -7.0566   -1.1068 O   0  0  0  0  0  0  0  0  0  0  0  0
   -0.3972   -4.7310   -0.4893 C   0  0  0  0  0  0  0  0  0  0  0  0
   -0.5502   -4.3476   -1.8339 C   0  0  0  0  0  0  0  0  0  0  0  0
   -0.7077   -3.0055   -2.1912 C   0  0  0  0  0  0  0  0  0  0  0  0
   -0.8375   -2.6917   -3.5544 O   0  0  0  0  0  0  0  0  0  0  0  0
   -0.7987   -1.3751   -4.1035 C   0  0  0  0  0  0  0  0  0  0  0  0
    0.5814   -0.7867   -3.9686 C   0  0  0  0  0  0  0  0  0  0  0  0
    1.6749   -1.4276   -4.5658 C   0  0  0  0  0  0  0  0  0  0  0  0
    2.9621   -0.9124   -4.4089 C   0  0  0  0  0  0  0  0  0  0  0  0
    3.1700    0.2408   -3.6484 C   0  0  0  0  0  0  0  0  0  0  0  0
    2.0877    0.9032   -3.0422 C   0  0  0  0  0  0  0  0  0  0  0  0
    2.3215    2.0711   -2.2277 N   0  0  0  0  0  0  0  0  0  0  0  0
    1.4121    2.8225   -1.5744 C   0  0  0  0  0  0  0  0  0  0  0  0
    2.1229    3.7807   -0.8881 C   0  0  0  0  0  0  0  0  0  0  0  0
    1.5670    4.8559   -0.0045 C   0  0  0  0  0  0  0  0  0  0  0  0
    0.3497    4.4331    0.6141 O   0  0  0  0  0  0  0  0  0  0  0  0
    0.2342    3.3848    1.5424 C   0  0  0  0  0  0  0  0  0  0  0  0
   -1.0483    2.9770    1.9259 C   0  0  0  0  0  0  0  0  0  0  0  0
   -1.2200    1.9239    2.8297 C   0  0  0  0  0  0  0  0  0  0  0  0
   -0.1050    1.2736    3.3776 C   0  0  0  0  0  0  0  0  0  0  0  0
   -0.2875    0.1257    4.3297 C   0  0  0  0  0  0  0  0  0  0  0  0
   -0.3809   -1.0761    3.6193 O   0  0  0  0  0  0  0  0  0  0  0  0
    1.1824    1.6733    2.9894 C   0  0  0  0  0  0  0  0  0  0  0  0
    1.3537    2.7274    2.0874 C   0  0  0  0  0  0  0  0  0  0  0  0
    3.4323    3.6098   -1.1517 N   0  0  0  0  0  0  0  0  0  0  0  0
    3.5229    2.5646   -1.9616 N   0  0  0  0  0  0  0  0  0  0  0  0
    0.7898    0.3850   -3.2227 C   0  0  0  0  0  0  0  0  0  0  0  0
   -0.7360   -2.0291   -1.1827 C   0  0  0  0  0  0  0  0  0  0  0  0
   -0.5615   -2.3909    0.1519 C   0  0  0  0  0  0  0  0  0  0  0  0
   -0.3643   -3.7273    0.5101 C   0  0  0  0  0  0  0  0  0  0  0  0
   -0.1084   -4.0083    1.8531 O   0  0  0  0  0  0  0  0  0  0  0  0
  1  2  2  0
  2  3  1  0
  2  4  1  0
  4  5  2  0
  5  6  1  0
  6  7  1  0
  7  8  1  0
  8  9  1  0
  9 10  2  0
 10 11  1  0
 11 12  2  0
 12 13  1  0
 13 14  1  0
 14 15  1  0
 15 16  2  0
 16 17  1  0
 17 18  1  0
 18 19  1  0
 19 20  2  0
 20 21  1  0
 21 22  2  0
 22 23  1  0
 23 24  1  0
 22 25  1  0
 25 26  2  0
 16 27  1  0
 27 28  2  0
 13 29  2  0
  6 30  2  0
 30 31  1  0
 31 32  2  0
 32 33  1  0
 32  4  1  0
 29  9  1  0
 28 14  1  0
 26 19  1  0
M  END
>  <score>  (191) 
0.257233

$$$$
HIPS7050
     RDKit          3D

 31 33  0  0  0  0  0  0  0  0999 V2000
   -3.8742    7.5105   -0.2181 O   0  0  0  0  0  0  0  0  0  0  0  0
   -2.9979    6.6201   -0.0499 C   0  0  0  0  0  0  0  0  0  0  0  0
   -2.4530    6.4408    1.2190 O   0  0  0  0  0  0  0  0  0  0  0  0
   -2.5482    5.7690   -1.1809 C   0  0  0  0  0  0  0  0  0  0  0  0
   -1.5855    4.7684   -0.9482 C   0  0  0  0  0  0  0  0  0  0  0  0
   -1.1349    3.9418   -1.9832 C   0  0  0  0  0  0  0  0  0  0  0  0
   -0.1754    2.9632   -1.6827 O   0  0  0  0  0  0  0  0  0  0  0  0
    0.4084    2.0843   -2.6409 C   0  0  0  0  0  0  0  0  0  0  0  0
    1.3953    1.1840   -1.9546 C   0  0  0  0  0  0  0  0  0  0  0  0
    2.5559    1.7265   -1.3858 C   0  0  0  0  0  0  0  0  0  0  0  0
    3.4742    0.8987   -0.7384 C   0  0  0  0  0  0  0  0  0  0  0  0
    3.2434   -0.4766   -0.6517 C   0  0  0  0  0  0  0  0  0  0  0  0
    2.0824   -1.0422   -1.2128 C   0  0  0  0  0  0  0  0  0  0  0  0
    1.8335   -2.4605   -1.1415 N   0  0  0  0  0  0  0  0  0  0  0  0
    2.4679   -3.3752   -0.3817 C   0  0  0  0  0  0  0  0  0  0  0  0
    1.8621   -4.5825   -0.6473 C   0  0  0  0  0  0  0  0  0  0  0  0
    2.1660   -5.8968    0.0002 C   0  0  0  0  0  0  0  0  0  0  0  0
    2.0476   -5.7803    1.4078 O   0  0  0  0  0  0  0  0  0  0  0  0
    0.8190   -6.3048    1.8818 C   0  0  0  0  0  0  0  0  0  0  0  0
   -0.3554   -5.3638    1.5994 C   0  0  0  0  0  0  0  0  0  0  0  0
   -0.0061   -4.0480    1.9787 O   0  0  0  0  0  0  0  0  0  0  0  0
   -1.0545   -3.1453    1.6820 C   0  0  0  0  0  0  0  0  0  0  0  0
   -1.9285   -2.9131    2.9160 C   0  0  0  0  0  0  0  0  0  0  0  0
   -1.1509   -2.4778    3.9977 O   0  0  0  0  0  0  0  0  0  0  0  0
    0.8845   -4.3810   -1.5502 N   0  0  0  0  0  0  0  0  0  0  0  0
    0.8909   -3.0862   -1.8321 N   0  0  0  0  0  0  0  0  0  0  0  0
    1.1622   -0.1987   -1.8630 C   0  0  0  0  0  0  0  0  0  0  0  0
   -1.6549    4.1146   -3.2770 C   0  0  0  0  0  0  0  0  0  0  0  0
   -2.6110    5.0997   -3.5232 C   0  0  0  0  0  0  0  0  0  0  0  0
   -3.0632    5.9292   -2.4882 C   0  0  0  0  0  0  0  0  0  0  0  0
   -4.0202    6.9058   -2.7649 O   0  0  0  0  0  0  0  0  0  0  0  0
  1  2  2  0
  2  3  1  0
  2  4  1  0
  4  5  2  0
  5  6  1  0
  6  7  1  0
  7  8  1  0
  8  9  1  0
  9 10  2  0
 10 11  1  0
 11 12  2  0
 12 13  1  0
 13 14  1  0
 14 15  1  0
 15 16  2  0
 16 17  1  0
 17 18  1  0
 18 19  1  0
 19 20  1  0
 20 21  1  0
 21 22  1  0
 22 23  1  0
 23 24  1  0
 16 25  1  0
 25 26  2  0
 13 27  2  0
  6 28  2  0
 28 29  1  0
 29 30  2  0
 30 31  1  0
 30  4  1  0
 27  9  1  0
 26 14  1  0
M  END
>  <score>  (192) 
0.185576

$$$$
HIPS7051
     RDKit          3D

 29 31  0  0  0  0  0  0  0  0999 V2000
    0.4061    4.3988    6.5767 O   0  0  0  0  0  0  0  0  0  0  0  0
   -0.6195    3.8942    6.0474 C   0  0  0  0  0  0  0  0  0  0  0  0
   -1.5111    3.1575    6.8214 O   0  0  0  0  0  0  0  0  0  0  0  0
   -0.8578    4.0455    4.5769 C   0  0  0  0  0  0  0  0  0  0  0  0
   -0.4126    2.7993    3.8003 C   0  0  0  0  0  0  0  0  0  0  0  0
    1.1163    2.6641    3.7505 C   0  0  0  0  0  0  0  0  0  0  0  0
    1.5143    1.4408    2.9852 C   0  0  0  0  0  0  0  0  0  0  0  0
    1.4421    1.2607    1.6221 C   0  0  0  0  0  0  0  0  0  0  0  0
    1.8762    0.0071    1.3851 N   0  0  0  0  0  0  0  0  0  0  0  0
    1.9922   -0.6631    0.1144 C   0  0  0  0  0  0  0  0  0  0  0  0
    2.7425   -1.8478    0.0109 C   0  0  0  0  0  0  0  0  0  0  0  0
    2.8525   -2.5134   -1.2124 C   0  0  0  0  0  0  0  0  0  0  0  0
    2.2064   -2.0137   -2.3445 C   0  0  0  0  0  0  0  0  0  0  0  0
    1.4404   -0.8422   -2.2607 C   0  0  0  0  0  0  0  0  0  0  0  0
    0.7308   -0.3189   -3.4825 C   0  0  0  0  0  0  0  0  0  0  0  0
   -0.1049   -1.3266   -4.0538 O   0  0  0  0  0  0  0  0  0  0  0  0
   -1.2705   -1.8450   -3.4656 C   0  0  0  0  0  0  0  0  0  0  0  0
   -1.8895   -2.9365   -4.0803 C   0  0  0  0  0  0  0  0  0  0  0  0
   -3.0428   -3.4996   -3.5323 C   0  0  0  0  0  0  0  0  0  0  0  0
   -3.6014   -2.9800   -2.3600 C   0  0  0  0  0  0  0  0  0  0  0  0
   -4.7904   -3.5455   -1.8953 O   0  0  0  0  0  0  0  0  0  0  0  0
   -2.9768   -1.8875   -1.7126 C   0  0  0  0  0  0  0  0  0  0  0  0
   -3.4766   -1.3421   -0.4344 C   0  0  0  0  0  0  0  0  0  0  0  0
   -3.4730   -0.0976   -0.2373 O   0  0  0  0  0  0  0  0  0  0  0  0
   -3.9081   -2.1962    0.5765 O   0  0  0  0  0  0  0  0  0  0  0  0
   -1.8276   -1.3151   -2.2864 C   0  0  0  0  0  0  0  0  0  0  0  0
    1.3472   -0.1635   -1.0342 C   0  0  0  0  0  0  0  0  0  0  0  0
    2.1932   -0.5438    2.5487 N   0  0  0  0  0  0  0  0  0  0  0  0
    1.9773    0.3053    3.5431 N   0  0  0  0  0  0  0  0  0  0  0  0
  1  2  2  0
  2  3  1  0
  2  4  1  0
  4  5  1  0
  5  6  1  0
  6  7  1  0
  7  8  2  0
  8  9  1  0
  9 10  1  0
 10 11  2  0
 11 12  1  0
 12 13  2  0
 13 14  1  0
 14 15  1  0
 15 16  1  0
 16 17  1  0
 17 18  2  0
 18 19  1  0
 19 20  2  0
 20 21  1  0
 20 22  1  0
 22 23  1  0
 23 24  2  0
 23 25  1  0
 22 26  2  0
 14 27  2  0
  9 28  1  0
 28 29  2  0
 29  7  1  0
 27 10  1  0
 26 17  1  0
M  END
>  <score>  (193) 
0.257233

$$$$
HIPS7069
     RDKit          3D

 32 35  0  0  0  0  0  0  0  0999 V2000
    4.6976    7.5985   -2.0871 O   0  0  0  0  0  0  0  0  0  0  0  0
    4.5467    6.3486   -2.0636 C   0  0  0  0  0  0  0  0  0  0  0  0
    5.1815    5.5692   -3.0301 O   0  0  0  0  0  0  0  0  0  0  0  0
    3.6285    5.7092   -1.0934 C   0  0  0  0  0  0  0  0  0  0  0  0
    2.9009    4.5797   -1.5119 C   0  0  0  0  0  0  0  0  0  0  0  0
    1.9772    3.9600   -0.6590 C   0  0  0  0  0  0  0  0  0  0  0  0
    1.2468    2.8425   -1.0642 O   0  0  0  0  0  0  0  0  0  0  0  0
    0.4164    2.8444   -2.2215 C   0  0  0  0  0  0  0  0  0  0  0  0
   -0.5416    1.6843   -2.1680 C   0  0  0  0  0  0  0  0  0  0  0  0
   -1.0484    1.2250   -0.9402 C   0  0  0  0  0  0  0  0  0  0  0  0
   -1.9632    0.1577   -0.9111 C   0  0  0  0  0  0  0  0  0  0  0  0
   -2.4495   -0.3811    0.3888 C   0  0  0  0  0  0  0  0  0  0  0  0
   -2.7275    0.4858    1.4636 C   0  0  0  0  0  0  0  0  0  0  0  0
   -3.1325   -0.0266    2.6980 C   0  0  0  0  0  0  0  0  0  0  0  0
   -3.2608   -1.4039    2.8802 C   0  0  0  0  0  0  0  0  0  0  0  0
   -2.9958   -2.2898    1.8275 C   0  0  0  0  0  0  0  0  0  0  0  0
   -3.1329   -3.6672    2.0634 O   0  0  0  0  0  0  0  0  0  0  0  0
   -2.8846   -4.6946    1.1034 C   0  0  0  0  0  0  0  0  0  0  0  0
   -1.4099   -4.8216    0.8158 C   0  0  0  0  0  0  0  0  0  0  0  0
   -0.9352   -4.7932   -0.5074 C   0  0  0  0  0  0  0  0  0  0  0  0
    0.4338   -4.9028   -0.7693 C   0  0  0  0  0  0  0  0  0  0  0  0
    1.3370   -5.0595    0.2862 C   0  0  0  0  0  0  0  0  0  0  0  0
    0.8717   -5.1083    1.6038 C   0  0  0  0  0  0  0  0  0  0  0  0
   -0.4958   -4.9943    1.8699 C   0  0  0  0  0  0  0  0  0  0  0  0
   -2.5990   -1.7687    0.5785 C   0  0  0  0  0  0  0  0  0  0  0  0
   -2.3795   -0.4050   -2.1302 C   0  0  0  0  0  0  0  0  0  0  0  0
   -1.8749    0.0968   -3.3329 C   0  0  0  0  0  0  0  0  0  0  0  0
   -0.9796    1.1200   -3.3264 N   0  0  0  0  0  0  0  0  0  0  0  0
    1.7844    4.4599    0.6319 C   0  0  0  0  0  0  0  0  0  0  0  0
    2.4892    5.5826    1.0613 C   0  0  0  0  0  0  0  0  0  0  0  0
    3.4250    6.2055    0.2254 C   0  0  0  0  0  0  0  0  0  0  0  0
    4.1374    7.2869    0.7460 O   0  0  0  0  0  0  0  0  0  0  0  0
  1  2  2  0
  2  3  1  0
  2  4  1  0
  4  5  2  0
  5  6  1  0
  6  7  1  0
  7  8  1  0
  8  9  1  0
  9 10  2  0
 10 11  1  0
 11 12  1  0
 12 13  2  0
 13 14  1  0
 14 15  2  0
 15 16  1  0
 16 17  1  0
 17 18  1  0
 18 19  1  0
 19 20  2  0
 20 21  1  0
 21 22  2  0
 22 23  1  0
 23 24  2  0
 16 25  2  0
 11 26  2  0
 26 27  1  0
 27 28  2  0
  6 29  2  0
 29 30  1  0
 30 31  2  0
 31 32  1  0
 31  4  1  0
 28  9  1  0
 25 12  1  0
 24 19  1  0
M  END
>  <score>  (194) 
0.196926

$$$$
HIPS7070
     RDKit          3D

 30 33  0  0  0  0  0  0  0  0999 V2000
    8.4636   -1.1593    0.5410 O   0  0  0  0  0  0  0  0  0  0  0  0
    7.8291   -1.7051   -0.4025 C   0  0  0  0  0  0  0  0  0  0  0  0
    8.5309   -2.1258   -1.5277 O   0  0  0  0  0  0  0  0  0  0  0  0
    6.3567   -1.8853   -0.3073 C   0  0  0  0  0  0  0  0  0  0  0  0
    5.6632   -1.3498    0.7952 C   0  0  0  0  0  0  0  0  0  0  0  0
    4.2748   -1.4841    0.9164 C   0  0  0  0  0  0  0  0  0  0  0  0
    3.6490   -0.9010    2.0291 O   0  0  0  0  0  0  0  0  0  0  0  0
    2.2401   -0.8601    2.2632 C   0  0  0  0  0  0  0  0  0  0  0  0
    1.5254    0.0414    1.2906 C   0  0  0  0  0  0  0  0  0  0  0  0
    2.1638    1.1528    0.7133 C   0  0  0  0  0  0  0  0  0  0  0  0
    1.4529    1.9863   -0.1529 C   0  0  0  0  0  0  0  0  0  0  0  0
    0.1003    1.7377   -0.4047 C   0  0  0  0  0  0  0  0  0  0  0  0
   -0.6543    2.5807   -1.2319 C   0  0  0  0  0  0  0  0  0  0  0  0
   -2.0198    2.3493   -1.4026 C   0  0  0  0  0  0  0  0  0  0  0  0
   -2.6577    1.2709   -0.7675 C   0  0  0  0  0  0  0  0  0  0  0  0
   -4.0512    1.1563   -0.9191 O   0  0  0  0  0  0  0  0  0  0  0  0
   -4.8516    0.0097   -0.6160 C   0  0  0  0  0  0  0  0  0  0  0  0
   -6.2215    0.4594   -0.1826 C   0  0  0  0  0  0  0  0  0  0  0  0
   -6.7898   -0.0245    1.0090 C   0  0  0  0  0  0  0  0  0  0  0  0
   -8.0544    0.4147    1.4161 C   0  0  0  0  0  0  0  0  0  0  0  0
   -8.7622    1.3335    0.6369 C   0  0  0  0  0  0  0  0  0  0  0  0
   -8.2123    1.8059   -0.5587 C   0  0  0  0  0  0  0  0  0  0  0  0
   -6.9503    1.3656   -0.9726 C   0  0  0  0  0  0  0  0  0  0  0  0
   -1.8851    0.3943    0.0290 C   0  0  0  0  0  0  0  0  0  0  0  0
   -0.5201    0.6328    0.2197 C   0  0  0  0  0  0  0  0  0  0  0  0
    0.2063   -0.1766    1.0394 N   0  0  0  0  0  0  0  0  0  0  0  0
    3.5634   -2.1822   -0.0756 C   0  0  0  0  0  0  0  0  0  0  0  0
    4.2355   -2.7196   -1.1740 C   0  0  0  0  0  0  0  0  0  0  0  0
    5.6246   -2.5772   -1.3010 C   0  0  0  0  0  0  0  0  0  0  0  0
    6.2691   -3.1256   -2.4098 O   0  0  0  0  0  0  0  0  0  0  0  0
  1  2  2  0
  2  3  1  0
  2  4  1  0
  4  5  2  0
  5  6  1  0
  6  7  1  0
  7  8  1  0
  8  9  1  0
  9 10  2  0
 10 11  1  0
 11 12  2  0
 12 13  1  0
 13 14  2  0
 14 15  1  0
 15 16  1  0
 16 17  1  0
 17 18  1  0
 18 19  2  0
 19 20  1  0
 20 21  2  0
 21 22  1  0
 22 23  2  0
 15 24  2  0
 24 25  1  0
 25 26  2  0
  6 27  2  0
 27 28  1  0
 28 29  2  0
 29 30  1  0
 29  4  1  0
 26  9  1  0
 25 12  1  0
 23 18  1  0
M  END
>  <score>  (195) 
0.291777

$$$$
HIPS7112
     RDKit          3D

 27 29  0  0  0  0  0  0  0  0999 V2000
    3.9670    2.8081   -5.5329 N   0  0  0  0  0  0  0  0  0  0  0  0
    3.0741    1.6978   -5.4292 C   0  0  0  0  0  0  0  0  0  0  0  0
    2.1883    1.5323   -6.3102 O   0  0  0  0  0  0  0  0  0  0  0  0
    3.1338    0.7823   -4.2710 C   0  0  0  0  0  0  0  0  0  0  0  0
    1.9390    0.4631   -3.6025 C   0  0  0  0  0  0  0  0  0  0  0  0
    1.9499   -0.3533   -2.4575 C   0  0  0  0  0  0  0  0  0  0  0  0
    0.7053   -0.6876   -1.7360 C   0  0  0  0  0  0  0  0  0  0  0  0
   -0.4415   -0.2167   -2.1246 N   0  0  0  0  0  0  0  0  0  0  0  0
   -1.6593   -0.5113   -1.4835 N   0  0  0  0  0  0  0  0  0  0  0  0
   -1.9359   -1.7694   -0.8492 C   0  0  0  0  0  0  0  0  0  0  0  0
   -1.2607   -2.7936   -1.1388 O   0  0  0  0  0  0  0  0  0  0  0  0
   -3.0776   -1.8875    0.1140 C   0  0  0  0  0  0  0  0  0  0  0  0
   -3.0897   -0.7818    1.0172 O   0  0  0  0  0  0  0  0  0  0  0  0
   -2.1174   -0.5189    2.0007 C   0  0  0  0  0  0  0  0  0  0  0  0
   -1.0687   -1.4219    2.2677 C   0  0  0  0  0  0  0  0  0  0  0  0
   -0.1126   -1.1334    3.2426 C   0  0  0  0  0  0  0  0  0  0  0  0
   -0.1838    0.0533    3.9708 C   0  0  0  0  0  0  0  0  0  0  0  0
   -1.2186    0.9666    3.7290 C   0  0  0  0  0  0  0  0  0  0  0  0
   -1.2931    2.1621    4.4609 C   0  0  0  0  0  0  0  0  0  0  0  0
   -2.3237    3.0723    4.2169 C   0  0  0  0  0  0  0  0  0  0  0  0
   -3.2858    2.7988    3.2432 C   0  0  0  0  0  0  0  0  0  0  0  0
   -3.2252    1.6129    2.5065 C   0  0  0  0  0  0  0  0  0  0  0  0
   -2.1946    0.6821    2.7388 C   0  0  0  0  0  0  0  0  0  0  0  0
    3.1710   -0.8539   -1.9871 C   0  0  0  0  0  0  0  0  0  0  0  0
    4.3597   -0.5613   -2.6572 C   0  0  0  0  0  0  0  0  0  0  0  0
    4.3528    0.2349   -3.8069 C   0  0  0  0  0  0  0  0  0  0  0  0
    5.5617    0.4299   -4.4780 O   0  0  0  0  0  0  0  0  0  0  0  0
  1  2  1  0
  2  3  2  0
  2  4  1  0
  4  5  2  0
  5  6  1  0
  6  7  1  0
  7  8  2  0
  8  9  1  0
  9 10  1  0
 10 11  2  0
 10 12  1  0
 12 13  1  0
 13 14  1  0
 14 15  2  0
 15 16  1  0
 16 17  2  0
 17 18  1  0
 18 19  2  0
 19 20  1  0
 20 21  2  0
 21 22  1  0
 22 23  2  0
  6 24  2  0
 24 25  1  0
 25 26  2  0
 26 27  1  0
 26  4  1  0
 23 14  1  0
 23 18  1  0
M  END
>  <score>  (196) 
0.323222

$$$$
HIPS7113
     RDKit          3D

 17 18  0  0  0  0  0  0  0  0999 V2000
    0.0527   -2.9648   -5.6217 C   0  0  0  0  0  0  0  0  0  0  0  0
    0.2340   -2.2683   -4.3145 C   0  0  0  0  0  0  0  0  0  0  0  0
    1.4651   -2.2054   -3.7422 N   0  0  0  0  0  0  0  0  0  0  0  0
    1.6606   -1.5471   -2.5704 C   0  0  0  0  0  0  0  0  0  0  0  0
    0.5850   -0.9082   -1.9356 C   0  0  0  0  0  0  0  0  0  0  0  0
    0.7463   -0.1810   -0.6617 C   0  0  0  0  0  0  0  0  0  0  0  0
    1.9083   -0.0882   -0.0885 N   0  0  0  0  0  0  0  0  0  0  0  0
    2.1234    0.5770    1.1335 N   0  0  0  0  0  0  0  0  0  0  0  0
    1.1621    0.5960    2.2025 C   0  0  0  0  0  0  0  0  0  0  0  0
    0.2172   -0.2381    2.2172 O   0  0  0  0  0  0  0  0  0  0  0  0
    1.2885    1.5541    3.3144 C   0  0  0  0  0  0  0  0  0  0  0  0
    2.1956    2.6056    3.4097 C   0  0  0  0  0  0  0  0  0  0  0  0
    2.0557    3.3520    4.5864 C   0  0  0  0  0  0  0  0  0  0  0  0
    1.0414    2.8989    5.4191 C   0  0  0  0  0  0  0  0  0  0  0  0
    0.3173    1.5693    4.6891 S   0  0  0  0  0  0  0  0  0  0  0  0
   -0.6701   -0.9754   -2.5518 C   0  0  0  0  0  0  0  0  0  0  0  0
   -0.8194   -1.6450   -3.7239 N   0  0  0  0  0  0  0  0  0  0  0  0
  1  2  1  0
  2  3  2  0
  3  4  1  0
  4  5  2  0
  5  6  1  0
  6  7  2  0
  7  8  1  0
  8  9  1  0
  9 10  2  0
  9 11  1  0
 11 12  2  0
 12 13  1  0
 13 14  2  0
 14 15  1  0
  5 16  1  0
 16 17  2  0
 17  2  1  0
 15 11  1  0
M  END
>  <score>  (197) 
0.965735

$$$$
HIPS7114
     RDKit          3D

 21 22  0  0  0  0  0  0  0  0999 V2000
   -0.9349    0.4158   -0.2285 O   0  0  0  0  0  0  0  0  0  0  0  0
   -0.9987    0.1266    0.9879 C   0  0  0  0  0  0  0  0  0  0  0  0
   -2.2931   -0.1112    1.6260 C   0  0  0  0  0  0  0  0  0  0  0  0
   -3.4789    0.0334    0.7634 C   0  0  2  0  0  0  0  0  0  0  0  0
   -3.5377   -0.8688   -0.4227 C   0  0  0  0  0  0  0  0  0  0  0  0
   -4.9892   -0.7161   -0.8975 C   0  0  0  0  0  0  0  0  0  0  0  0
   -5.1573    1.0754   -0.7943 S   0  0  0  0  0  6  0  0  0  0  0  0
   -6.3612    1.4255    0.0090 O   0  0  0  0  0  0  0  0  0  0  0  0
   -5.1051    1.7108   -2.1261 O   0  0  0  0  0  0  0  0  0  0  0  0
   -3.6707    1.4115    0.1686 C   0  0  0  0  0  0  0  0  0  0  0  0
    0.1987    0.0334    1.7358 N   0  0  0  0  0  0  0  0  0  0  0  0
    1.4663    0.2419    1.2152 N   0  0  0  0  0  0  0  0  0  0  0  0
    2.2482   -0.7186    0.9399 C   0  0  0  0  0  0  0  0  0  0  0  0
    3.5665   -0.4314    0.3955 C   0  0  0  0  0  0  0  0  0  0  0  0
    4.4194   -1.4728    0.0948 C   0  0  0  0  0  0  0  0  0  0  0  0
    5.6808   -1.2049   -0.4257 C   0  0  0  0  0  0  0  0  0  0  0  0
    6.0889    0.1075   -0.6456 C   0  0  0  0  0  0  0  0  0  0  0  0
    7.3673    0.3662   -1.1726 O   0  0  0  0  0  0  0  0  0  0  0  0
    5.2170    1.1085   -0.3355 C   0  0  0  0  0  0  0  0  0  0  0  0
    3.9676    0.8614    0.1793 C   0  0  0  0  0  0  0  0  0  0  0  0
    3.0849    1.8469    0.4943 F   0  0  0  0  0  0  0  0  0  0  0  0
  1  2  2  0
  2  3  1  0
  4  3  1  6
  4  5  1  0
  5  6  1  0
  6  7  1  0
  7  8  2  0
  7  9  2  0
  7 10  1  0
  2 11  1  0
 11 12  1  0
 12 13  2  0
 13 14  1  0
 14 15  2  0
 15 16  1  0
 16 17  2  0
 17 18  1  0
 17 19  1  0
 19 20  2  0
 20 21  1  0
 10  4  1  0
 20 14  1  0
M  END
>  <score>  (198) 
1.059752

$$$$
HIPS7115
     RDKit          3D

 37 41  0  0  0  0  0  0  0  0999 V2000
   -1.0806    1.9623    1.9082 O   0  0  0  0  0  0  0  0  0  0  0  0
   -2.2240    2.4842    1.8105 C   0  0  0  0  0  0  0  0  0  0  0  0
   -2.4179    3.7871    2.2619 O   0  0  0  0  0  0  0  0  0  0  0  0
   -3.3548    1.6884    1.2804 C   0  0  0  0  0  0  0  0  0  0  0  0
   -3.3688    0.3019    1.5183 C   0  0  0  0  0  0  0  0  0  0  0  0
   -4.4396   -0.4985    1.0778 C   0  0  0  0  0  0  0  0  0  0  0  0
   -4.4713   -1.8901    1.2644 O   0  0  0  0  0  0  0  0  0  0  0  0
   -3.3979   -2.6769    1.7842 C   0  0  0  0  0  0  0  0  0  0  0  0
   -2.2183   -2.6622    0.8476 C   0  0  0  0  0  0  0  0  0  0  0  0
   -0.9313   -2.3626    1.3081 C   0  0  0  0  0  0  0  0  0  0  0  0
    0.1090   -2.3246    0.4373 N   0  0  0  0  0  0  0  0  0  0  0  0
   -0.0640   -2.5866   -0.8871 C   0  0  0  0  0  0  0  0  0  0  0  0
    1.0855   -2.5080   -1.8231 C   0  0  0  0  0  0  0  0  0  0  0  0
    0.9018   -2.7113   -3.2011 C   0  0  0  0  0  0  0  0  0  0  0  0
    1.9801   -2.6145   -4.0826 C   0  0  0  0  0  0  0  0  0  0  0  0
    3.2527   -2.3052   -3.6025 C   0  0  0  0  0  0  0  0  0  0  0  0
    3.4644   -2.0898   -2.2329 C   0  0  0  0  0  0  0  0  0  0  0  0
    4.7840   -1.7408   -1.7760 N   0  0  0  0  0  0  0  0  0  0  0  0
    5.1572   -1.2504   -0.1533 S   0  0  0  0  0  6  0  0  0  0  0  0
    6.5869   -0.7926   -0.0939 O   0  0  0  0  0  0  0  0  0  0  0  0
    4.9794   -2.4278    0.7639 O   0  0  0  0  0  0  0  0  0  0  0  0
    4.1183    0.0809    0.3466 C   0  0  0  0  0  0  0  0  0  0  0  0
    3.7663    0.2303    1.7070 C   0  0  0  0  0  0  0  0  0  0  0  0
    2.9277    1.2805    2.1177 C   0  0  0  0  0  0  0  0  0  0  0  0
    2.4498    2.1717    1.1571 C   0  0  0  0  0  0  0  0  0  0  0  0
    1.6351    3.2236    1.4251 N   0  0  0  0  0  0  0  0  0  0  0  0
    1.3297    3.9081    0.2956 C   0  0  0  0  0  0  0  0  0  0  0  0
    2.0660    3.2309   -1.0708 S   0  0  0  0  0  0  0  0  0  0  0  0
    2.7995    2.0195   -0.1729 C   0  0  0  0  0  0  0  0  0  0  0  0
    3.6327    0.9933   -0.6084 C   0  0  0  0  0  0  0  0  0  0  0  0
    2.3765   -2.2103   -1.3464 C   0  0  0  0  0  0  0  0  0  0  0  0
   -1.3063   -2.9018   -1.3460 N   0  0  0  0  0  0  0  0  0  0  0  0
   -2.3765   -2.9512   -0.5121 C   0  0  0  0  0  0  0  0  0  0  0  0
   -5.5173    0.1047    0.4272 C   0  0  0  0  0  0  0  0  0  0  0  0
   -5.5144    1.4772    0.1776 C   0  0  0  0  0  0  0  0  0  0  0  0
   -4.4314    2.2728    0.5690 C   0  0  0  0  0  0  0  0  0  0  0  0
   -4.4480    3.6200    0.2013 O   0  0  0  0  0  0  0  0  0  0  0  0
  1  2  2  0
  2  3  1  0
  2  4  1  0
  4  5  2  0
  5  6  1  0
  6  7  1  0
  7  8  1  0
  8  9  1  0
  9 10  2  0
 10 11  1  0
 11 12  2  0
 12 13  1  0
 13 14  2  0
 14 15  1  0
 15 16  2  0
 16 17  1  0
 17 18  1  0
 18 19  1  0
 19 20  2  0
 19 21  2  0
 19 22  1  0
 22 23  2  0
 23 24  1  0
 24 25  2  0
 25 26  1  0
 26 27  2  0
 27 28  1  0
 28 29  1  0
 29 30  2  0
 17 31  2  0
 12 32  1  0
 32 33  2  0
  6 34  2  0
 34 35  1  0
 35 36  2  0
 36 37  1  0
 36  4  1  0
 33  9  1  0
 31 13  1  0
 30 22  1  0
 29 25  1  0
M  END
>  <score>  (199) 
0.672715

$$$$
HIPS7116
     RDKit          3D

 34 37  0  0  0  0  0  0  0  0999 V2000
   -7.6198   -0.4565    1.8302 C   0  0  0  0  0  0  0  0  0  0  0  0
   -7.3304    0.1280    0.4872 C   0  0  0  0  0  0  0  0  0  0  0  0
   -8.2217   -0.5198   -0.5529 C   0  0  0  0  0  0  0  0  0  0  0  0
   -7.6555    1.6069    0.4837 C   0  0  0  0  0  0  0  0  0  0  0  0
   -5.9854   -0.0996    0.0635 O   0  0  0  0  0  0  0  0  0  0  0  0
   -4.8861    0.3453    0.7521 C   0  0  0  0  0  0  0  0  0  0  0  0
   -5.0977    0.9901    1.8178 O   0  0  0  0  0  0  0  0  0  0  0  0
   -3.5458    0.1240    0.3390 N   0  0  0  0  0  0  0  0  0  0  0  0
   -2.3428    0.5671    1.0204 C   0  0  0  0  0  0  0  0  0  0  0  0
   -1.4574    0.9274   -0.1480 C   0  0  1  0  0  0  0  0  0  0  0  0
   -0.0227    0.9166    0.2118 C   0  0  0  0  0  0  0  0  0  0  0  0
    0.5055    0.2110    1.2113 N   0  0  0  0  0  0  0  0  0  0  0  0
    1.8384    0.2341    1.5047 C   0  0  0  0  0  0  0  0  0  0  0  0
    2.6883    1.0135    0.7467 C   0  0  0  0  0  0  0  0  0  0  0  0
    4.1511    1.0998    0.9932 C   0  0  0  0  0  0  0  0  0  0  0  0
    4.8633    0.1379    0.2772 O   0  0  0  0  0  0  0  0  0  0  0  0
    6.2531    0.0982    0.4100 C   0  0  0  0  0  0  0  0  0  0  0  0
    6.9078    0.9774    1.2203 C   0  0  0  0  0  0  0  0  0  0  0  0
    8.2659    0.9321    1.3446 C   0  0  0  0  0  0  0  0  0  0  0  0
    8.9655   -0.0105    0.6432 C   0  0  0  0  0  0  0  0  0  0  0  0
   10.3675   -0.0812    0.7516 O   0  0  0  0  0  0  0  0  0  0  0  0
    8.3162   -0.9062   -0.1802 C   0  0  0  0  0  0  0  0  0  0  0  0
    9.1014   -1.9148   -0.9264 C   0  0  0  0  0  0  0  0  0  0  0  0
   10.3409   -1.9141   -0.7779 O   0  0  0  0  0  0  0  0  0  0  0  0
    8.4774   -2.8279   -1.7613 O   0  0  0  0  0  0  0  0  0  0  0  0
    6.9577   -0.8423   -0.2891 C   0  0  0  0  0  0  0  0  0  0  0  0
    2.1352    1.7410   -0.2859 C   0  0  0  0  0  0  0  0  0  0  0  0
    0.8023    1.6762   -0.5278 N   0  0  0  0  0  0  0  0  0  0  0  0
   -1.8032   -0.1172   -1.1349 C   0  0  0  0  0  0  0  0  0  0  0  0
   -1.1338   -0.6500   -2.2172 C   0  0  0  0  0  0  0  0  0  0  0  0
   -1.7352   -1.6345   -2.9726 C   0  0  0  0  0  0  0  0  0  0  0  0
   -3.0059   -2.0809   -2.6396 C   0  0  0  0  0  0  0  0  0  0  0  0
   -3.6941   -1.5585   -1.5567 C   0  0  0  0  0  0  0  0  0  0  0  0
   -3.0668   -0.5631   -0.8057 C   0  0  0  0  0  0  0  0  0  0  0  0
  1  2  1  0
  2  3  1  0
  2  4  1  0
  2  5  1  0
  5  6  1  0
  6  7  2  0
  6  8  1  0
  8  9  1  0
  9 10  1  0
 10 11  1  1
 11 12  2  0
 12 13  1  0
 13 14  2  0
 14 15  1  0
 15 16  1  0
 16 17  1  0
 17 18  2  0
 18 19  1  0
 19 20  2  0
 20 21  1  0
 20 22  1  0
 22 23  1  0
 23 24  2  0
 23 25  1  0
 22 26  2  0
 14 27  1  0
 27 28  2  0
 10 29  1  0
 29 30  2  0
 30 31  1  0
 31 32  2  0
 32 33  1  0
 33 34  2  0
 34  8  1  0
 28 11  1  0
 34 29  1  0
 26 17  1  0
M  END
>  <score>  (200) 
-0.60376

$$$$
HIPS7118
     RDKit          3D

 31 33  0  0  0  0  0  0  0  0999 V2000
    7.9341   -0.8440    0.8433 C   0  0  0  0  0  0  0  0  0  0  0  0
    7.3515   -0.5693   -0.5179 C   0  0  0  0  0  0  0  0  0  0  0  0
    7.8723    0.7518   -1.0377 C   0  0  0  0  0  0  0  0  0  0  0  0
    7.8713   -1.6444   -1.4562 C   0  0  0  0  0  0  0  0  0  0  0  0
    5.9585   -0.6534   -0.5099 O   0  0  0  0  0  0  0  0  0  0  0  0
    5.1884    0.1781    0.3054 C   0  0  0  0  0  0  0  0  0  0  0  0
    5.8325    0.9944    1.0196 O   0  0  0  0  0  0  0  0  0  0  0  0
    3.7774    0.1182    0.3369 N   0  0  0  0  0  0  0  0  0  0  0  0
    3.0541   -0.8111   -0.4769 C   0  0  0  0  0  0  0  0  0  0  0  0
    2.1018    0.0074   -1.3575 C   0  0  0  0  0  0  0  0  0  0  0  0
    1.3744    0.8794   -0.4787 N   0  0  0  0  0  0  0  0  0  0  0  0
   -0.0356    0.8264   -0.4434 C   0  0  0  0  0  0  0  0  0  0  0  0
   -0.7746    1.6179    0.3592 N   0  0  0  0  0  0  0  0  0  0  0  0
   -2.1185    1.5783    0.4033 C   0  0  0  0  0  0  0  0  0  0  0  0
   -2.8185    0.6963   -0.3983 C   0  0  0  0  0  0  0  0  0  0  0  0
   -4.3016    0.6079   -0.3923 C   0  0  0  0  0  0  0  0  0  0  0  0
   -4.6856   -0.3357    0.5674 O   0  0  0  0  0  0  0  0  0  0  0  0
   -6.0441   -0.5797    0.7428 C   0  0  0  0  0  0  0  0  0  0  0  0
   -6.4334   -1.5144    1.6930 C   0  0  0  0  0  0  0  0  0  0  0  0
   -7.7598   -1.7867    1.8996 C   0  0  0  0  0  0  0  0  0  0  0  0
   -8.7357   -1.1294    1.1591 C   0  0  0  0  0  0  0  0  0  0  0  0
  -10.0838   -1.4008    1.3635 O   0  0  0  0  0  0  0  0  0  0  0  0
   -8.3800   -0.2005    0.2130 C   0  0  0  0  0  0  0  0  0  0  0  0
   -9.3986    0.4791   -0.5531 C   0  0  0  0  0  0  0  0  0  0  0  0
  -10.6016    0.2215   -0.3546 O   0  0  0  0  0  0  0  0  0  0  0  0
   -9.0557    1.4128   -1.5050 O   0  0  0  0  0  0  0  0  0  0  0  0
   -7.0311    0.0496    0.0308 C   0  0  0  0  0  0  0  0  0  0  0  0
   -2.0662   -0.1161   -1.2217 C   0  0  0  0  0  0  0  0  0  0  0  0
   -0.7224   -0.0396   -1.2304 N   0  0  0  0  0  0  0  0  0  0  0  0
    2.0827    1.8021    0.3610 C   0  0  0  0  0  0  0  0  0  0  0  0
    3.0600    1.0159    1.2102 C   0  0  0  0  0  0  0  0  0  0  0  0
  1  2  1  0
  2  3  1  0
  2  4  1  0
  2  5  1  0
  5  6  1  0
  6  7  2  0
  6  8  1  0
  8  9  1  0
  9 10  1  0
 10 11  1  0
 11 12  1  0
 12 13  2  0
 13 14  1  0
 14 15  2  0
 15 16  1  0
 16 17  1  0
 17 18  1  0
 18 19  2  0
 19 20  1  0
 20 21  2  0
 21 22  1  0
 21 23  1  0
 23 24  1  0
 24 25  2  0
 24 26  1  0
 23 27  2  0
 15 28  1  0
 28 29  2  0
 11 30  1  0
 30 31  1  0
 31  8  1  0
 29 12  1  0
 27 18  1  0
M  END
>  <score>  (201) 
1.268036

$$$$
HIPS7123
     RDKit          3D

 27 29  0  0  0  0  0  0  0  0999 V2000
   -1.1852    2.2976    4.0198 C   0  0  0  0  0  0  0  0  0  0  0  0
    0.0478    1.3746    3.9811 C   0  0  0  0  0  0  0  0  0  0  0  0
    0.9811    1.7369    5.1549 C   0  0  0  0  0  0  0  0  0  0  0  0
   -0.3989   -0.0918    4.1283 C   0  0  0  0  0  0  0  0  0  0  0  0
    0.7672    1.5480    2.6560 C   0  0  0  0  0  0  0  0  0  0  0  0
    0.2355    1.3617    1.3949 C   0  0  0  0  0  0  0  0  0  0  0  0
    1.2331    1.5962    0.5197 N   0  0  0  0  0  0  0  0  0  0  0  0
    1.1865    1.5193   -0.9197 C   0  0  0  0  0  0  0  0  0  0  0  0
    2.3783    1.5698   -1.6645 C   0  0  0  0  0  0  0  0  0  0  0  0
    2.3484    1.4958   -3.0588 C   0  0  0  0  0  0  0  0  0  0  0  0
    1.1314    1.3689   -3.7294 C   0  0  0  0  0  0  0  0  0  0  0  0
   -0.0693    1.3089   -3.0073 C   0  0  0  0  0  0  0  0  0  0  0  0
   -1.3868    1.1835   -3.7276 C   0  0  0  0  0  0  0  0  0  0  0  0
   -2.1886    0.1523   -3.1492 O   0  0  0  0  0  0  0  0  0  0  0  0
   -1.9056   -1.2227   -3.1998 C   0  0  0  0  0  0  0  0  0  0  0  0
   -2.7307   -2.0906   -2.4818 C   0  0  0  0  0  0  0  0  0  0  0  0
   -2.4903   -3.4641   -2.4878 C   0  0  0  0  0  0  0  0  0  0  0  0
   -1.4174   -3.9956   -3.2157 C   0  0  0  0  0  0  0  0  0  0  0  0
   -1.1973   -5.3731   -3.2005 O   0  0  0  0  0  0  0  0  0  0  0  0
   -0.5726   -3.1352   -3.9543 C   0  0  0  0  0  0  0  0  0  0  0  0
    0.5780   -3.6502   -4.7411 C   0  0  0  0  0  0  0  0  0  0  0  0
    0.8250   -4.8849   -4.7954 O   0  0  0  0  0  0  0  0  0  0  0  0
    1.4033   -2.7664   -5.4327 O   0  0  0  0  0  0  0  0  0  0  0  0
   -0.8311   -1.7509   -3.9403 C   0  0  0  0  0  0  0  0  0  0  0  0
   -0.0381    1.3998   -1.6060 C   0  0  0  0  0  0  0  0  0  0  0  0
    2.3198    1.9026    1.2130 N   0  0  0  0  0  0  0  0  0  0  0  0
    2.0673    1.8807    2.5133 N   0  0  0  0  0  0  0  0  0  0  0  0
  1  2  1  0
  2  3  1  0
  2  4  1  0
  2  5  1  0
  5  6  2  0
  6  7  1  0
  7  8  1  0
  8  9  2  0
  9 10  1  0
 10 11  2  0
 11 12  1  0
 12 13  1  0
 13 14  1  0
 14 15  1  0
 15 16  2  0
 16 17  1  0
 17 18  2  0
 18 19  1  0
 18 20  1  0
 20 21  1  0
 21 22  2  0
 21 23  1  0
 20 24  2  0
 12 25  2  0
  7 26  1  0
 26 27  2  0
 27  5  1  0
 25  8  1  0
 24 15  1  0
M  END
>  <score>  (202) 
0.324942

$$$$
HIPS7124
     RDKit          3D

 29 32  0  0  0  0  0  0  0  0999 V2000
    5.0269    3.4214   -0.8548 O   0  0  0  0  0  0  0  0  0  0  0  0
    4.4251    2.3188   -0.8318 C   0  0  0  0  0  0  0  0  0  0  0  0
    3.0680    2.3221   -1.1119 O   0  0  0  0  0  0  0  0  0  0  0  0
    5.1220    1.0776   -0.5227 C   0  0  0  0  0  0  0  0  0  0  0  0
    4.4249   -0.1341   -0.5048 C   0  0  0  0  0  0  0  0  0  0  0  0
    4.9796   -1.3469   -0.2283 C   0  0  0  0  0  0  0  0  0  0  0  0
    4.3344   -2.5344   -0.2010 O   0  0  0  0  0  0  0  0  0  0  0  0
    3.0832   -2.9814   -0.3866 C   0  0  0  0  0  0  0  0  0  0  0  0
    2.0039   -2.5185    0.5015 C   0  0  0  0  0  0  0  0  0  0  0  0
    1.7771   -3.0858    1.7481 C   0  0  0  0  0  0  0  0  0  0  0  0
    0.7398   -2.6554    2.5428 C   0  0  0  0  0  0  0  0  0  0  0  0
   -0.1150   -1.6452    2.1345 C   0  0  0  0  0  0  0  0  0  0  0  0
    0.0938   -1.0699    0.9001 C   0  0  0  0  0  0  0  0  0  0  0  0
   -0.7504   -0.0288    0.4262 N   0  0  0  0  0  0  0  0  0  0  0  0
   -2.0996   -0.1389    0.3171 C   0  0  0  0  0  0  0  0  0  0  0  0
   -2.6132    1.0427   -0.1716 C   0  0  0  0  0  0  0  0  0  0  0  0
   -4.0516    1.2992   -0.4246 C   0  0  0  0  0  0  0  0  0  0  0  0
   -4.6396    0.2943   -1.3902 C   0  0  0  0  0  0  0  0  0  0  0  0
   -6.1317    0.3578   -1.3466 C   0  0  0  0  0  0  0  0  0  0  0  0
   -6.6374    1.6384   -0.7326 C   0  0  0  0  0  0  0  0  0  0  0  0
   -6.2106    1.7967    0.6982 C   0  0  0  0  0  0  0  0  0  0  0  0
   -4.8469    1.2045    0.8729 C   0  0  0  0  0  0  0  0  0  0  0  0
   -1.5484    1.8455   -0.3472 N   0  0  0  0  0  0  0  0  0  0  0  0
   -0.4563    1.1779    0.0177 N   0  0  0  0  0  0  0  0  0  0  0  0
    1.1542   -1.5204    0.1043 C   0  0  0  0  0  0  0  0  0  0  0  0
    6.3721   -1.3223    0.0551 C   0  0  0  0  0  0  0  0  0  0  0  0
    7.0919   -0.1637    0.0487 C   0  0  0  0  0  0  0  0  0  0  0  0
    6.4684    1.0450   -0.2409 C   0  0  0  0  0  0  0  0  0  0  0  0
    7.2326    2.2015   -0.2377 O   0  0  0  0  0  0  0  0  0  0  0  0
  1  2  2  0
  2  3  1  0
  2  4  1  0
  4  5  2  0
  5  6  1  0
  6  7  1  0
  7  8  1  0
  8  9  1  0
  9 10  2  0
 10 11  1  0
 11 12  2  0
 12 13  1  0
 13 14  1  0
 14 15  1  0
 15 16  2  0
 16 17  1  0
 17 18  1  0
 18 19  1  0
 19 20  1  0
 20 21  1  0
 21 22  1  0
 16 23  1  0
 23 24  2  0
 13 25  2  0
  6 26  2  0
 26 27  1  0
 27 28  2  0
 28 29  1  0
 28  4  1  0
 25  9  1  0
 24 14  1  0
 22 17  1  0
M  END
>  <score>  (203) 
0.080021

$$$$
HIPS7125
     RDKit          3D

 28 31  0  0  0  0  0  0  0  0999 V2000
    6.4473   -0.8102   -3.0711 O   0  0  0  0  0  0  0  0  0  0  0  0
    6.9958    0.0800   -2.3752 C   0  0  0  0  0  0  0  0  0  0  0  0
    8.2117    0.5957   -2.7882 O   0  0  0  0  0  0  0  0  0  0  0  0
    6.3507    0.5519   -1.1561 C   0  0  0  0  0  0  0  0  0  0  0  0
    5.1391    0.0201   -0.7689 C   0  0  0  0  0  0  0  0  0  0  0  0
    4.4801    0.4303    0.3801 C   0  0  0  0  0  0  0  0  0  0  0  0
    3.2617   -0.1072    0.7659 O   0  0  0  0  0  0  0  0  0  0  0  0
    2.6062   -1.1013    0.0279 C   0  0  0  0  0  0  0  0  0  0  0  0
    1.3354   -1.4683    0.6904 C   0  0  0  0  0  0  0  0  0  0  0  0
    1.3009   -2.4821    1.6307 C   0  0  0  0  0  0  0  0  0  0  0  0
    0.1233   -2.8353    2.2564 C   0  0  0  0  0  0  0  0  0  0  0  0
   -1.0371   -2.1406    1.9150 C   0  0  0  0  0  0  0  0  0  0  0  0
   -1.0247   -1.1288    0.9822 C   0  0  0  0  0  0  0  0  0  0  0  0
   -2.2520   -0.4734    0.6940 N   0  0  0  0  0  0  0  0  0  0  0  0
   -3.3347   -1.0583    0.1049 C   0  0  0  0  0  0  0  0  0  0  0  0
   -4.3427   -0.1241   -0.0177 C   0  0  0  0  0  0  0  0  0  0  0  0
   -5.7073   -0.3320   -0.6079 C   0  0  0  0  0  0  0  0  0  0  0  0
   -5.9514    0.6883   -1.6760 C   0  0  0  0  0  0  0  0  0  0  0  0
   -6.5952    1.8597   -0.9938 C   0  0  0  0  0  0  0  0  0  0  0  0
   -6.7770    1.4852    0.4506 C   0  0  0  0  0  0  0  0  0  0  0  0
   -6.7734   -0.0111    0.4305 C   0  0  0  0  0  0  0  0  0  0  0  0
   -3.8401    1.0091    0.5039 N   0  0  0  0  0  0  0  0  0  0  0  0
   -2.6027    0.7695    0.9157 N   0  0  0  0  0  0  0  0  0  0  0  0
    0.1605   -0.7928    0.3703 C   0  0  0  0  0  0  0  0  0  0  0  0
    5.0777    1.4076    1.1482 C   0  0  0  0  0  0  0  0  0  0  0  0
    6.2986    1.9670    0.7896 C   0  0  0  0  0  0  0  0  0  0  0  0
    6.9207    1.5281   -0.3645 C   0  0  0  0  0  0  0  0  0  0  0  0
    8.1454    2.0372   -0.7941 O   0  0  0  0  0  0  0  0  0  0  0  0
  1  2  2  0
  2  3  1  0
  2  4  1  0
  4  5  2  0
  5  6  1  0
  6  7  1  0
  7  8  1  0
  8  9  1  0
  9 10  2  0
 10 11  1  0
 11 12  2  0
 12 13  1  0
 13 14  1  0
 14 15  1  0
 15 16  2  0
 16 17  1  0
 17 18  1  0
 18 19  1  0
 19 20  1  0
 20 21  1  0
 16 22  1  0
 22 23  2  0
 13 24  2  0
  6 25  2  0
 25 26  1  0
 26 27  2  0
 27 28  1  0
 27  4  1  0
 24  9  1  0
 23 14  1  0
 21 17  1  0
M  END
>  <score>  (204) 
0.312708

$$$$
HIPS7126
     RDKit          3D

 37 41  0  0  0  0  0  0  0  0999 V2000
   -3.4406    4.2686   -3.7526 C   0  0  0  0  0  0  0  0  0  0  0  0
   -2.2471    4.5022   -2.8049 C   0  0  0  0  0  0  0  0  0  0  0  0
   -1.1964    5.3786   -3.5077 C   0  0  0  0  0  0  0  0  0  0  0  0
   -2.7489    5.2302   -1.5392 C   0  0  0  0  0  0  0  0  0  0  0  0
   -1.6186    3.1609   -2.4588 C   0  0  0  0  0  0  0  0  0  0  0  0
   -1.2046    2.7068   -1.2183 C   0  0  0  0  0  0  0  0  0  0  0  0
   -0.6314    1.5020   -1.4286 N   0  0  0  0  0  0  0  0  0  0  0  0
   -0.0828    0.6154   -0.4389 C   0  0  0  0  0  0  0  0  0  0  0  0
   -0.0320   -0.7656   -0.6823 C   0  0  0  0  0  0  0  0  0  0  0  0
    0.4869   -1.6425    0.2806 C   0  0  0  0  0  0  0  0  0  0  0  0
    0.5054   -3.1208    0.0169 C   0  0  0  0  0  0  0  0  0  0  0  0
   -0.7735   -3.6720    0.3243 O   0  0  0  0  0  0  0  0  0  0  0  0
   -1.0905   -5.0370    0.2380 C   0  0  0  0  0  0  0  0  0  0  0  0
   -2.3733   -5.4447    0.6102 C   0  0  0  0  0  0  0  0  0  0  0  0
   -2.7271   -6.7937    0.5706 C   0  0  0  0  0  0  0  0  0  0  0  0
   -1.8033   -7.7598    0.1581 C   0  0  0  0  0  0  0  0  0  0  0  0
   -2.1912   -9.1000    0.2205 O   0  0  0  0  0  0  0  0  0  0  0  0
   -0.5159   -7.3586   -0.2740 C   0  0  0  0  0  0  0  0  0  0  0  0
    0.4693   -8.3094   -0.8356 C   0  0  0  0  0  0  0  0  0  0  0  0
    0.0873   -9.2892   -1.5330 O   0  0  0  0  0  0  0  0  0  0  0  0
    1.8320   -8.0930   -0.6419 O   0  0  0  0  0  0  0  0  0  0  0  0
   -0.1666   -5.9980   -0.2120 C   0  0  0  0  0  0  0  0  0  0  0  0
    0.9373   -1.1339    1.5074 C   0  0  0  0  0  0  0  0  0  0  0  0
    0.9003    0.2451    1.7626 C   0  0  0  0  0  0  0  0  0  0  0  0
    1.4296    0.7811    3.0402 C   0  0  0  0  0  0  0  0  0  0  0  0
    2.7572    0.4867    3.3888 C   0  0  0  0  0  0  0  0  0  0  0  0
    3.3036    0.9938    4.5231 N   0  0  0  0  0  0  0  0  0  0  0  0
    2.6032    1.7941    5.3667 C   0  0  0  0  0  0  0  0  0  0  0  0
    1.2716    2.1186    5.0839 C   0  0  0  0  0  0  0  0  0  0  0  0
    0.5391    2.9356    5.9602 C   0  0  0  0  0  0  0  0  0  0  0  0
   -0.7982    3.2274    5.6922 C   0  0  0  0  0  0  0  0  0  0  0  0
   -1.4152    2.7052    4.5551 C   0  0  0  0  0  0  0  0  0  0  0  0
   -0.6982    1.8863    3.6746 C   0  0  0  0  0  0  0  0  0  0  0  0
    0.6625    1.5983    3.9126 C   0  0  0  0  0  0  0  0  0  0  0  0
    0.4080    1.1151    0.7777 C   0  0  0  0  0  0  0  0  0  0  0  0
   -0.6789    1.2383   -2.7242 N   0  0  0  0  0  0  0  0  0  0  0  0
   -1.2586    2.2360   -3.3767 N   0  0  0  0  0  0  0  0  0  0  0  0
  1  2  1  0
  2  3  1  0
  2  4  1  0
  2  5  1  0
  5  6  2  0
  6  7  1  0
  7  8  1  0
  8  9  2  0
  9 10  1  0
 10 11  1  0
 11 12  1  0
 12 13  1  0
 13 14  2  0
 14 15  1  0
 15 16  2  0
 16 17  1  0
 16 18  1  0
 18 19  1  0
 19 20  2  0
 19 21  1  0
 18 22  2  0
 10 23  2  0
 23 24  1  0
 24 25  1  0
 25 26  2  0
 26 27  1  0
 27 28  2  0
 28 29  1  0
 29 30  2  0
 30 31  1  0
 31 32  2  0
 32 33  1  0
 33 34  2  0
 24 35  2  0
  7 36  1  0
 36 37  2  0
 37  5  1  0
 35  8  1  0
 22 13  1  0
 34 25  1  0
 34 29  1  0
M  END
>  <score>  (205) 
-0.481383

$$$$
HIPS7127
     RDKit          3D

 38 43  0  0  0  0  0  0  0  0999 V2000
    7.9641   -3.7035    1.5618 O   0  0  0  0  0  0  0  0  0  0  0  0
    6.9314   -3.0042    1.6256 C   0  0  0  0  0  0  0  0  0  0  0  0
    6.6239   -2.3529    2.8192 O   0  0  0  0  0  0  0  0  0  0  0  0
    6.0193   -2.8331    0.4985 C   0  0  0  0  0  0  0  0  0  0  0  0
    4.8855   -2.0608    0.5808 C   0  0  0  0  0  0  0  0  0  0  0  0
    4.0146   -1.8858   -0.4648 C   0  0  0  0  0  0  0  0  0  0  0  0
    2.8715   -1.1084   -0.3852 O   0  0  0  0  0  0  0  0  0  0  0  0
    2.0012   -0.9557   -1.4887 C   0  0  0  0  0  0  0  0  0  0  0  0
    0.8764   -0.0604   -1.0649 C   0  0  0  0  0  0  0  0  0  0  0  0
    0.9518    1.3074   -1.2162 C   0  0  0  0  0  0  0  0  0  0  0  0
   -0.0511    2.1838   -0.8445 C   0  0  0  0  0  0  0  0  0  0  0  0
    0.0433    3.6292   -0.9956 C   0  0  0  0  0  0  0  0  0  0  0  0
   -0.9302    4.3151   -1.7035 C   0  0  0  0  0  0  0  0  0  0  0  0
   -0.8615    5.6495   -1.8915 N   0  0  0  0  0  0  0  0  0  0  0  0
    0.1509    6.3844   -1.4044 C   0  0  0  0  0  0  0  0  0  0  0  0
    1.1353    5.7290   -0.6942 C   0  0  0  0  0  0  0  0  0  0  0  0
    2.1799    6.4977   -0.1829 C   0  0  0  0  0  0  0  0  0  0  0  0
    3.1665    5.8663    0.5355 C   0  0  0  0  0  0  0  0  0  0  0  0
    3.1255    4.5120    0.7455 C   0  0  0  0  0  0  0  0  0  0  0  0
    2.0921    3.7535    0.2391 C   0  0  0  0  0  0  0  0  0  0  0  0
    1.0954    4.3459   -0.4800 C   0  0  0  0  0  0  0  0  0  0  0  0
   -1.1951    1.6068   -0.2857 C   0  0  0  0  0  0  0  0  0  0  0  0
   -1.3215    0.2482   -0.1127 C   0  0  0  0  0  0  0  0  0  0  0  0
   -2.5030   -0.3308    0.4630 N   0  0  0  0  0  0  0  0  0  0  0  0
   -3.5333   -0.9013   -0.1837 C   0  0  0  0  0  0  0  0  0  0  0  0
   -4.4669   -1.3308    0.7613 C   0  0  0  0  0  0  0  0  0  0  0  0
   -5.7618   -2.0176    0.4777 C   0  0  0  0  0  0  0  0  0  0  0  0
   -5.8505   -3.3219    1.2668 C   0  0  0  0  0  0  0  0  0  0  0  0
   -7.3392   -3.6120    1.1994 C   0  0  0  0  0  0  0  0  0  0  0  0
   -8.0236   -2.2638    1.0583 C   0  0  0  0  0  0  0  0  0  0  0  0
   -6.8960   -1.2305    1.0715 C   0  0  0  0  0  0  0  0  0  0  0  0
   -3.9417   -0.9912    1.9456 N   0  0  0  0  0  0  0  0  0  0  0  0
   -2.7572   -0.3884    1.7584 N   0  0  0  0  0  0  0  0  0  0  0  0
   -0.2792   -0.5613   -0.5071 C   0  0  0  0  0  0  0  0  0  0  0  0
    4.2955   -2.5183   -1.6548 C   0  0  0  0  0  0  0  0  0  0  0  0
    5.4311   -3.3076   -1.7787 C   0  0  0  0  0  0  0  0  0  0  0  0
    6.2694   -3.4495   -0.7020 C   0  0  0  0  0  0  0  0  0  0  0  0
    7.3956   -4.2552   -0.8858 O   0  0  0  0  0  0  0  0  0  0  0  0
  1  2  2  0
  2  3  1  0
  2  4  1  0
  4  5  2  0
  5  6  1  0
  6  7  1  0
  7  8  1  0
  8  9  1  0
  9 10  2  0
 10 11  1  0
 11 12  1  0
 12 13  2  0
 13 14  1  0
 14 15  2  0
 15 16  1  0
 16 17  2  0
 17 18  1  0
 18 19  2  0
 19 20  1  0
 20 21  2  0
 11 22  2  0
 22 23  1  0
 23 24  1  0
 24 25  1  0
 25 26  2  0
 26 27  1  0
 27 28  1  0
 28 29  1  0
 29 30  1  0
 30 31  1  0
 26 32  1  0
 32 33  2  0
 23 34  2  0
  6 35  2  0
 35 36  1  0
 36 37  2  0
 37 38  1  0
 37  4  1  0
 34  9  1  0
 21 12  1  0
 33 24  1  0
 21 16  1  0
 31 27  1  0
M  END
>  <score>  (206) 
-0.699296

$$$$
HIPS7128
     RDKit          3D

 43 48  0  0  0  0  0  0  0  0999 V2000
   -1.9831    4.5858   -2.8505 O   0  0  0  0  0  0  0  0  0  0  0  0
   -2.0862    4.0488   -1.7155 C   0  0  0  0  0  0  0  0  0  0  0  0
   -0.9443    3.9143   -0.9284 O   0  0  0  0  0  0  0  0  0  0  0  0
   -3.3963    3.5513   -1.2217 C   0  0  0  0  0  0  0  0  0  0  0  0
   -3.4595    2.9148    0.0324 C   0  0  0  0  0  0  0  0  0  0  0  0
   -4.6722    2.3887    0.5170 C   0  0  0  0  0  0  0  0  0  0  0  0
   -4.7683    1.7143    1.7451 O   0  0  0  0  0  0  0  0  0  0  0  0
   -3.6712    1.4050    2.6071 C   0  0  0  0  0  0  0  0  0  0  0  0
   -2.7380    0.4126    1.9625 C   0  0  0  0  0  0  0  0  0  0  0  0
   -3.2470   -0.7532    1.3739 C   0  0  0  0  0  0  0  0  0  0  0  0
   -2.3853   -1.6761    0.7644 C   0  0  0  0  0  0  0  0  0  0  0  0
   -2.9329   -2.8807    0.1008 C   0  0  0  0  0  0  0  0  0  0  0  0
   -2.7644   -3.0153   -1.2860 C   0  0  0  0  0  0  0  0  0  0  0  0
   -3.2892   -4.0779   -1.9479 N   0  0  0  0  0  0  0  0  0  0  0  0
   -3.9866   -5.0495   -1.3073 C   0  0  0  0  0  0  0  0  0  0  0  0
   -4.1775   -4.9820    0.0790 C   0  0  0  0  0  0  0  0  0  0  0  0
   -4.8858   -5.9906    0.7502 C   0  0  0  0  0  0  0  0  0  0  0  0
   -5.0511   -5.9287    2.1350 C   0  0  0  0  0  0  0  0  0  0  0  0
   -4.5075   -4.8674    2.8593 C   0  0  0  0  0  0  0  0  0  0  0  0
   -3.8021   -3.8551    2.2042 C   0  0  0  0  0  0  0  0  0  0  0  0
   -3.6388   -3.8882    0.8031 C   0  0  0  0  0  0  0  0  0  0  0  0
   -1.0063   -1.4225    0.7375 C   0  0  0  0  0  0  0  0  0  0  0  0
   -0.4776   -0.2640    1.3320 C   0  0  0  0  0  0  0  0  0  0  0  0
    0.9420   -0.0193    1.2966 N   0  0  0  0  0  0  0  0  0  0  0  0
    1.5824    1.1456    1.5103 C   0  0  0  0  0  0  0  0  0  0  0  0
    2.9248    0.8822    1.3577 C   0  0  0  0  0  0  0  0  0  0  0  0
    4.0435    1.8752    1.4403 C   0  0  0  0  0  0  0  0  0  0  0  0
    4.6458    2.0537    0.1572 O   0  0  0  0  0  0  0  0  0  0  0  0
    5.5590    1.1750   -0.4496 C   0  0  0  0  0  0  0  0  0  0  0  0
    5.9312    1.4249   -1.7762 C   0  0  0  0  0  0  0  0  0  0  0  0
    6.8458    0.5929   -2.4283 C   0  0  0  0  0  0  0  0  0  0  0  0
    7.4015   -0.5083   -1.7617 C   0  0  0  0  0  0  0  0  0  0  0  0
    8.4238   -1.3655   -2.4501 C   0  0  0  0  0  0  0  0  0  0  0  0
    9.6612   -0.7144   -2.4300 O   0  0  0  0  0  0  0  0  0  0  0  0
    7.0407   -0.7572   -0.4281 C   0  0  0  0  0  0  0  0  0  0  0  0
    6.1212    0.0721    0.2229 C   0  0  0  0  0  0  0  0  0  0  0  0
    3.0698   -0.4209    1.0498 N   0  0  0  0  0  0  0  0  0  0  0  0
    1.8522   -0.9430    1.0227 N   0  0  0  0  0  0  0  0  0  0  0  0
   -1.3534    0.6422    1.9572 C   0  0  0  0  0  0  0  0  0  0  0  0
   -5.8313    2.5309   -0.2480 C   0  0  0  0  0  0  0  0  0  0  0  0
   -5.7892    3.1748   -1.4842 C   0  0  0  0  0  0  0  0  0  0  0  0
   -4.5819    3.6848   -1.9805 C   0  0  0  0  0  0  0  0  0  0  0  0
   -4.5667    4.3208   -3.2225 O   0  0  0  0  0  0  0  0  0  0  0  0
  1  2  2  0
  2  3  1  0
  2  4  1  0
  4  5  2  0
  5  6  1  0
  6  7  1  0
  7  8  1  0
  8  9  1  0
  9 10  2  0
 10 11  1  0
 11 12  1  0
 12 13  2  0
 13 14  1  0
 14 15  2  0
 15 16  1  0
 16 17  2  0
 17 18  1  0
 18 19  2  0
 19 20  1  0
 20 21  2  0
 11 22  2  0
 22 23  1  0
 23 24  1  0
 24 25  1  0
 25 26  2  0
 26 27  1  0
 27 28  1  0
 28 29  1  0
 29 30  2  0
 30 31  1  0
 31 32  2  0
 32 33  1  0
 33 34  1  0
 32 35  1  0
 35 36  2  0
 26 37  1  0
 37 38  2  0
 23 39  2  0
  6 40  2  0
 40 41  1  0
 41 42  2  0
 42 43  1  0
 42  4  1  0
 39  9  1  0
 21 12  1  0
 38 24  1  0
 21 16  1  0
 36 29  1  0
M  END
>  <score>  (207) 
0.526927

$$$$
HIPS7140
     RDKit          3D

 32 34  0  0  0  0  0  0  0  0999 V2000
    0.1432    5.3199   -6.7616 C   0  0  0  0  0  0  0  0  0  0  0  0
    1.3060    4.4954   -6.1885 C   0  0  0  0  0  0  0  0  0  0  0  0
    2.4443    5.4533   -5.7875 C   0  0  0  0  0  0  0  0  0  0  0  0
    1.7865    3.5002   -7.2623 C   0  0  0  0  0  0  0  0  0  0  0  0
    0.8046    3.7963   -5.0391 O   0  0  0  0  0  0  0  0  0  0  0  0
    1.5287    2.9177   -4.2194 C   0  0  0  0  0  0  0  0  0  0  0  0
    2.7509    2.6930   -4.4317 O   0  0  0  0  0  0  0  0  0  0  0  0
    0.8637    2.3092   -3.1044 N   0  0  0  0  0  0  0  0  0  0  0  0
    1.4237    1.2539   -2.3037 C   0  0  0  0  0  0  0  0  0  0  0  0
    2.2300    0.2533   -2.8716 C   0  0  0  0  0  0  0  0  0  0  0  0
    2.7411   -0.7735   -2.0766 C   0  0  0  0  0  0  0  0  0  0  0  0
    2.4445   -0.8223   -0.7130 C   0  0  0  0  0  0  0  0  0  0  0  0
    1.6203    0.1556   -0.1265 C   0  0  0  0  0  0  0  0  0  0  0  0
    1.2936    0.0987    1.3204 C   0  0  0  0  0  0  0  0  0  0  0  0
    0.4961    1.0474    1.8839 N   0  0  0  0  0  0  0  0  0  0  0  0
    0.1820    1.0137    3.2044 C   0  0  0  0  0  0  0  0  0  0  0  0
    0.6732   -0.0155    4.0147 C   0  0  0  0  0  0  0  0  0  0  0  0
    0.3523   -0.0733    5.4840 C   0  0  0  0  0  0  0  0  0  0  0  0
   -0.1289   -1.3677    5.8481 O   0  0  0  0  0  0  0  0  0  0  0  0
   -1.3716   -1.9066    5.4761 C   0  0  0  0  0  0  0  0  0  0  0  0
   -2.3372   -1.1691    4.7707 C   0  0  0  0  0  0  0  0  0  0  0  0
   -3.5579   -1.7535    4.4318 C   0  0  0  0  0  0  0  0  0  0  0  0
   -3.8428   -3.0749    4.7913 C   0  0  0  0  0  0  0  0  0  0  0  0
   -5.1127   -3.5718    4.4906 O   0  0  0  0  0  0  0  0  0  0  0  0
   -2.8650   -3.8417    5.4704 C   0  0  0  0  0  0  0  0  0  0  0  0
   -3.0614   -5.2727    5.7893 C   0  0  0  0  0  0  0  0  0  0  0  0
   -2.5561   -5.7600    6.8366 O   0  0  0  0  0  0  0  0  0  0  0  0
   -3.7494   -6.1062    4.9124 O   0  0  0  0  0  0  0  0  0  0  0  0
   -1.6465   -3.2334    5.8236 C   0  0  0  0  0  0  0  0  0  0  0  0
    1.5022   -0.9748    3.4239 C   0  0  0  0  0  0  0  0  0  0  0  0
    1.7903   -0.9015    2.0992 N   0  0  0  0  0  0  0  0  0  0  0  0
    1.1086    1.1871   -0.9376 C   0  0  0  0  0  0  0  0  0  0  0  0
  1  2  1  0
  2  3  1  0
  2  4  1  0
  2  5  1  0
  5  6  1  0
  6  7  2  0
  6  8  1  0
  8  9  1  0
  9 10  2  0
 10 11  1  0
 11 12  2  0
 12 13  1  0
 13 14  1  0
 14 15  2  0
 15 16  1  0
 16 17  2  0
 17 18  1  0
 18 19  1  0
 19 20  1  0
 20 21  2  0
 21 22  1  0
 22 23  2  0
 23 24  1  0
 23 25  1  0
 25 26  1  0
 26 27  2  0
 26 28  1  0
 25 29  2  0
 17 30  1  0
 30 31  2  0
 13 32  2  0
 32  9  1  0
 31 14  1  0
 29 20  1  0
M  END
>  <score>  (208) 
0.478913

$$$$
HIPS7239
     RDKit          3D

 33 37  0  0  0  0  0  0  0  0999 V2000
   -2.0378   -0.2367   -3.0516 C   0  0  0  0  0  0  0  0  0  0  0  0
   -2.5750    1.1604   -2.7631 C   0  0  0  0  0  0  0  0  0  0  0  0
   -1.9679    1.6963   -1.5907 O   0  0  0  0  0  0  0  0  0  0  0  0
   -0.6508    2.1673   -1.5542 C   0  0  0  0  0  0  0  0  0  0  0  0
    0.1297    2.2747   -2.6571 N   0  0  0  0  0  0  0  0  0  0  0  0
    1.2980    2.7029   -2.1531 C   0  0  0  0  0  0  0  0  0  0  0  0
    2.4820    2.8875   -2.8592 C   0  0  0  0  0  0  0  0  0  0  0  0
    3.6254    3.2605   -2.1393 C   0  0  0  0  0  0  0  0  0  0  0  0
    3.5547    3.4728   -0.7483 C   0  0  0  0  0  0  0  0  0  0  0  0
    2.3375    3.3120   -0.0502 C   0  0  0  0  0  0  0  0  0  0  0  0
    2.2765    3.7609    1.3475 C   0  0  0  0  0  0  0  0  0  0  0  0
    1.4132    4.6075    1.7029 O   0  0  0  0  0  0  0  0  0  0  0  0
    3.2373    3.3284    2.2563 O   0  0  0  0  0  0  0  0  0  0  0  0
    1.2167    2.8738   -0.7929 C   0  0  0  0  0  0  0  0  0  0  0  0
   -0.0294    2.5154   -0.3975 N   0  0  0  0  0  0  0  0  0  0  0  0
   -0.5254    2.1452    0.9344 C   0  0  0  0  0  0  0  0  0  0  0  0
   -0.2648    0.6844    1.1940 C   0  0  0  0  0  0  0  0  0  0  0  0
    0.9825    0.2630    1.6804 C   0  0  0  0  0  0  0  0  0  0  0  0
    1.2463   -1.0970    1.8652 C   0  0  0  0  0  0  0  0  0  0  0  0
    0.2732   -2.0552    1.5454 C   0  0  0  0  0  0  0  0  0  0  0  0
    0.5507   -3.4941    1.7411 C   0  0  0  0  0  0  0  0  0  0  0  0
    0.7878   -3.9507    3.0489 C   0  0  0  0  0  0  0  0  0  0  0  0
    0.9662   -5.3103    3.3054 C   0  0  0  0  0  0  0  0  0  0  0  0
    0.9070   -6.2313    2.2612 C   0  0  0  0  0  0  0  0  0  0  0  0
    0.6871   -5.7951    0.9535 C   0  0  0  0  0  0  0  0  0  0  0  0
    0.5228   -4.4265    0.6692 C   0  0  0  0  0  0  0  0  0  0  0  0
    0.3782   -4.0108   -0.7480 C   0  0  0  0  0  0  0  0  0  0  0  0
   -0.0378   -4.8280   -1.7378 N   0  0  0  0  0  0  0  0  0  0  0  0
    0.0280   -4.0963   -2.8379 N   0  0  0  0  0  0  0  0  0  0  0  0
    0.4727   -2.8913   -2.5289 N   0  0  0  0  0  0  0  0  0  0  0  0
    0.7097   -2.7974   -1.2328 N   0  0  0  0  0  0  0  0  0  0  0  0
   -0.9764   -1.6356    1.0643 C   0  0  0  0  0  0  0  0  0  0  0  0
   -1.2420   -0.2759    0.8865 C   0  0  0  0  0  0  0  0  0  0  0  0
  1  2  1  0
  2  3  1  0
  3  4  1  0
  4  5  2  0
  5  6  1  0
  6  7  2  0
  7  8  1  0
  8  9  2  0
  9 10  1  0
 10 11  1  0
 11 12  2  0
 11 13  1  0
 10 14  2  0
 14 15  1  0
 15 16  1  0
 16 17  1  0
 17 18  2  0
 18 19  1  0
 19 20  2  0
 20 21  1  0
 21 22  2  0
 22 23  1  0
 23 24  2  0
 24 25  1  0
 25 26  2  0
 26 27  1  0
 27 28  1  0
 28 29  2  0
 29 30  1  0
 30 31  1  0
 20 32  1  0
 32 33  2  0
 15  4  1  0
 33 17  1  0
 14  6  1  0
 26 21  1  0
 31 27  2  0
M  END
>  <score>  (209) 
0.59379

$$$$
HIPS7240
     RDKit          3D

 32 34  0  0  0  0  0  0  0  0999 V2000
   -5.0539   -0.7931   -2.1146 C   0  0  0  0  0  0  0  0  0  0  0  0
   -3.8655   -0.9874   -3.0512 C   0  0  0  0  0  0  0  0  0  0  0  0
   -2.8854   -2.0681   -2.5605 C   0  0  0  0  0  0  0  0  0  0  0  0
   -2.1975   -1.7405   -1.2266 C   0  0  0  0  0  0  0  0  0  0  0  0
   -1.3991   -0.4704   -1.2992 C   0  0  0  0  0  0  0  0  0  0  0  0
   -1.8800    0.5907   -0.8207 O   0  0  0  0  0  0  0  0  0  0  0  0
   -0.1188   -0.4348   -1.9538 N   0  0  0  0  0  0  0  0  0  0  0  0
    0.9993   -1.2149   -1.3916 C   0  0  0  0  0  0  0  0  0  0  0  0
    1.3139   -0.7730    0.0156 C   0  0  0  0  0  0  0  0  0  0  0  0
    0.6445   -1.3507    1.1053 C   0  0  0  0  0  0  0  0  0  0  0  0
    0.8790   -0.8928    2.4033 C   0  0  0  0  0  0  0  0  0  0  0  0
    1.7830    0.1574    2.6334 C   0  0  0  0  0  0  0  0  0  0  0  0
    2.0227    0.6561    4.0076 C   0  0  0  0  0  0  0  0  0  0  0  0
    3.3373    0.6328    4.5064 C   0  0  0  0  0  0  0  0  0  0  0  0
    3.6065    1.0159    5.8205 C   0  0  0  0  0  0  0  0  0  0  0  0
    2.5694    1.4271    6.6551 C   0  0  0  0  0  0  0  0  0  0  0  0
    1.2603    1.4726    6.1744 C   0  0  0  0  0  0  0  0  0  0  0  0
    0.9684    1.1027    4.8490 C   0  0  0  0  0  0  0  0  0  0  0  0
   -0.4248    1.2453    4.3616 C   0  0  0  0  0  0  0  0  0  0  0  0
   -0.7711    1.5864    3.1059 N   0  0  0  0  0  0  0  0  0  0  0  0
   -2.0964    1.6262    3.1128 N   0  0  0  0  0  0  0  0  0  0  0  0
   -2.5514    1.3281    4.3199 N   0  0  0  0  0  0  0  0  0  0  0  0
   -1.5250    1.0922    5.1169 N   0  0  0  0  0  0  0  0  0  0  0  0
    2.4788    0.7124    1.5480 C   0  0  0  0  0  0  0  0  0  0  0  0
    2.2460    0.2506    0.2501 C   0  0  0  0  0  0  0  0  0  0  0  0
   -0.0040    0.3102   -3.2247 C   0  0  2  0  0  0  0  0  0  0  0  0
    0.2332   -0.6445   -4.3692 C   0  0  0  0  0  0  0  0  0  0  0  0
    1.2792   -1.3508   -4.4177 O   0  0  0  0  0  0  0  0  0  0  0  0
   -0.6965   -0.7254   -5.3971 O   0  0  0  0  0  0  0  0  0  0  0  0
    1.0624    1.4380   -3.1485 C   0  0  0  0  0  0  0  0  0  0  0  0
    0.6893    2.4667   -2.0699 C   0  0  0  0  0  0  0  0  0  0  0  0
    1.2162    2.1619   -4.4978 C   0  0  0  0  0  0  0  0  0  0  0  0
  1  2  1  0
  2  3  1  0
  3  4  1  0
  4  5  1  0
  5  6  2  0
  5  7  1  0
  7  8  1  0
  8  9  1  0
  9 10  2  0
 10 11  1  0
 11 12  2  0
 12 13  1  0
 13 14  2  0
 14 15  1  0
 15 16  2  0
 16 17  1  0
 17 18  2  0
 18 19  1  0
 19 20  2  0
 20 21  1  0
 21 22  2  0
 22 23  1  0
 12 24  1  0
 24 25  2  0
  7 26  1  0
 26 27  1  0
 27 28  2  0
 27 29  1  0
 26 30  1  1
 30 31  1  0
 30 32  1  0
 25  9  1  0
 18 13  1  0
 23 19  1  0
M  END
>  <score>  (210) 
0.442679

$$$$
HIPS7241
     RDKit          3D

 28 32  0  0  0  0  0  0  0  0999 V2000
   -8.9726    1.2441   -0.0397 C   0  0  0  0  0  0  0  0  0  0  0  0
   -7.5321    0.8674    0.0971 C   0  0  0  0  0  0  0  0  0  0  0  0
   -7.0391    0.2761    1.2435 C   0  0  0  0  0  0  0  0  0  0  0  0
   -5.6962   -0.0699    1.3587 C   0  0  0  0  0  0  0  0  0  0  0  0
   -4.8114    0.1684    0.3257 C   0  0  0  0  0  0  0  0  0  0  0  0
   -3.4031   -0.1920    0.4406 C   0  0  0  0  0  0  0  0  0  0  0  0
   -2.5151    0.4040    1.2563 N   0  0  0  0  0  0  0  0  0  0  0  0
   -1.3505   -0.1698    1.1024 O   0  0  0  0  0  0  0  0  0  0  0  0
   -1.4164   -1.1289    0.2159 C   0  0  0  0  0  0  0  0  0  0  0  0
   -0.2706   -1.9756   -0.1902 C   0  0  0  0  0  0  0  0  0  0  0  0
    0.4392   -1.4235   -1.3193 N   0  0  0  0  0  0  0  0  0  0  0  0
    1.5096   -2.2656   -1.7176 C   0  0  0  0  0  0  0  0  0  0  0  0
    2.6739   -2.0631   -0.8390 C   0  0  0  0  0  0  0  0  0  0  0  0
    3.1174   -0.8056   -0.6670 C   0  0  0  0  0  0  0  0  0  0  0  0
    4.2620   -0.5909    0.1882 C   0  0  0  0  0  0  0  0  0  0  0  0
    4.7611   -1.5728    1.0459 C   0  0  0  0  0  0  0  0  0  0  0  0
    5.8334   -1.0598    1.6454 N   0  0  0  0  0  0  0  0  0  0  0  0
    6.0478    0.1944    1.2178 C   0  0  0  0  0  0  0  0  0  0  0  0
    7.0179    1.1476    1.5076 C   0  0  0  0  0  0  0  0  0  0  0  0
    7.0368    2.3885    0.9095 C   0  0  0  0  0  0  0  0  0  0  0  0
    6.0704    2.7181   -0.0119 C   0  0  0  0  0  0  0  0  0  0  0  0
    5.1000    1.7620   -0.2998 C   0  0  0  0  0  0  0  0  0  0  0  0
    5.0679    0.5211    0.2912 C   0  0  0  0  0  0  0  0  0  0  0  0
    2.2939    0.2223   -1.3376 C   0  0  0  0  0  0  0  0  0  0  0  0
    0.7997   -0.0694   -1.1097 C   0  0  0  0  0  0  0  0  0  0  0  0
   -2.6996   -1.1456   -0.2003 N   0  0  0  0  0  0  0  0  0  0  0  0
   -5.3258    0.7616   -0.8140 C   0  0  0  0  0  0  0  0  0  0  0  0
   -6.6532    1.1074   -0.9369 C   0  0  0  0  0  0  0  0  0  0  0  0
  1  2  1  0
  2  3  2  0
  3  4  1  0
  4  5  2  0
  5  6  1  0
  6  7  2  0
  7  8  1  0
  8  9  1  0
  9 10  1  0
 10 11  1  0
 11 12  1  0
 12 13  1  0
 13 14  2  0
 14 15  1  0
 15 16  2  0
 16 17  1  0
 17 18  1  0
 18 19  2  0
 19 20  1  0
 20 21  2  0
 21 22  1  0
 22 23  2  0
 14 24  1  0
 24 25  1  0
  9 26  2  0
  5 27  1  0
 27 28  2  0
 28  2  1  0
 26  6  1  0
 25 11  1  0
 23 15  1  0
 23 18  1  0
M  END
>  <score>  (211) 
0.696012

$$$$
HIPS7242
     RDKit          3D

 25 28  0  0  0  0  0  0  0  0999 V2000
   -0.2274    2.4069    2.8426 C   0  0  0  0  0  0  0  0  0  0  0  0
    0.8494    1.4993    3.2167 N   0  0  0  0  0  0  0  0  0  0  0  0
    1.1384    1.1669    4.4719 N   0  0  0  0  0  0  0  0  0  0  0  0
    2.2646    0.4086    4.4634 C   0  0  0  0  0  0  0  0  0  0  0  0
    2.6922    0.2893    3.1567 C   0  0  0  0  0  0  0  0  0  0  0  0
    3.7893   -0.2982    2.5475 C   0  0  0  0  0  0  0  0  0  0  0  0
    4.6491   -0.9292    3.2188 O   0  0  0  0  0  0  0  0  0  0  0  0
    3.9152   -0.1649    1.1920 N   0  0  0  0  0  0  0  0  0  0  0  0
    2.9807    0.5239    0.4522 C   0  0  0  0  0  0  0  0  0  0  0  0
    3.1663    0.6739   -0.9623 N   0  0  0  0  0  0  0  0  0  0  0  0
    2.0928    0.9282   -1.8813 C   0  0  0  0  0  0  0  0  0  0  0  0
    2.3275    1.7197   -3.0136 C   0  0  0  0  0  0  0  0  0  0  0  0
    1.3146    1.9248   -3.9534 C   0  0  0  0  0  0  0  0  0  0  0  0
    0.0650    1.3253   -3.7798 C   0  0  0  0  0  0  0  0  0  0  0  0
   -0.1880    0.5270   -2.6589 C   0  0  0  0  0  0  0  0  0  0  0  0
   -1.4404   -0.0965   -2.5487 O   0  0  0  0  0  0  0  0  0  0  0  0
   -2.0649   -0.4621   -1.3474 C   0  0  0  0  0  0  0  0  0  0  0  0
   -1.9130    0.2950   -0.1718 C   0  0  0  0  0  0  0  0  0  0  0  0
   -2.5653   -0.0910    1.0031 C   0  0  0  0  0  0  0  0  0  0  0  0
   -3.3800   -1.2262    1.0101 C   0  0  0  0  0  0  0  0  0  0  0  0
   -3.5505   -1.9716   -0.1601 C   0  0  0  0  0  0  0  0  0  0  0  0
   -2.9001   -1.5861   -1.3364 C   0  0  0  0  0  0  0  0  0  0  0  0
    0.8342    0.3238   -1.7123 C   0  0  0  0  0  0  0  0  0  0  0  0
    1.9096    1.1137    1.0724 N   0  0  0  0  0  0  0  0  0  0  0  0
    1.7915    0.9762    2.4155 C   0  0  0  0  0  0  0  0  0  0  0  0
  1  2  1  0
  2  3  1  0
  3  4  2  0
  4  5  1  0
  5  6  1  0
  6  7  2  0
  6  8  1  0
  8  9  1  0
  9 10  1  0
 10 11  1  0
 11 12  2  0
 12 13  1  0
 13 14  2  0
 14 15  1  0
 15 16  1  0
 16 17  1  0
 17 18  2  0
 18 19  1  0
 19 20  2  0
 20 21  1  0
 21 22  2  0
 15 23  2  0
  9 24  2  0
 24 25  1  0
 25  2  1  0
 25  5  2  0
 23 11  1  0
 22 17  1  0
M  END
>  <score>  (212) 
-0.84621

$$$$
